REMARK  Name = ZINC03248537
REMARK  6 active torsions:
REMARK  status: ('A' for Active; 'I' for Inactive)
REMARK    1  A    between atoms: C_5  and  C_7
REMARK    2  A    between atoms: C_13  and  S_17
REMARK    3  A    between atoms: C_14  and  C_15
REMARK    4  A    between atoms: S_17  and  C_18
REMARK    5  A    between atoms: C_18  and  C_19
REMARK    6  A    between atoms: N_21  and  C_22
REMARK                            x       y       z     vdW  Elec       q    Type
REMARK                         _______ _______ _______ _____ _____    ______ ____
ROOT
ATOM      1  C   UNL     1      -1.243   3.924   0.013  0.00  0.00    +0.073 C 
ATOM      2  C   UNL     1      -0.067   4.457  -0.807  0.00  0.00    +0.109 C 
ATOM      3  C   UNL     1       1.198   3.751  -0.392  0.00  0.00    +0.218 C 
ATOM      4  O   UNL     1       2.251   4.351  -0.395  0.00  0.00    -0.275 OA
ATOM      5  N   UNL     1       1.166   2.458  -0.018  0.00  0.00    -0.279 N 
ATOM      6  C   UNL     1      -0.021   1.758  -0.002  0.00  0.00    +0.082 C 
ATOM      7  C   UNL     1      -1.213   2.418   0.008  0.00  0.00    +0.065 C 
ATOM      8  H   UNL     1       1.988   2.015   0.243  0.00  0.00    +0.155 HD
ENDROOT
BRANCH   1  13
ATOM      9  C   UNL     1       0.066   4.580   3.493  0.00  0.00    +0.000 A 
ATOM     10  C   UNL     1      -0.946   5.356   4.028  0.00  0.00    +0.003 A 
ATOM     11  C   UNL     1      -2.054   5.670   3.265  0.00  0.00    +0.038 A 
ATOM     12  C   UNL     1      -2.150   5.210   1.962  0.00  0.00    +0.127 A 
ATOM     13  C   UNL     1      -1.139   4.429   1.429  0.00  0.00    -0.004 A 
ATOM     14  C   UNL     1      -0.031   4.117   2.194  0.00  0.00    +0.007 A 
ATOM     15  F   UNL     1      -3.231   5.519   1.213  0.00  0.00    -0.205 F 
ENDBRANCH   1  13
BRANCH   7  16
ATOM     16  C   UNL     1      -2.439   1.678   0.019  0.00  0.00    +0.098 C 
ATOM     17  N   UNL     1      -3.412   1.091   0.028  0.00  0.00    -0.191 NA
ENDBRANCH   7  16
BRANCH   6  18
ATOM     18  S   UNL     1       0.002  -0.004   0.000  0.00  0.00    -0.100 S 
BRANCH  18  19
ATOM     19  C   UNL     1       1.789  -0.294  -0.023  0.00  0.00    +0.171 C 
BRANCH  19  20
ATOM     20  C   UNL     1       2.057  -1.777  -0.025  0.00  0.00    +0.227 C 
ATOM     21  O   UNL     1       1.131  -2.560  -0.012  0.00  0.00    -0.275 OA
ATOM     22  N   UNL     1       3.325  -2.232  -0.042  0.00  0.00    -0.285 N 
ATOM     23  H   UNL     1       4.064  -1.608  -0.120  0.00  0.00    +0.155 HD
BRANCH  22  24
ATOM     24  C   UNL     1       3.577  -3.606   0.054  0.00  0.00    +0.036 A 
ATOM     25  C   UNL     1       4.700  -4.061   0.733  0.00  0.00    +0.023 A 
ATOM     26  C   UNL     1       4.944  -5.417   0.831  0.00  0.00    +0.005 A 
ATOM     27  C   UNL     1       4.077  -6.322   0.245  0.00  0.00    +0.038 A 
ATOM     28  C   UNL     1       2.959  -5.871  -0.437  0.00  0.00    +0.125 A 
ATOM     29  C   UNL     1       2.707  -4.514  -0.534  0.00  0.00    +0.061 A 
ATOM     30  F   UNL     1       2.114  -6.757  -1.008  0.00  0.00    -0.205 F 
ENDBRANCH  22  24
ENDBRANCH  19  20
ENDBRANCH  18  19
ENDBRANCH   6  18
TORSDOF 6
