REMARK  Name = ZINC20892987
REMARK  7 active torsions:
REMARK  status: ('A' for Active; 'I' for Inactive)
REMARK    1  A    between atoms: C_1  and  C_2
REMARK    2  A    between atoms: N_5  and  C_7
REMARK    3  A    between atoms: C_19  and  C_21
REMARK    4  A    between atoms: C_26  and  O_27
REMARK    5  A    between atoms: O_27  and  C_28
REMARK    6  A    between atoms: C_28  and  C_29
REMARK    7  A    between atoms: C_28  and  C_30
REMARK                            x       y       z     vdW  Elec       q    Type
REMARK                         _______ _______ _______ _____ _____    ______ ____
ROOT
ATOM      1  C   UNL     1      -1.716   4.479  -0.824  0.00  0.00    +0.068 C 
ATOM      2  C   UNL     1      -1.349   5.135  -2.129  0.00  0.00    +0.067 A 
ATOM      3  C   UNL     1      -1.497   4.559  -3.409  0.00  0.00    +0.033 A 
ATOM      4  C   UNL     1      -1.057   5.455  -4.319  0.00  0.00    +0.133 A 
ATOM      5  N   UNL     1      -0.647   6.569  -3.621  0.00  0.00    -0.216 N 
ATOM      6  N   UNL     1      -0.844   6.329  -2.262  0.00  0.00    -0.170 NA
ATOM      7  N   UNL     1      -0.972   5.404  -5.689  0.00  0.00    -0.269 N 
ATOM      8  C   UNL     1      -1.312   4.540  -6.598  0.00  0.00    +0.228 C 
ATOM      9  O   UNL     1      -1.162   4.916  -7.742  0.00  0.00    -0.275 OA
ATOM     10  C   UNL     1      -1.854   3.171  -6.461  0.00  0.00    +0.166 C 
ATOM     11  S   UNL     1      -3.021   3.011  -5.102  0.00  0.00    -0.138 S 
ATOM     12  C   UNL     1      -2.057   3.184  -3.598  0.00  0.00    +0.115 C 
ATOM     13  H   UNL     1      -0.528   6.243  -6.245  0.00  0.00    +0.156 HD
ENDROOT
BRANCH   5  14
ATOM     14  C   UNL     1      -0.123   7.743  -4.181  0.00  0.00    +0.086 A 
ATOM     15  C   UNL     1      -0.810   8.396  -5.196  0.00  0.00    +0.029 A 
ATOM     16  C   UNL     1      -0.292   9.552  -5.746  0.00  0.00    +0.002 A 
ATOM     17  C   UNL     1       0.909  10.061  -5.286  0.00  0.00    +0.002 A 
ATOM     18  C   UNL     1       1.595   9.414  -4.274  0.00  0.00    +0.022 A 
ATOM     19  C   UNL     1       1.080   8.259  -3.717  0.00  0.00    +0.066 A 
ATOM     20 CL   UNL     1       1.939   7.450  -2.444  0.00  0.00    -0.081 Cl
ENDBRANCH   5  14
BRANCH  12  21
ATOM     21  C   UNL     1      -2.937   2.853  -2.420  0.00  0.00    +0.012 A 
ATOM     22  C   UNL     1      -2.477   2.005  -1.430  0.00  0.00    +0.008 A 
ATOM     23  C   UNL     1      -3.286   1.698  -0.352  0.00  0.00    +0.001 A 
ATOM     24  C   UNL     1      -4.554   2.241  -0.258  0.00  0.00    +0.004 A 
ATOM     25  C   UNL     1      -5.015   3.094  -1.241  0.00  0.00    +0.046 A 
ATOM     26  C   UNL     1      -4.206   3.405  -2.324  0.00  0.00    +0.125 A 
BRANCH  26  27
ATOM     27  O   UNL     1      -4.658   4.244  -3.293  0.00  0.00    -0.489 OA
BRANCH  27  28
ATOM     28  C   UNL     1      -5.957   4.809  -3.108  0.00  0.00    +0.167 C 
ATOM     29  C   UNL     1      -5.854   6.041  -2.208  0.00  0.00    +0.051 C 
ATOM     30  C   UNL     1      -6.535   5.216  -4.465  0.00  0.00    +0.051 C 
ENDBRANCH  27  28
ENDBRANCH  26  27
ENDBRANCH  12  21
TORSDOF 4
