REMARK  Name = ZINC39863070
REMARK  2 active torsions:
REMARK  status: ('A' for Active; 'I' for Inactive)
REMARK    1  A    between atoms: C_5  and  N_7
REMARK    2  A    between atoms: N_9  and  C_25
REMARK                            x       y       z     vdW  Elec       q    Type
REMARK                         _______ _______ _______ _____ _____    ______ ____
ROOT
ATOM      1  N   UNL     1       1.184  -2.187  -0.135  0.00  0.00    -0.206 NA
ATOM      2  C   UNL     1       2.377  -2.734  -0.192  0.00  0.00    +0.170 C 
ATOM      3  N   UNL     1       3.604  -2.118  -0.097  0.00  0.00    -0.243 N 
ATOM      4  C   UNL     1       4.722  -2.820  -0.175  0.00  0.00    +0.260 C 
ATOM      5  O   UNL     1       5.814  -2.293  -0.093  0.00  0.00    -0.269 OA
ATOM      6  C   UNL     1       4.576  -4.287  -0.367  0.00  0.00    +0.090 C 
ATOM      7  C   UNL     1       5.552  -5.259  -0.482  0.00  0.00    +0.065 C 
ATOM      8  C   UNL     1       7.011  -5.058  -0.604  0.00  0.00    +0.011 A 
ATOM      9  C   UNL     1       7.817  -3.924  -0.642  0.00  0.00    +0.025 A 
ATOM     10  C   UNL     1       9.186  -4.061  -0.767  0.00  0.00    +0.019 A 
ATOM     11  C   UNL     1       9.752  -5.322  -0.853  0.00  0.00    +0.017 A 
ATOM     12  C   UNL     1       8.961  -6.453  -0.817  0.00  0.00    +0.025 A 
ATOM     13  C   UNL     1       7.582  -6.336  -0.691  0.00  0.00    +0.042 A 
ATOM     14  N   UNL     1       6.574  -7.293  -0.630  0.00  0.00    -0.281 N 
ATOM     15  C   UNL     1       5.364  -6.723  -0.502  0.00  0.00    +0.250 C 
ATOM     16  O   UNL     1       4.301  -7.309  -0.420  0.00  0.00    -0.270 OA
ATOM     17 BR   UNL     1      10.288  -2.525  -0.820  0.00  0.00    -0.050 Br
ATOM     18  S   UNL     1       2.797  -4.456  -0.403  0.00  0.00    -0.048 S 
ATOM     19  H   UNL     1       6.726  -8.250  -0.671  0.00  0.00    +0.155 HD
ENDROOT
BRANCH   1  24
ATOM     20  C   UNL     1       0.734   1.221   1.070  0.00  0.00    +0.005 A 
ATOM     21  C   UNL     1       0.802   1.884  -0.149  0.00  0.00    +0.020 A 
ATOM     22  C   UNL     1       0.995   1.158  -1.308  0.00  0.00    +0.113 A 
ATOM     23  N   UNL     1       1.115  -0.155  -1.273  0.00  0.00    -0.236 NA
ATOM     24  C   UNL     1       1.056  -0.829  -0.129  0.00  0.00    +0.155 A 
ATOM     25  C   UNL     1       0.862  -0.154   1.082  0.00  0.00    +0.048 A 
ENDBRANCH   1  24
BRANCH   3  26
ATOM     26  C   UNL     1       3.673  -0.666   0.093  0.00  0.00    +0.084 C 
ATOM     27  C   UNL     1       4.291  -0.019  -1.148  0.00  0.00    +0.023 C 
ATOM     28  C   UNL     1       4.363   1.497  -0.950  0.00  0.00    +0.002 C 
ATOM     29  C   UNL     1       5.227   1.811   0.273  0.00  0.00    +0.000 C 
ATOM     30  C   UNL     1       4.609   1.163   1.514  0.00  0.00    +0.002 C 
ATOM     31  C   UNL     1       4.537  -0.352   1.316  0.00  0.00    +0.023 C 
ENDBRANCH   3  26
TORSDOF 2
