REMARK  Name = ZINC22506027
REMARK  11 active torsions:
REMARK  status: ('A' for Active; 'I' for Inactive)
REMARK    1  A    between atoms: C_1  and  C_2
REMARK    2  A    between atoms: C_2  and  N_3
REMARK    3  A    between atoms: N_3  and  C_4
REMARK    4  A    between atoms: N_3  and  C_6
REMARK    5  A    between atoms: C_4  and  C_5
REMARK    6  A    between atoms: C_9  and  N_12
REMARK    7  A    between atoms: C_13  and  C_15
REMARK    8  A    between atoms: C_15  and  C_16
REMARK    9  A    between atoms: C_21  and  N_23
REMARK   10  A    between atoms: N_23  and  N_24
REMARK   11  A    between atoms: C_36  and  C_38
REMARK                            x       y       z     vdW  Elec       q    Type
REMARK                         _______ _______ _______ _____ _____    ______ ____
ROOT
ATOM      1  C   UNL     1       4.004  -8.471   0.562  0.00  0.00    +0.150 C 
ATOM      2  C   UNL     1       4.180  -9.976   0.394  0.00  0.00    +0.252 C 
ATOM      3  O   UNL     1       3.812 -10.771   1.236  0.00  0.00    -0.272 OA
ATOM      4  N   UNL     1       4.753 -10.350  -0.717  0.00  0.00    -0.155 NA
ATOM      5  C   UNL     1       5.170  -9.520  -1.663  0.00  0.00    +0.191 C 
ATOM      6  S   UNL     1       4.754  -7.902  -1.022  0.00  0.00    -0.076 S 
ENDROOT
BRANCH   1   7
ATOM      7  C   UNL     1       2.525  -8.088   0.650  0.00  0.00    +0.120 C 
BRANCH   7   9
ATOM      8  N   UNL     1       1.185  -6.029   0.935  0.00  0.00    -0.285 N 
ATOM      9  C   UNL     1       2.403  -6.597   0.832  0.00  0.00    +0.219 C 
ATOM     10  O   UNL     1       3.400  -5.909   0.887  0.00  0.00    -0.275 OA
ATOM     11  H   UNL     1       0.391  -6.585   0.968  0.00  0.00    +0.155 HD
BRANCH   8  15
ATOM     12  C   UNL     1       0.829  -1.881   1.108  0.00  0.00    +0.014 A 
ATOM     13  C   UNL     1       1.840  -2.457   0.360  0.00  0.00    +0.023 A 
ATOM     14  C   UNL     1       1.961  -3.831   0.301  0.00  0.00    +0.025 A 
ATOM     15  C   UNL     1       1.066  -4.636   0.993  0.00  0.00    +0.033 A 
ATOM     16  C   UNL     1       0.052  -4.055   1.744  0.00  0.00    +0.025 A 
ATOM     17  C   UNL     1      -0.060  -2.680   1.803  0.00  0.00    +0.023 A 
BRANCH  12  18
ATOM     18  N   UNL     1       0.710  -0.490   1.166  0.00  0.00    -0.394 NA
ATOM     19  H   UNL     1      -0.072  -0.243   1.754  0.00  0.00    +0.126 HD
BRANCH  18  21
ATOM     20  C   UNL     1       1.766   1.594   1.902  0.00  0.00    +0.022 C 
ATOM     21  C   UNL     1       1.942   0.085   1.722  0.00  0.00    +0.081 C 
ENDBRANCH  18  21
BRANCH  18  22
ATOM     22  C   UNL     1       0.490   0.040  -0.187  0.00  0.00    +0.081 C 
ATOM     23  C   UNL     1      -0.854  -0.460  -0.718  0.00  0.00    +0.022 C 
ENDBRANCH  18  22
ENDBRANCH  12  18
ENDBRANCH   8  15
ENDBRANCH   7   9
ENDBRANCH   1   7
BRANCH   5  24
ATOM     24  N   UNL     1       5.776  -9.827  -2.848  0.00  0.00    -0.094 NA
BRANCH  24  25
ATOM     25  N   UNL     1       6.024 -11.164  -3.182  0.00  0.00    -0.167 NA
ATOM     26  C   UNL     1       6.592 -11.452  -4.292  0.00  0.00    +0.042 C 
ATOM     27  C   UNL     1       6.853 -12.892  -4.654  0.00  0.00    +0.053 C 
ATOM     28  C   UNL     1       5.557 -13.694  -4.519  0.00  0.00    +0.006 C 
ATOM     29  C   UNL     1       5.197 -14.313  -5.871  0.00  0.00    +0.000 C 
ATOM     30  C   UNL     1       3.743 -13.979  -6.213  0.00  0.00    +0.000 C 
ATOM     31  C   UNL     1       3.678 -13.358  -7.610  0.00  0.00    +0.000 C 
ATOM     32  C   UNL     1       2.947 -12.015  -7.537  0.00  0.00    +0.000 C 
ATOM     33  C   UNL     1       3.807 -10.931  -8.190  0.00  0.00    +0.000 C 
ATOM     34  C   UNL     1       3.984  -9.765  -7.216  0.00  0.00    +0.000 C 
ATOM     35  C   UNL     1       5.475  -9.486  -7.019  0.00  0.00    +0.001 C 
ATOM     36  C   UNL     1       5.795  -9.452  -5.523  0.00  0.00    +0.009 C 
ATOM     37  C   UNL     1       6.994 -10.352  -5.240  0.00  0.00    +0.032 C 
ATOM     38  C   UNL     1       8.109  -9.516  -4.609  0.00  0.00    +0.014 C 
ENDBRANCH  24  25
ENDBRANCH   5  24
TORSDOF 8
