REMARK  Name = ZINC01833705
REMARK  16 active torsions:
REMARK  status: ('A' for Active; 'I' for Inactive)
REMARK    1  A    between atoms: C_1  and  C_2
REMARK    2  A    between atoms: C_2  and  C_3
REMARK    3  A    between atoms: C_3  and  C_4
REMARK    4  A    between atoms: C_3  and  C_5
REMARK    5  A    between atoms: C_3  and  C_6
REMARK    6  A    between atoms: C_13  and  N_17
REMARK    7  A    between atoms: C_14  and  C_15
REMARK    8  A    between atoms: N_17  and  C_18
REMARK    9  A    between atoms: C_18  and  N_20
REMARK   10  A    between atoms: C_21  and  C_23
REMARK   11  A    between atoms: C_25  and  O_33
REMARK   12  A    between atoms: C_26  and  O_31
REMARK   13  A    between atoms: C_27  and  O_29
REMARK   14  A    between atoms: O_29  and  C_30
REMARK   15  A    between atoms: O_31  and  C_32
REMARK   16  A    between atoms: O_33  and  C_34
REMARK                            x       y       z     vdW  Elec       q    Type
REMARK                         _______ _______ _______ _____ _____    ______ ____
ROOT
ATOM      1  N   UNL     1      -3.790  -2.467  -3.541  0.00  0.00    -0.290 N 
ATOM      2  H   UNL     1      -2.866  -2.195  -3.659  0.00  0.00    +0.154 HD
ENDROOT
BRANCH   1   9
ATOM      3  C   UNL     1      -6.468  -6.468  -7.747  0.00  0.00    -0.000 C 
ATOM      4  C   UNL     1      -5.534  -5.618  -8.613  0.00  0.00    +0.009 C 
ATOM      5  C   UNL     1      -4.290  -5.231  -7.812  0.00  0.00    +0.037 C 
ATOM      6  C   UNL     1      -4.730  -4.601  -6.496  0.00  0.00    -0.018 A 
ATOM      7  C   UNL     1      -5.982  -4.782  -6.023  0.00  0.00    -0.004 A 
ATOM      8  S   UNL     1      -6.025  -3.879  -4.501  0.00  0.00    -0.077 S 
ATOM      9  C   UNL     1      -4.403  -3.270  -4.491  0.00  0.00    +0.089 A 
ATOM     10  C   UNL     1      -3.869  -3.774  -5.668  0.00  0.00    +0.084 A 
ATOM     11  C   UNL     1      -7.082  -5.576  -6.658  0.00  0.00    +0.047 C 
BRANCH   3  12
ATOM     12  C   UNL     1      -7.580  -7.056  -8.616  0.00  0.00    -0.032 C 
ATOM     13  C   UNL     1      -8.367  -5.921  -9.274  0.00  0.00    +0.011 C 
ATOM     14  C   UNL     1      -6.966  -7.945  -9.700  0.00  0.00    +0.011 C 
BRANCH  12  16
ATOM     15  C   UNL     1      -9.634  -8.479  -8.615  0.00  0.00    +0.004 C 
ATOM     16  C   UNL     1      -8.521  -7.891  -7.745  0.00  0.00    +0.003 C 
ENDBRANCH  12  16
ENDBRANCH   3  12
BRANCH  10  17
ATOM     17  C   UNL     1      -2.518  -3.493  -6.050  0.00  0.00    +0.102 C 
ATOM     18  N   UNL     1      -1.446  -3.270  -6.354  0.00  0.00    -0.191 NA
ENDBRANCH  10  17
ENDBRANCH   1   9
BRANCH   1  19
ATOM     19  C   UNL     1      -4.477  -2.066  -2.453  0.00  0.00    +0.141 C 
ATOM     20  S   UNL     1      -6.106  -2.547  -2.244  0.00  0.00    -0.018 S 
BRANCH  19  21
ATOM     21  N   UNL     1      -3.880  -1.286  -1.529  0.00  0.00    -0.264 N 
ATOM     22  C   UNL     1      -4.567  -0.885  -0.441  0.00  0.00    +0.250 C 
ATOM     23  O   UNL     1      -5.724  -1.227  -0.293  0.00  0.00    -0.270 OA
ATOM     24  H   UNL     1      -2.957  -1.014  -1.648  0.00  0.00    +0.157 HD
BRANCH  22  25
ATOM     25  C   UNL     1      -3.915  -0.032   0.570  0.00  0.00    +0.044 A 
ATOM     26  C   UNL     1      -4.625   0.385   1.698  0.00  0.00    +0.062 A 
ATOM     27  C   UNL     1      -4.012   1.185   2.644  0.00  0.00    +0.166 A 
ATOM     28  C   UNL     1      -2.687   1.577   2.472  0.00  0.00    +0.204 A 
ATOM     29  C   UNL     1      -1.976   1.163   1.348  0.00  0.00    +0.166 A 
ATOM     30  C   UNL     1      -2.586   0.367   0.397  0.00  0.00    +0.062 A 
BRANCH  29  31
ATOM     31  O   UNL     1      -0.682   1.547   1.184  0.00  0.00    -0.491 OA
ATOM     32  C   UNL     1      -0.013   1.086   0.008  0.00  0.00    +0.277 C 
ENDBRANCH  29  31
BRANCH  28  33
ATOM     33  O   UNL     1      -2.086   2.363   3.403  0.00  0.00    -0.488 OA
ATOM     34  C   UNL     1      -2.186   3.777   3.220  0.00  0.00    +0.277 C 
ENDBRANCH  28  33
BRANCH  27  35
ATOM     35  O   UNL     1      -4.703   1.591   3.742  0.00  0.00    -0.491 OA
ATOM     36  C   UNL     1      -6.059   1.153   3.854  0.00  0.00    +0.277 C 
ENDBRANCH  27  35
ENDBRANCH  22  25
ENDBRANCH  19  21
ENDBRANCH   1  19
TORSDOF 10
