REMARK  Name = ZINC12378150
REMARK  6 active torsions:
REMARK  status: ('A' for Active; 'I' for Inactive)
REMARK    1  A    between atoms: C_1  and  C_2
REMARK    2  A    between atoms: C_10  and  N_15
REMARK    3  A    between atoms: C_11  and  C_12
REMARK    4  A    between atoms: C_16  and  C_18
REMARK    5  A    between atoms: C_18  and  O_19
REMARK    6  A    between atoms: O_19  and  C_20
REMARK                            x       y       z     vdW  Elec       q    Type
REMARK                         _______ _______ _______ _____ _____    ______ ____
ROOT
ATOM      1  C   UNL     1      11.528  -3.718   1.636  0.00  0.00    +0.109 C 
ATOM      2  C   UNL     1      10.816  -4.840   0.926  0.00  0.00    +0.213 C 
ATOM      3  O   UNL     1      11.176  -5.987   1.089  0.00  0.00    -0.276 OA
ATOM      4  N   UNL     1       9.778  -4.570   0.109  0.00  0.00    -0.297 N 
ATOM      5  C   UNL     1       9.063  -5.644  -0.597  0.00  0.00    +0.113 C 
ATOM      6  C   UNL     1       7.617  -5.709  -0.100  0.00  0.00    +0.056 C 
ATOM      7  C   UNL     1       7.026  -4.305  -0.090  0.00  0.00    -0.020 A 
ATOM      8  C   UNL     1       7.818  -3.210  -0.092  0.00  0.00    +0.013 A 
ATOM      9  S   UNL     1       6.699  -1.839  -0.074  0.00  0.00    -0.076 S 
ATOM     10  C   UNL     1       5.198  -2.704  -0.065  0.00  0.00    +0.085 A 
ATOM     11  C   UNL     1       5.598  -4.033  -0.070  0.00  0.00    +0.068 A 
ATOM     12  C   UNL     1       9.316  -3.185  -0.110  0.00  0.00    +0.150 C 
ENDROOT
BRANCH  11  13
ATOM     13  C   UNL     1       4.617  -5.122  -0.061  0.00  0.00    +0.244 C 
ATOM     14  O   UNL     1       4.199  -5.574  -1.111  0.00  0.00    -0.270 OA
ATOM     15  N   UNL     1       4.179  -5.624   1.110  0.00  0.00    -0.325 N 
ATOM     16  H   UNL     1       4.512  -5.264   1.947  0.00  0.00    +0.145 HD
ATOM     17  H   UNL     1       3.530  -6.345   1.117  0.00  0.00    +0.145 HD
ENDBRANCH  11  13
BRANCH  10  18
ATOM     18  N   UNL     1       3.909  -2.193  -0.049  0.00  0.00    -0.277 N 
ATOM     19  C   UNL     1       3.713  -0.860  -0.040  0.00  0.00    +0.255 C 
ATOM     20  O   UNL     1       4.664  -0.107  -0.044  0.00  0.00    -0.272 OA
ATOM     21  H   UNL     1       3.148  -2.795  -0.045  0.00  0.00    +0.155 HD
BRANCH  19  22
ATOM     22  C   UNL     1       2.312  -0.304  -0.023  0.00  0.00    +0.325 C 
BRANCH  22  23
ATOM     23  O   UNL     1       2.366   1.123  -0.015  0.00  0.00    -0.481 OA
BRANCH  23  24
ATOM     24  C   UNL     1       1.179   1.786   0.000  0.00  0.00    +0.140 A 
ATOM     25  C   UNL     1      -0.013   1.076   0.008  0.00  0.00    +0.048 A 
ATOM     26  C   UNL     1      -1.218   1.751   0.017  0.00  0.00    +0.023 A 
ATOM     27  C   UNL     1      -1.238   3.134   0.031  0.00  0.00    +0.043 A 
ATOM     28  C   UNL     1      -0.051   3.845   0.023  0.00  0.00    +0.043 A 
ATOM     29  C   UNL     1       1.157   3.174   0.008  0.00  0.00    +0.084 A 
ATOM     30 CL   UNL     1       2.647   4.066  -0.001  0.00  0.00    -0.080 Cl
ATOM     31 CL   UNL     1      -2.754   3.979   0.050  0.00  0.00    -0.083 Cl
ENDBRANCH  23  24
ENDBRANCH  22  23
ENDBRANCH  19  22
ENDBRANCH  10  18
TORSDOF 5
