REMARK  Name = ZINC04506560
REMARK  7 active torsions:
REMARK  status: ('A' for Active; 'I' for Inactive)
REMARK    1  A    between atoms: C_1  and  C_2
REMARK    2  A    between atoms: C_3  and  N_15
REMARK    3  A    between atoms: N_6  and  C_9
REMARK    4  A    between atoms: N_7  and  C_8
REMARK    5  A    between atoms: C_16  and  C_24
REMARK    6  A    between atoms: C_18  and  C_22
REMARK    7  A    between atoms: C_18  and  C_23
REMARK                            x       y       z     vdW  Elec       q    Type
REMARK                         _______ _______ _______ _____ _____    ______ ____
ROOT
ATOM      1  C   UNL     1      -1.371   2.605  -1.146  0.00  0.00    +0.067 C 
ATOM      2  C   UNL     1      -0.326   1.615  -0.702  0.00  0.00    +0.060 A 
ATOM      3  C   UNL     1       0.913   1.920  -0.255  0.00  0.00    +0.127 A 
ATOM      4  C   UNL     1       1.579   0.706   0.053  0.00  0.00    +0.294 A 
ATOM      5  O   UNL     1       2.714   0.598   0.482  0.00  0.00    -0.264 OA
ATOM      6  N   UNL     1       0.729  -0.306  -0.214  0.00  0.00    -0.216 N 
ATOM      7  N   UNL     1      -0.466   0.252  -0.687  0.00  0.00    -0.282 N 
ATOM      8  C   UNL     1      -1.659  -0.494  -1.096  0.00  0.00    +0.171 C 
ENDROOT
BRANCH   3   9
ATOM      9  N   UNL     1       1.449   3.217  -0.118  0.00  0.00    -0.249 N 
ATOM     10  C   UNL     1       2.388   3.640  -1.045  0.00  0.00    +0.013 C 
ATOM     11  C   UNL     1       2.924   4.846  -0.975  0.00  0.00    +0.017 C 
ATOM     12  C   UNL     1       2.492   5.755   0.156  0.00  0.00    +0.048 C 
ATOM     13  N   UNL     1       1.493   5.225   1.100  0.00  0.00    -0.317 N 
ATOM     14  C   UNL     1       1.028   3.975   0.903  0.00  0.00    +0.142 C 
ATOM     15  S   UNL     1      -0.134   3.339   1.988  0.00  0.00    -0.018 S 
ATOM     16  C   UNL     1       1.924   7.035  -0.459  0.00  0.00    +0.036 C 
ATOM     17  C   UNL     1       3.739   6.136   0.956  0.00  0.00    +0.036 C 
ATOM     18  C   UNL     1       2.801   2.710  -2.156  0.00  0.00    +0.061 C 
ATOM     19  H   UNL     1       1.179   5.761   1.844  0.00  0.00    +0.149 HD
ENDBRANCH   3   9
BRANCH   6  20
ATOM     20  C   UNL     1       0.994  -1.669  -0.049  0.00  0.00    +0.067 A 
ATOM     21  C   UNL     1       1.561  -2.130   1.133  0.00  0.00    +0.028 A 
ATOM     22  C   UNL     1       1.814  -3.478   1.296  0.00  0.00    +0.002 A 
ATOM     23  C   UNL     1       1.516  -4.367   0.279  0.00  0.00    +0.000 A 
ATOM     24  C   UNL     1       0.957  -3.911  -0.900  0.00  0.00    +0.002 A 
ATOM     25  C   UNL     1       0.694  -2.565  -1.067  0.00  0.00    +0.028 A 
ENDBRANCH   6  20
TORSDOF 2
