REMARK  Name = ZINC01290298
REMARK  7 active torsions:
REMARK  status: ('A' for Active; 'I' for Inactive)
REMARK    1  A    between atoms: C_1  and  C_2
REMARK    2  A    between atoms: C_5  and  N_8
REMARK    3  A    between atoms: C_9  and  C_11
REMARK    4  A    between atoms: C_11  and  C_13
REMARK    5  A    between atoms: C_11  and  S_14
REMARK    6  A    between atoms: S_14  and  C_15
REMARK    7  A    between atoms: C_21  and  C_26
REMARK                            x       y       z     vdW  Elec       q    Type
REMARK                         _______ _______ _______ _____ _____    ______ ____
ROOT
ATOM      1  C   UNL     1       1.097   2.010  -0.009  0.00  0.00    +0.171 A 
ATOM      2  N   UNL     1       2.306   1.377  -0.024  0.00  0.00    -0.301 N 
ATOM      3  H   UNL     1       3.120   1.905  -0.023  0.00  0.00    +0.171 HD
ATOM      4  C   UNL     1       2.389   0.035  -0.040  0.00  0.00    +0.261 A 
ATOM      5  O   UNL     1       3.477  -0.516  -0.052  0.00  0.00    -0.267 OA
ATOM      6  C   UNL     1       1.188  -0.738  -0.041  0.00  0.00    +0.080 A 
ATOM      7  C   UNL     1       1.025  -2.189  -0.056  0.00  0.00    +0.004 A 
ATOM      8  C   UNL     1      -0.227  -2.704  -0.054  0.00  0.00    +0.056 A 
ATOM      9  S   UNL     1      -1.269  -1.258  -0.032  0.00  0.00    -0.076 S 
ATOM     10  C   UNL     1      -0.012  -0.006  -0.026  0.00  0.00    +0.117 A 
ATOM     11  N   UNL     1      -0.026   1.322  -0.011  0.00  0.00    -0.216 NA
ENDROOT
BRANCH   7  12
ATOM     12  C   UNL     1       2.208  -3.081  -0.073  0.00  0.00    -0.017 A 
ATOM     13  C   UNL     1       3.225  -2.878  -1.005  0.00  0.00    +0.008 A 
ATOM     14  C   UNL     1       4.327  -3.709  -1.013  0.00  0.00    +0.001 A 
ATOM     15  C   UNL     1       4.418  -4.749  -0.105  0.00  0.00    +0.000 A 
ATOM     16  C   UNL     1       3.410  -4.959   0.818  0.00  0.00    +0.001 A 
ATOM     17  C   UNL     1       2.306  -4.131   0.839  0.00  0.00    +0.008 A 
ENDBRANCH   7  12
BRANCH   1  18
ATOM     18  S   UNL     1       1.037   3.771   0.010  0.00  0.00    -0.075 S 
BRANCH  18  19
ATOM     19  C   UNL     1      -0.755   4.025   0.024  0.00  0.00    +0.137 C 
ATOM     20  C   UNL     1      -1.353   3.507  -1.286  0.00  0.00    +0.029 C 
BRANCH  19  22
ATOM     21  N   UNL     1      -2.226   5.897   0.693  0.00  0.00    -0.285 N 
ATOM     22  C   UNL     1      -1.053   5.496   0.166  0.00  0.00    +0.230 C 
ATOM     23  O   UNL     1      -0.237   6.317  -0.195  0.00  0.00    -0.274 OA
ATOM     24  H   UNL     1      -2.906   5.243   0.919  0.00  0.00    +0.155 HD
BRANCH  21  29
ATOM     25  C   UNL     1      -3.191  11.416   1.590  0.00  0.00    +0.044 C 
ATOM     26  C   UNL     1      -2.934   9.950   1.352  0.00  0.00    -0.050 A 
ATOM     27  C   UNL     1      -2.193   9.548   0.256  0.00  0.00    +0.005 A 
ATOM     28  C   UNL     1      -1.956   8.206   0.035  0.00  0.00    +0.023 A 
ATOM     29  C   UNL     1      -2.464   7.258   0.914  0.00  0.00    +0.033 A 
ATOM     30  C   UNL     1      -3.213   7.665   2.011  0.00  0.00    +0.023 A 
ATOM     31  C   UNL     1      -3.441   9.009   2.230  0.00  0.00    +0.005 A 
ENDBRANCH  21  29
ENDBRANCH  19  22
ENDBRANCH  18  19
ENDBRANCH   1  18
TORSDOF 5
