REMARK  Name = ZINC06623917
REMARK  10 active torsions:
REMARK  status: ('A' for Active; 'I' for Inactive)
REMARK    1  A    between atoms: C_1  and  C_2
REMARK    2  A    between atoms: C_6  and  C_25
REMARK    3  A    between atoms: C_7  and  C_11
REMARK    4  A    between atoms: C_11  and  C_12
REMARK    5  A    between atoms: N_14  and  C_15
REMARK    6  A    between atoms: C_15  and  C_16
REMARK    7  A    between atoms: C_16  and  C_18
REMARK    8  A    between atoms: C_16  and  O_24
REMARK    9  A    between atoms: C_28  and  C_32
REMARK   10  A    between atoms: C_29  and  C_31
REMARK                            x       y       z     vdW  Elec       q    Type
REMARK                         _______ _______ _______ _____ _____    ______ ____
ROOT
ATOM      1  C   UNL     1       2.736   9.935 -10.121  0.00  0.00    +0.044 C 
ATOM      2  C   UNL     1       2.718   9.518  -8.673  0.00  0.00    -0.036 A 
ATOM      3  C   UNL     1       1.525   9.305  -8.045  0.00  0.00    +0.051 A 
ATOM      4  C   UNL     1       1.489   8.919  -6.707  0.00  0.00    +0.143 A 
ATOM      5  C   UNL     1       2.688   8.748  -5.995  0.00  0.00    +0.064 A 
ATOM      6  C   UNL     1       2.631   8.348  -4.589  0.00  0.00    -0.026 A 
ATOM      7  C   UNL     1       1.410   8.148  -4.027  0.00  0.00    +0.049 A 
ATOM      8  C   UNL     1       0.246   8.338  -4.800  0.00  0.00    +0.341 A 
ATOM      9  O   UNL     1      -0.844   8.161  -4.285  0.00  0.00    -0.245 OA
ATOM     10  O   UNL     1       0.307   8.709  -6.087  0.00  0.00    -0.422 OA
ATOM     11  C   UNL     1       3.892   8.159  -3.787  0.00  0.00    +0.045 C 
ATOM     12  C   UNL     1       3.920   8.966  -6.637  0.00  0.00    +0.147 A 
ATOM     13  C   UNL     1       3.922   9.353  -7.984  0.00  0.00    +0.027 A 
ATOM     14  C   UNL     1       5.338   9.496  -8.346  0.00  0.00    -0.002 A 
ATOM     15  C   UNL     1       6.038   9.199  -7.243  0.00  0.00    +0.106 A 
ATOM     16  O   UNL     1       5.202   8.886  -6.238  0.00  0.00    -0.459 OA
ATOM     17  C   UNL     1       7.542   9.213  -7.144  0.00  0.00    +0.086 C 
ATOM     18  C   UNL     1       5.892   9.897  -9.689  0.00  0.00    +0.048 C 
ENDROOT
BRANCH   7  19
ATOM     19  C   UNL     1       1.300   7.730  -2.583  0.00  0.00    +0.138 C 
BRANCH  19  20
ATOM     20  C   UNL     1       1.301   6.226  -2.494  0.00  0.00    +0.218 C 
ATOM     21  O   UNL     1       1.382   5.559  -3.504  0.00  0.00    -0.275 OA
ATOM     22  N   UNL     1       1.211   5.622  -1.293  0.00  0.00    -0.312 N 
ATOM     23  H   UNL     1       1.146   6.156  -0.485  0.00  0.00    +0.149 HD
BRANCH  22  24
ATOM     24  C   UNL     1       1.212   4.160  -1.206  0.00  0.00    +0.140 C 
BRANCH  24  25
ATOM     25  C   UNL     1       1.100   3.736   0.260  0.00  0.00    +0.162 C 
BRANCH  25  26
ATOM     26  C   UNL     1       1.101   2.232   0.349  0.00  0.00    -0.018 A 
ATOM     27  C   UNL     1      -0.096   1.542   0.402  0.00  0.00    +0.006 A 
ATOM     28  C   UNL     1      -0.095   0.162   0.484  0.00  0.00    +0.000 A 
ATOM     29  C   UNL     1       1.102  -0.528   0.512  0.00  0.00    +0.000 A 
ATOM     30  C   UNL     1       2.299   0.161   0.459  0.00  0.00    +0.000 A 
ATOM     31  C   UNL     1       2.298   1.541   0.378  0.00  0.00    +0.006 A 
ENDBRANCH  25  26
BRANCH  25  32
ATOM     32  O   UNL     1       2.211   4.257   0.992  0.00  0.00    -0.386 OA
ATOM     33  H   UNL     1       3.071   3.953   0.672  0.00  0.00    +0.210 HD
ENDBRANCH  25  32
ENDBRANCH  24  25
ENDBRANCH  22  24
ENDBRANCH  19  20
ENDBRANCH   7  19
TORSDOF 6
