REMARK  Name = ZINC64155779
REMARK  8 active torsions:
REMARK  status: ('A' for Active; 'I' for Inactive)
REMARK    1  A    between atoms: C_1  and  C_2
REMARK    2  A    between atoms: C_4  and  C_32
REMARK    3  A    between atoms: C_8  and  C_12
REMARK    4  A    between atoms: C_12  and  C_14
REMARK    5  A    between atoms: C_12  and  N_15
REMARK    6  A    between atoms: C_18  and  C_21
REMARK    7  A    between atoms: N_23  and  C_24
REMARK    8  A    between atoms: C_29  and  O_30
REMARK                            x       y       z     vdW  Elec       q    Type
REMARK                         _______ _______ _______ _____ _____    ______ ____
ROOT
ATOM      1  N   UNL     1       6.049  -4.002  -0.938  0.00  0.00    -0.293 NA
ATOM      2  C   UNL     1       6.578  -2.959  -1.826  0.00  0.00    +0.086 C 
ATOM      3  C   UNL     1       7.215  -3.609  -3.057  0.00  0.00    +0.028 C 
ATOM      4  C   UNL     1       8.341  -4.544  -2.608  0.00  0.00    +0.078 C 
ATOM      5  C   UNL     1       7.773  -5.591  -1.647  0.00  0.00    +0.028 C 
ATOM      6  C   UNL     1       7.120  -4.884  -0.457  0.00  0.00    +0.086 C 
ENDROOT
BRANCH   4   7
ATOM      7  C   UNL     1       8.932  -5.233  -3.811  0.00  0.00    +0.220 C 
ATOM      8  O   UNL     1       8.496  -5.000  -4.919  0.00  0.00    -0.275 OA
ATOM      9  N   UNL     1       9.945  -6.108  -3.656  0.00  0.00    -0.282 N 
ATOM     10  H   UNL     1      10.246  -6.349  -2.766  0.00  0.00    +0.155 HD
BRANCH   9  11
ATOM     11  C   UNL     1      10.564  -6.670  -4.781  0.00  0.00    +0.075 A 
ATOM     12  C   UNL     1      10.475  -6.037  -6.013  0.00  0.00    +0.027 A 
ATOM     13  C   UNL     1      11.086  -6.593  -7.120  0.00  0.00    +0.002 A 
ATOM     14  C   UNL     1      11.787  -7.780  -7.005  0.00  0.00    +0.004 A 
ATOM     15  C   UNL     1      11.880  -8.416  -5.782  0.00  0.00    +0.047 A 
ATOM     16  C   UNL     1      11.275  -7.863  -4.665  0.00  0.00    +0.138 A 
BRANCH  16  17
ATOM     17  O   UNL     1      11.370  -8.484  -3.459  0.00  0.00    -0.505 OA
ATOM     18  H   UNL     1      10.662  -9.120  -3.288  0.00  0.00    +0.292 HD
ENDBRANCH  16  17
ENDBRANCH   9  11
ENDBRANCH   4   7
BRANCH   1  19
ATOM     19  C   UNL     1       5.309  -3.411   0.185  0.00  0.00    +0.119 C 
ATOM     20  C   UNL     1       6.297  -2.812   1.188  0.00  0.00    +0.032 C 
BRANCH  19  27
ATOM     21  C   UNL     1       0.047  -6.837   3.959  0.00  0.00    +0.024 C 
ATOM     22  C   UNL     1       1.571  -6.767   4.069  0.00  0.00    +0.076 C 
ATOM     23  C   UNL     1       2.229  -7.281   2.808  0.00  0.00    -0.045 C 
ATOM     24  C   UNL     1       2.989  -6.427   2.107  0.00  0.00    +0.071 C 
ATOM     25  C   UNL     1       3.125  -5.048   2.623  0.00  0.00    +0.112 C 
ATOM     26  N   UNL     1       3.855  -4.166   1.982  0.00  0.00    -0.226 NA
ATOM     27  C   UNL     1       4.490  -4.479   0.864  0.00  0.00    +0.140 C 
ATOM     28  N   UNL     1       4.442  -5.668   0.314  0.00  0.00    -0.160 NA
ATOM     29  C   UNL     1       3.743  -6.680   0.838  0.00  0.00    +0.271 C 
ATOM     30  O   UNL     1       3.720  -7.775   0.301  0.00  0.00    -0.268 OA
ATOM     31  S   UNL     1       2.150  -5.022   4.107  0.00  0.00    -0.098 S 
ATOM     32  C   UNL     1       2.037  -8.706   2.354  0.00  0.00    +0.041 C 
ENDBRANCH  19  27
ENDBRANCH   1  19
TORSDOF 5
