REMARK  Name = ZINC11744505
REMARK  10 active torsions:
REMARK  status: ('A' for Active; 'I' for Inactive)
REMARK    1  A    between atoms: C_1  and  C_2
REMARK    2  A    between atoms: C_2  and  O_3
REMARK    3  A    between atoms: O_3  and  C_4
REMARK    4  A    between atoms: C_9  and  C_10
REMARK    5  A    between atoms: C_12  and  C_15
REMARK    6  A    between atoms: C_15  and  C_16
REMARK    7  A    between atoms: C_21  and  C_24
REMARK    8  A    between atoms: C_27  and  C_29
REMARK    9  A    between atoms: C_29  and  N_30
REMARK   10  A    between atoms: C_31  and  C_33
REMARK                            x       y       z     vdW  Elec       q    Type
REMARK                         _______ _______ _______ _____ _____    ______ ____
ROOT
ATOM      1  C   UNL     1       3.934   2.361  -1.186  0.00  0.00    +0.224 C 
ATOM      2  O   UNL     1       3.039   2.700  -1.931  0.00  0.00    -0.275 OA
ATOM      3  N   UNL     1       5.190   2.802  -1.397  0.00  0.00    -0.264 N 
ATOM      4  C   UNL     1       5.460   3.644  -2.468  0.00  0.00    +0.165 A 
ATOM      5  N   UNL     1       6.607   4.179  -2.841  0.00  0.00    -0.224 NA
ATOM      6  C   UNL     1       6.684   4.972  -3.906  0.00  0.00    +0.087 A 
ATOM      7  C   UNL     1       5.550   5.237  -4.626  0.00  0.00    +0.077 A 
ATOM      8  S   UNL     1       4.345   4.285  -3.710  0.00  0.00    -0.060 S 
ATOM      9  H   UNL     1       5.905   2.531  -0.801  0.00  0.00    +0.157 HD
ENDROOT
BRANCH   6  10
ATOM     10  C   UNL     1       7.979   5.561  -4.309  0.00  0.00    +0.038 A 
ATOM     11  C   UNL     1       9.209   5.423  -3.723  0.00  0.00    +0.018 A 
ATOM     12  C   UNL     1      10.287   6.073  -4.285  0.00  0.00    +0.013 A 
ATOM     13  C   UNL     1      10.097   6.835  -5.391  0.00  0.00    +0.007 A 
ATOM     14  S   UNL     1       8.346   6.644  -5.680  0.00  0.00    -0.090 S 
BRANCH  13  15
ATOM     15  C   UNL     1      11.104   7.637  -6.175  0.00  0.00    +0.146 C 
BRANCH  15  16
ATOM     16  N   UNL     1      11.683   6.799  -7.228  0.00  0.00    -0.311 N 
ATOM     17  C   UNL     1      12.614   7.308  -8.059  0.00  0.00    +0.210 C 
ATOM     18  O   UNL     1      12.972   8.460  -7.935  0.00  0.00    -0.276 OA
ATOM     19  C   UNL     1      13.209   6.446  -9.143  0.00  0.00    +0.109 C 
ATOM     20  H   UNL     1      11.396   5.877  -7.327  0.00  0.00    +0.149 HD
ENDBRANCH  15  16
ENDBRANCH  13  15
ENDBRANCH   6  10
BRANCH   1  21
ATOM     21  C   UNL     1       3.641   1.447  -0.024  0.00  0.00    +0.152 C 
BRANCH  21  24
ATOM     22  C   UNL     1      -0.022   1.784   0.012  0.00  0.00    +0.112 A 
ATOM     23  N   UNL     1       1.275   2.059   0.001  0.00  0.00    -0.243 NA
ATOM     24  C   UNL     1       2.174   1.103  -0.013  0.00  0.00    +0.058 A 
ATOM     25  C   UNL     1       1.780  -0.198  -0.016  0.00  0.00    +0.071 A 
ATOM     26  S   UNL     1       0.002  -0.004   0.002  0.00  0.00    -0.075 S 
BRANCH  22  32
ATOM     27  C   UNL     1      -2.482   2.200   0.021  0.00  0.00    +0.130 A 
ATOM     28  C   UNL     1      -3.558   3.072   0.036  0.00  0.00    +0.046 A 
ATOM     29  C   UNL     1      -3.342   4.437   0.042  0.00  0.00    +0.004 A 
ATOM     30  C   UNL     1      -2.053   4.942   0.038  0.00  0.00    +0.001 A 
ATOM     31  C   UNL     1      -0.972   4.086   0.029  0.00  0.00    +0.014 A 
ATOM     32  C   UNL     1      -1.177   2.706   0.023  0.00  0.00    +0.049 A 
BRANCH  27  33
ATOM     33  O   UNL     1      -2.693   0.858   0.010  0.00  0.00    -0.492 OA
BRANCH  33  35
ATOM     34  C   UNL     1      -4.088  -1.115  -0.005  0.00  0.00    +0.048 C 
ATOM     35  C   UNL     1      -4.051   0.414   0.009  0.00  0.00    +0.226 C 
ENDBRANCH  33  35
ENDBRANCH  27  33
ENDBRANCH  22  32
ENDBRANCH  21  24
ENDBRANCH   1  21
TORSDOF 8
