REMARK  Name = ZINC15008629
REMARK  7 active torsions:
REMARK  status: ('A' for Active; 'I' for Inactive)
REMARK    1  A    between atoms: C_5  and  C_7
REMARK    2  A    between atoms: C_7  and  O_8
REMARK    3  A    between atoms: O_8  and  C_9
REMARK    4  A    between atoms: C_10  and  C_22
REMARK    5  A    between atoms: C_22  and  N_58
REMARK    6  A    between atoms: C_23  and  C_24
REMARK    7  A    between atoms: C_23  and  N_58
REMARK                            x       y       z     vdW  Elec       q    Type
REMARK                         _______ _______ _______ _____ _____    ______ ____
ROOT
ATOM      1  C   UNL     1      -3.551   1.733   0.044  0.00  0.00    +0.217 A 
ATOM      2  C   UNL     1      -3.614   3.132   0.049  0.00  0.00    -0.002 A 
ATOM      3  C   UNL     1      -2.465   3.864   0.042  0.00  0.00    +0.017 A 
ATOM      4  C   UNL     1      -1.235   3.176   0.029  0.00  0.00    +0.001 A 
ATOM      5  C   UNL     1      -0.013   3.863   0.023  0.00  0.00    +0.014 A 
ATOM      6  C   UNL     1       1.161   3.167   0.008  0.00  0.00    -0.043 A 
ATOM      7  C   UNL     1       1.161   1.773   0.001  0.00  0.00    -0.042 A 
ATOM      8  C   UNL     1      -0.013   1.076   0.008  0.00  0.00    +0.032 A 
ATOM      9  C   UNL     1      -1.238   1.760   0.018  0.00  0.00    +0.075 A 
ATOM     10  N   UNL     1      -2.400   1.096   0.031  0.00  0.00    -0.213 NA
ATOM     11  C   UNL     1       2.589   1.266  -0.017  0.00  0.00    +0.036 C 
ATOM     12  C   UNL     1       3.441   2.473  -0.462  0.00  0.00    +0.009 C 
ATOM     13  C   UNL     1       2.589   3.674  -0.003  0.00  0.00    +0.036 C 
ENDROOT
BRANCH   1  14
ATOM     14  O   UNL     1      -4.703   1.019   0.052  0.00  0.00    -0.471 OA
BRANCH  14  15
ATOM     15  C   UNL     1      -4.583  -0.405   0.046  0.00  0.00    +0.267 C 
BRANCH  15  20
ATOM     16  C   UNL     1      -8.339  -0.786   0.079  0.00  0.00    +0.000 A 
ATOM     17  C   UNL     1      -8.478  -2.162   0.075  0.00  0.00    +0.001 A 
ATOM     18  C   UNL     1      -7.356  -2.970   0.062  0.00  0.00    +0.020 A 
ATOM     19  C   UNL     1      -6.095  -2.401   0.052  0.00  0.00    +0.047 A 
ATOM     20  C   UNL     1      -5.957  -1.025   0.056  0.00  0.00    +0.008 A 
ATOM     21  C   UNL     1      -7.079  -0.218   0.074  0.00  0.00    +0.008 A 
ATOM     22 CL   UNL     1      -4.686  -3.415   0.036  0.00  0.00    -0.083 Cl
ENDBRANCH  15  20
ENDBRANCH  14  15
ENDBRANCH   1  14
BRANCH   2  23
ATOM     23  C   UNL     1      -4.952   3.827   0.063  0.00  0.00    -0.041 C 
BRANCH  23  24
ATOM     24  N   UNL     1      -5.480   3.830   1.440  0.00  0.00    +0.382 N 
ATOM     25  H   UNL     1      -4.824   4.326   2.054  0.00  0.00    -0.085 HD
ATOM     26  H   UNL     1      -5.587   2.862   1.764  0.00  0.00    -0.085 HD
BRANCH  24  27
ATOM     27  C   UNL     1      -6.791   4.505   1.484  0.00  0.00    -0.077 C 
BRANCH  27  28
ATOM     28  C   UNL     1      -7.314   4.493   2.921  0.00  0.00    -0.006 C 
ATOM     29  C   UNL     1      -7.617   3.048   3.352  0.00  0.00    +0.026 C 
ATOM     30  C   UNL     1      -8.436   3.049   4.665  0.00  0.00    +0.166 C 
ATOM     31  S   UNL     1      -9.339   4.649   4.576  0.00  0.00    -0.031 S 
ATOM     32  O   UNL     1      -8.923   5.475   5.655  0.00  0.00    -0.174 OA
ATOM     33  O   UNL     1     -10.723   4.388   4.388  0.00  0.00    -0.174 OA
ATOM     34  C   UNL     1      -8.634   5.311   3.008  0.00  0.00    +0.167 C 
ENDBRANCH  27  28
ENDBRANCH  24  27
ENDBRANCH  23  24
ENDBRANCH   2  23
TORSDOF 7
