REMARK  Name = ZINC20999409
REMARK  6 active torsions:
REMARK  status: ('A' for Active; 'I' for Inactive)
REMARK    1  A    between atoms: C_1  and  C_2
REMARK    2  A    between atoms: C_2  and  C_3
REMARK    3  A    between atoms: C_6  and  C_9
REMARK    4  A    between atoms: N_17  and  C_19
REMARK    5  A    between atoms: C_19  and  C_20
REMARK    6  A    between atoms: N_23  and  C_25
REMARK                            x       y       z     vdW  Elec       q    Type
REMARK                         _______ _______ _______ _____ _____    ______ ____
ROOT
ATOM      1  C   UNL     1       2.698  -1.861  -4.737  0.00  0.00    +0.097 A 
ATOM      2  C   UNL     1       3.954  -1.438  -5.191  0.00  0.00    +0.015 A 
ATOM      3  C   UNL     1       4.231  -2.110  -6.338  0.00  0.00    +0.042 A 
ATOM      4  N   UNL     1       3.200  -2.928  -6.601  0.00  0.00    -0.281 N 
ATOM      5  H   UNL     1       3.128  -3.529  -7.359  0.00  0.00    +0.189 HD
ATOM      6  N   UNL     1       2.246  -2.764  -5.585  0.00  0.00    -0.173 NA
ATOM      7  C   UNL     1       5.504  -1.911  -7.123  0.00  0.00    +0.070 C 
ATOM      8  C   UNL     1       6.157  -0.609  -6.638  0.00  0.00    +0.091 C 
ATOM      9  N   UNL     1       6.222  -0.606  -5.170  0.00  0.00    -0.292 NA
ATOM     10  C   UNL     1       4.887  -0.428  -4.573  0.00  0.00    +0.124 C 
ENDROOT
BRANCH   1  14
ATOM     11  C   UNL     1       0.707  -0.489  -1.239  0.00  0.00    -0.048 A 
ATOM     12  C   UNL     1       1.381   0.410  -2.045  0.00  0.00    +0.004 A 
ATOM     13  C   UNL     1       2.029  -0.030  -3.182  0.00  0.00    +0.010 A 
ATOM     14  C   UNL     1       2.003  -1.382  -3.516  0.00  0.00    +0.002 A 
ATOM     15  C   UNL     1       1.323  -2.283  -2.700  0.00  0.00    +0.010 A 
ATOM     16  C   UNL     1       0.683  -1.833  -1.563  0.00  0.00    +0.004 A 
BRANCH  11  18
ATOM     17  C   UNL     1       0.967  -0.045   1.187  0.00  0.00    +0.009 C 
ATOM     18  C   UNL     1       0.002  -0.003   0.001  0.00  0.00    +0.032 C 
ENDBRANCH  11  18
ENDBRANCH   1  14
BRANCH   9  19
ATOM     19  C   UNL     1       7.156   0.419  -4.686  0.00  0.00    +0.143 C 
BRANCH  19  20
ATOM     20  C   UNL     1       8.558   0.059  -5.106  0.00  0.00    +0.095 A 
ATOM     21  C   UNL     1       9.458  -0.723  -4.373  0.00  0.00    +0.083 A 
ATOM     22  C   UNL     1      10.605  -0.815  -5.086  0.00  0.00    +0.128 A 
ATOM     23  N   UNL     1      10.436  -0.116  -6.229  0.00  0.00    -0.273 N 
ATOM     24  N   UNL     1       9.142   0.419  -6.220  0.00  0.00    -0.174 NA
ATOM     25  C   UNL     1      11.430   0.050  -7.293  0.00  0.00    +0.172 C 
ATOM     26 CL   UNL     1       9.157  -1.446  -2.824  0.00  0.00    -0.080 Cl
ENDBRANCH  19  20
ENDBRANCH   9  19
TORSDOF 4
