REMARK  Name = ZINC22427031
REMARK  13 active torsions:
REMARK  status: ('A' for Active; 'I' for Inactive)
REMARK    1  A    between atoms: C_1  and  C_2
REMARK    2  A    between atoms: C_2  and  C_4
REMARK    3  A    between atoms: C_2  and  N_15
REMARK    4  A    between atoms: C_7  and  N_10
REMARK    5  A    between atoms: C_16  and  C_18
REMARK    6  A    between atoms: C_18  and  N_19
REMARK    7  A    between atoms: N_19  and  C_20
REMARK    8  A    between atoms: N_19  and  S_32
REMARK    9  A    between atoms: C_23  and  S_26
REMARK   10  A    between atoms: S_26  and  N_29
REMARK   11  A    between atoms: N_29  and  C_30
REMARK   12  A    between atoms: N_29  and  C_31
REMARK   13  A    between atoms: S_32  and  C_35
REMARK                            x       y       z     vdW  Elec       q    Type
REMARK                         _______ _______ _______ _____ _____    ______ ____
ROOT
ATOM      1  C   UNL     1      -5.318   1.351   2.332  0.00  0.00    +0.226 C 
ENDROOT
BRANCH   1   3
ATOM      2  N   UNL     1      -3.296   0.987   0.956  0.00  0.00    -0.307 N 
ATOM      3  C   UNL     1      -4.379   0.461   1.561  0.00  0.00    +0.233 C 
ATOM      4  O   UNL     1      -4.598  -0.730   1.484  0.00  0.00    -0.274 OA
ATOM      5  H   UNL     1      -3.097   2.067   1.025  0.00  0.00    +0.149 HD
BRANCH   2   7
ATOM      6  C   UNL     1      -2.908  -0.062  -1.220  0.00  0.00    +0.033 C 
ATOM      7  C   UNL     1      -2.382   0.121   0.206  0.00  0.00    +0.100 C 
BRANCH   7   8
ATOM      8  C   UNL     1      -1.015   0.753   0.160  0.00  0.00    -0.027 A 
ATOM      9  C   UNL     1       0.114  -0.034   0.302  0.00  0.00    +0.007 A 
ATOM     10  C   UNL     1       1.368   0.541   0.254  0.00  0.00    +0.023 A 
ATOM     11  C   UNL     1       1.496   1.912   0.069  0.00  0.00    +0.030 A 
ATOM     12  C   UNL     1       0.360   2.700  -0.068  0.00  0.00    +0.023 A 
ATOM     13  C   UNL     1      -0.892   2.118  -0.019  0.00  0.00    +0.007 A 
BRANCH  11  14
ATOM     14  N   UNL     1       2.763   2.497   0.019  0.00  0.00    -0.330 N 
ATOM     15  C   UNL     1       3.477   2.330   1.311  0.00  0.00    +0.105 C 
ATOM     16  C   UNL     1       4.963   2.534   0.924  0.00  0.00    +0.020 C 
ATOM     17  C   UNL     1       5.055   1.857  -0.463  0.00  0.00    +0.020 C 
ATOM     18  C   UNL     1       3.611   1.839  -0.998  0.00  0.00    +0.105 C 
ENDBRANCH  11  14
ENDBRANCH   7   8
ENDBRANCH   2   7
ENDBRANCH   1   3
BRANCH   1  19
ATOM     19  N   UNL     1      -6.407   0.546   2.890  0.00  0.00    -0.199 N 
BRANCH  19  20
ATOM     20  C   UNL     1      -7.532   0.259   2.113  0.00  0.00    +0.052 A 
ATOM     21  C   UNL     1      -7.849  -1.059   1.808  0.00  0.00    +0.026 A 
ATOM     22  C   UNL     1      -8.964  -1.340   1.044  0.00  0.00    +0.030 A 
ATOM     23  C   UNL     1      -9.759  -0.311   0.573  0.00  0.00    +0.106 A 
ATOM     24  C   UNL     1      -9.444   1.002   0.870  0.00  0.00    +0.030 A 
ATOM     25  C   UNL     1      -8.333   1.290   1.639  0.00  0.00    +0.026 A 
BRANCH  23  26
ATOM     26  S   UNL     1     -11.178  -0.674  -0.407  0.00  0.00    +0.060 S 
ATOM     27  O   UNL     1     -11.563  -2.004  -0.087  0.00  0.00    -0.153 OA
ATOM     28  O   UNL     1     -12.062   0.430  -0.267  0.00  0.00    -0.153 OA
BRANCH  26  29
ATOM     29  N   UNL     1     -10.689  -0.691  -1.989  0.00  0.00    -0.183 NA
ATOM     30  C   UNL     1     -10.219  -1.938  -2.597  0.00  0.00    +0.131 C 
ATOM     31  C   UNL     1     -10.726   0.541  -2.780  0.00  0.00    +0.131 C 
ENDBRANCH  26  29
ENDBRANCH  23  26
ENDBRANCH  19  20
BRANCH  19  32
ATOM     32  S   UNL     1      -6.305  -0.023   4.441  0.00  0.00    +0.043 S 
ATOM     33  O   UNL     1      -7.031  -1.245   4.428  0.00  0.00    -0.155 OA
ATOM     34  O   UNL     1      -4.917  -0.009   4.742  0.00  0.00    -0.155 OA
ATOM     35  C   UNL     1      -7.176   1.209   5.449  0.00  0.00    +0.218 C 
ENDBRANCH  19  32
ENDBRANCH   1  19
TORSDOF 9
