REMARK  Name = ZINC48886744
REMARK  9 active torsions:
REMARK  status: ('A' for Active; 'I' for Inactive)
REMARK    1  A    between atoms: C_1  and  C_2
REMARK    2  A    between atoms: C_4  and  C_28
REMARK    3  A    between atoms: N_6  and  C_8
REMARK    4  A    between atoms: C_8  and  C_9
REMARK    5  A    between atoms: C_14  and  C_15
REMARK    6  A    between atoms: C_15  and  N_16
REMARK    7  A    between atoms: C_17  and  C_19
REMARK    8  A    between atoms: C_19  and  C_20
REMARK    9  A    between atoms: C_20  and  C_21
REMARK                            x       y       z     vdW  Elec       q    Type
REMARK                         _______ _______ _______ _____ _____    ______ ____
ROOT
ATOM      1  C   UNL     1       2.211  -0.014   3.259  0.00  0.00    -0.059 A 
ATOM      2  C   UNL     1       2.801   1.164   3.677  0.00  0.00    +0.002 A 
ATOM      3  C   UNL     1       2.261   1.870   4.735  0.00  0.00    +0.000 A 
ATOM      4  C   UNL     1       1.129   1.399   5.375  0.00  0.00    +0.000 A 
ATOM      5  C   UNL     1       0.538   0.222   4.956  0.00  0.00    +0.005 A 
ATOM      6  C   UNL     1       1.077  -0.483   3.895  0.00  0.00    -0.029 A 
ENDROOT
BRANCH   1   7
ATOM      7  C   UNL     1       2.800  -0.785   2.105  0.00  0.00    -0.043 C 
BRANCH   7  13
ATOM      8  C   UNL     1       4.795  -3.211   4.923  0.00  0.00    +0.005 C 
ATOM      9  C   UNL     1       5.645  -2.416   3.930  0.00  0.00    -0.031 C 
ATOM     10  C   UNL     1       6.132  -3.344   2.815  0.00  0.00    +0.003 C 
ATOM     11  C   UNL     1       4.921  -3.880   2.045  0.00  0.00    -0.031 C 
ATOM     12  C   UNL     1       4.106  -2.703   1.505  0.00  0.00    -0.075 C 
ATOM     13  N   UNL     1       3.647  -1.868   2.622  0.00  0.00    +0.383 N 
ATOM     14  C   UNL     1       4.803  -1.293   3.321  0.00  0.00    -0.075 C 
ATOM     15  C   UNL     1       5.400  -4.747   0.879  0.00  0.00    +0.005 C 
ATOM     16  H   UNL     1       3.113  -2.432   3.265  0.00  0.00    -0.081 HD
ENDBRANCH   7  13
ENDBRANCH   1   7
BRANCH   6  17
ATOM     17  C   UNL     1       0.429  -1.764   3.435  0.00  0.00    +0.139 C 
BRANCH  17  18
ATOM     18  N   UNL     1       1.139  -2.906   4.017  0.00  0.00    -0.311 N 
ATOM     19  C   UNL     1       0.807  -4.161   3.654  0.00  0.00    +0.213 C 
ATOM     20  O   UNL     1      -0.079  -4.345   2.846  0.00  0.00    -0.276 OA
ATOM     21  H   UNL     1       1.847  -2.759   4.663  0.00  0.00    +0.149 HD
BRANCH  19  22
ATOM     22  C   UNL     1       1.536  -5.335   4.253  0.00  0.00    +0.098 C 
BRANCH  22  23
ATOM     23  C   UNL     1       0.970  -6.635   3.677  0.00  0.00    +0.041 C 
BRANCH  23  24
ATOM     24  C   UNL     1       1.711  -7.828   4.285  0.00  0.00    +0.161 C 
ATOM     25  C   UNL     1       1.156  -9.131   3.746  0.00  0.00    +0.241 C 
ATOM     26  O   UNL     1       1.147  -9.502   2.591  0.00  0.00    -0.273 OA
ATOM     27  N   UNL     1       0.674  -9.793   4.817  0.00  0.00    -0.239 N 
ATOM     28  C   UNL     1       0.847  -9.096   5.946  0.00  0.00    +0.307 C 
ATOM     29  O   UNL     1       0.494  -9.486   7.041  0.00  0.00    -0.252 OA
ATOM     30  N   UNL     1       1.454  -7.914   5.733  0.00  0.00    -0.288 N 
ATOM     31  H   UNL     1       0.255 -10.666   4.774  0.00  0.00    +0.159 HD
ATOM     32  H   UNL     1       1.679  -7.249   6.402  0.00  0.00    +0.151 HD
ENDBRANCH  23  24
ENDBRANCH  22  23
ENDBRANCH  19  22
ENDBRANCH  17  18
ENDBRANCH   6  17
TORSDOF 7
