REMARK  Name = ZINC64678522
REMARK  7 active torsions:
REMARK  status: ('A' for Active; 'I' for Inactive)
REMARK    1  A    between atoms: C_1  and  C_2
REMARK    2  A    between atoms: C_7  and  C_12
REMARK    3  A    between atoms: C_15  and  C_18
REMARK    4  A    between atoms: C_18  and  C_19
REMARK    5  A    between atoms: C_19  and  N_20
REMARK    6  A    between atoms: N_20  and  C_21
REMARK    7  A    between atoms: C_22  and  C_24
REMARK                            x       y       z     vdW  Elec       q    Type
REMARK                         _______ _______ _______ _____ _____    ______ ____
ROOT
ATOM      1  C   UNL     1      -1.175  -5.213   1.858  0.00  0.00    +0.318 C 
ATOM      2  N   UNL     1      -1.152  -6.536   1.216  0.00  0.00    -0.291 N 
ATOM      3  C   UNL     1      -2.262  -6.605   0.406  0.00  0.00    +0.139 C 
ATOM      4  N   UNL     1      -2.953  -5.524   0.462  0.00  0.00    -0.072 NA
ATOM      5  O   UNL     1      -2.361  -4.586   1.344  0.00  0.00    -0.367 OA
ATOM      6  H   UNL     1      -0.483  -7.227   1.339  0.00  0.00    +0.151 HD
ENDROOT
BRANCH   1  13
ATOM      7  C   UNL     1      -0.018   1.503   0.010  0.00  0.00    +0.044 C 
ATOM      8  C   UNL     1       0.002  -0.004   0.002  0.00  0.00    -0.050 A 
ATOM      9  C   UNL     1       0.005  -0.680  -1.226  0.00  0.00    +0.005 A 
ATOM     10  C   UNL     1       0.023  -2.026  -1.317  0.00  0.00    +0.026 A 
ATOM     11  C   UNL     1       0.039  -2.826  -0.141  0.00  0.00    +0.043 A 
ATOM     12  N   UNL     1       0.057  -4.126   0.030  0.00  0.00    -0.373 N 
ATOM     13  C   UNL     1       0.067  -4.408   1.470  0.00  0.00    +0.165 C 
ATOM     14  C   UNL     1       0.052  -3.060   2.156  0.00  0.00    +0.012 C 
ATOM     15  C   UNL     1       0.036  -2.137   1.168  0.00  0.00    -0.004 A 
ATOM     16  C   UNL     1       0.022  -0.669   1.180  0.00  0.00    +0.013 A 
ATOM     17  H   UNL     1       0.062  -4.790  -0.677  0.00  0.00    +0.160 HD
ENDBRANCH   1  13
BRANCH   3  18
ATOM     18  C   UNL     1      -2.622  -7.799  -0.440  0.00  0.00    +0.094 C 
BRANCH  18  19
ATOM     19  C   UNL     1      -3.918  -7.512  -1.201  0.00  0.00    +0.115 C 
BRANCH  19  20
ATOM     20  N   UNL     1      -4.268  -8.673  -2.024  0.00  0.00    -0.300 N 
ATOM     21  C   UNL     1      -5.115  -9.733  -1.472  0.00  0.00    +0.132 C 
ATOM     22  C   UNL     1      -3.810  -8.765  -3.288  0.00  0.00    +0.252 C 
ATOM     23  O   UNL     1      -3.107  -7.886  -3.746  0.00  0.00    -0.270 OA
BRANCH  22  24
ATOM     24  C   UNL     1      -4.162  -9.934  -4.117  0.00  0.00    +0.107 A 
ATOM     25  C   UNL     1      -5.311  -9.911  -4.915  0.00  0.00    +0.138 A 
ATOM     26  C   UNL     1      -5.634 -11.010  -5.688  0.00  0.00    +0.039 A 
ATOM     27  C   UNL     1      -4.825 -12.131  -5.674  0.00  0.00    +0.006 A 
ATOM     28  C   UNL     1      -3.687 -12.164  -4.888  0.00  0.00    +0.039 A 
ATOM     29  C   UNL     1      -3.347 -11.071  -4.113  0.00  0.00    +0.138 A 
ATOM     30  F   UNL     1      -2.232 -11.102  -3.350  0.00  0.00    -0.205 F 
ATOM     31  F   UNL     1      -6.104  -8.816  -4.929  0.00  0.00    -0.205 F 
ENDBRANCH  22  24
ENDBRANCH  19  20
ENDBRANCH  18  19
ENDBRANCH   3  18
TORSDOF 5
