REMARK  Name = ZINC46055736
REMARK  8 active torsions:
REMARK  status: ('A' for Active; 'I' for Inactive)
REMARK    1  A    between atoms: C_1  and  C_2
REMARK    2  A    between atoms: C_5  and  C_7
REMARK    3  A    between atoms: C_7  and  N_8
REMARK    4  A    between atoms: C_9  and  C_11
REMARK    5  A    between atoms: N_14  and  C_17
REMARK    6  A    between atoms: C_17  and  C_18
REMARK    7  A    between atoms: N_26  and  C_27
REMARK    8  A    between atoms: C_27  and  C_28
REMARK                            x       y       z     vdW  Elec       q    Type
REMARK                         _______ _______ _______ _____ _____    ______ ____
ROOT
ATOM      1  C   UNL     1       1.832  -4.814  -3.810  0.00  0.00    +0.071 C 
ATOM      2  C   UNL     1       0.732  -5.577  -4.553  0.00  0.00    -0.006 C 
ATOM      3  C   UNL     1       1.282  -6.081  -5.889  0.00  0.00    -0.078 C 
ATOM      4  N   UNL     1       2.422  -6.974  -5.648  0.00  0.00    +0.383 N 
ATOM      5  C   UNL     1       3.509  -6.230  -5.000  0.00  0.00    -0.078 C 
ATOM      6  C   UNL     1       3.045  -5.731  -3.630  0.00  0.00    -0.006 C 
ATOM      7  H   UNL     1       2.133  -7.733  -5.050  0.00  0.00    -0.081 HD
ENDROOT
BRANCH   1   9
ATOM      8  N   UNL     1       0.253  -3.565  -2.373  0.00  0.00    -0.308 N 
ATOM      9  C   UNL     1       1.321  -4.381  -2.460  0.00  0.00    +0.216 C 
ATOM     10  O   UNL     1       1.872  -4.769  -1.451  0.00  0.00    -0.276 OA
ATOM     11  H   UNL     1      -0.188  -3.255  -3.180  0.00  0.00    +0.149 HD
BRANCH   8  12
ATOM     12  C   UNL     1      -0.244  -3.145  -1.060  0.00  0.00    +0.178 C 
BRANCH  12  17
ATOM     13  C   UNL     1      -3.029   1.016  -1.668  0.00  0.00    +0.086 C 
ATOM     14  C   UNL     1      -2.648  -0.432  -1.504  0.00  0.00    +0.102 A 
ATOM     15  C   UNL     1      -3.501  -1.472  -1.476  0.00  0.00    +0.045 A 
ATOM     16  C   UNL     1      -2.720  -2.638  -1.306  0.00  0.00    +0.046 A 
ATOM     17  C   UNL     1      -1.437  -2.242  -1.240  0.00  0.00    +0.122 A 
ATOM     18  O   UNL     1      -1.398  -0.905  -1.366  0.00  0.00    -0.463 OA
ENDBRANCH  12  17
ENDBRANCH   8  12
ENDBRANCH   1   9
BRANCH   4  19
ATOM     19  C   UNL     1       2.897  -7.516  -6.928  0.00  0.00    -0.024 C 
BRANCH  19  20
ATOM     20  C   UNL     1       3.969  -8.544  -6.671  0.00  0.00    +0.004 A 
ATOM     21  C   UNL     1       5.289  -8.303  -6.692  0.00  0.00    +0.029 A 
ATOM     22  C   UNL     1       5.960  -9.570  -6.391  0.00  0.00    +0.000 A 
ATOM     23  C   UNL     1       7.297  -9.955  -6.271  0.00  0.00    +0.010 A 
ATOM     24  C   UNL     1       7.605 -11.252  -5.972  0.00  0.00    +0.001 A 
ATOM     25  C   UNL     1       6.599 -12.191  -5.787  0.00  0.00    +0.002 A 
ATOM     26  C   UNL     1       5.274 -11.832  -5.900  0.00  0.00    +0.026 A 
ATOM     27  C   UNL     1       4.938 -10.517  -6.204  0.00  0.00    +0.049 A 
ATOM     28  N   UNL     1       3.740  -9.861  -6.376  0.00  0.00    -0.341 N 
BRANCH  28  29
ATOM     29  C   UNL     1       2.417 -10.480  -6.262  0.00  0.00    +0.158 C 
BRANCH  29  30
ATOM     30  C   UNL     1       1.921 -10.860  -7.633  0.00  0.00    -0.009 A 
ATOM     31  C   UNL     1       1.149  -9.972  -8.360  0.00  0.00    +0.007 A 
ATOM     32  C   UNL     1       0.694 -10.320  -9.618  0.00  0.00    +0.000 A 
ATOM     33  C   UNL     1       1.010 -11.556 -10.150  0.00  0.00    +0.001 A 
ATOM     34  C   UNL     1       1.780 -12.445  -9.424  0.00  0.00    +0.020 A 
ATOM     35  C   UNL     1       2.241 -12.095  -8.168  0.00  0.00    +0.046 A 
ATOM     36 CL   UNL     1       3.215 -13.208  -7.258  0.00  0.00    -0.083 Cl
ENDBRANCH  29  30
ENDBRANCH  28  29
ENDBRANCH  19  20
ENDBRANCH   4  19
TORSDOF 7
