REMARK  Name = ZINC41222978
REMARK  8 active torsions:
REMARK  status: ('A' for Active; 'I' for Inactive)
REMARK    1  A    between atoms: C_1  and  C_2
REMARK    2  A    between atoms: C_2  and  C_4
REMARK    3  A    between atoms: C_2  and  N_13
REMARK    4  A    between atoms: C_4  and  C_5
REMARK    5  A    between atoms: C_5  and  C_6
REMARK    6  A    between atoms: C_9  and  O_12
REMARK    7  A    between atoms: C_14  and  C_16
REMARK    8  A    between atoms: N_18  and  C_19
REMARK                            x       y       z     vdW  Elec       q    Type
REMARK                         _______ _______ _______ _____ _____    ______ ____
ROOT
ATOM      1  N   UNL     1       0.684  -0.495  -1.199  0.00  0.00    -0.305 N 
ATOM      2  C   UNL     1       0.004  -0.623  -2.355  0.00  0.00    +0.300 C 
ATOM      3  O   UNL     1      -1.179  -0.354  -2.395  0.00  0.00    -0.265 OA
ATOM      4  H   UNL     1       1.630  -0.710  -1.167  0.00  0.00    +0.149 HD
ENDROOT
BRANCH   2   5
ATOM      5  C   UNL     1       0.705  -1.094  -3.586  0.00  0.00    +0.303 C 
ATOM      6  O   UNL     1       1.887  -1.363  -3.546  0.00  0.00    -0.265 OA
ATOM      7  N   UNL     1       0.024  -1.221  -4.742  0.00  0.00    -0.277 N 
ATOM      8  H   UNL     1      -0.934  -1.070  -4.760  0.00  0.00    +0.155 HD
BRANCH   7   9
ATOM      9  C   UNL     1       0.696  -1.570  -5.912  0.00  0.00    +0.043 A 
ATOM     10  C   UNL     1       1.769  -2.436  -5.867  0.00  0.00    +0.024 A 
ATOM     11  C   UNL     1       2.444  -2.788  -7.030  0.00  0.00    +0.004 A 
ATOM     12  C   UNL     1       2.068  -2.292  -8.242  0.00  0.00    +0.028 A 
ATOM     13  C   UNL     1       0.981  -1.406  -8.333  0.00  0.00    +0.073 A 
ATOM     14  C   UNL     1       0.282  -1.045  -7.154  0.00  0.00    +0.022 A 
ATOM     15  C   UNL     1      -0.808  -0.164  -7.249  0.00  0.00    +0.013 A 
ATOM     16  C   UNL     1      -1.152   0.306  -8.486  0.00  0.00    +0.020 A 
ATOM     17  C   UNL     1      -0.428  -0.093  -9.607  0.00  0.00    +0.111 A 
ATOM     18  N   UNL     1       0.596  -0.907  -9.512  0.00  0.00    -0.255 NA
ENDBRANCH   7   9
ENDBRANCH   2   5
BRANCH   1  20
ATOM     19  C   UNL     1      -0.030   1.497   0.027  0.00  0.00    +0.028 C 
ATOM     20  C   UNL     1      -0.003  -0.033   0.009  0.00  0.00    +0.071 C 
BRANCH  20  21
ATOM     21  C   UNL     1       0.738  -0.544   1.246  0.00  0.00    +0.026 C 
BRANCH  21  22
ATOM     22  C   UNL     1       0.657  -2.071   1.294  0.00  0.00    +0.037 C 
BRANCH  22  23
ATOM     23  C   UNL     1       1.388  -2.575   2.512  0.00  0.00    -0.047 A 
ATOM     24  C   UNL     1       2.736  -2.874   2.434  0.00  0.00    +0.007 A 
ATOM     25  C   UNL     1       3.408  -3.336   3.549  0.00  0.00    +0.045 A 
ATOM     26  C   UNL     1       2.729  -3.500   4.747  0.00  0.00    +0.117 A 
ATOM     27  C   UNL     1       1.377  -3.199   4.823  0.00  0.00    +0.045 A 
ATOM     28  C   UNL     1       0.711  -2.732   3.707  0.00  0.00    +0.007 A 
BRANCH  26  29
ATOM     29  O   UNL     1       3.388  -3.955   5.846  0.00  0.00    -0.507 OA
ATOM     30  H   UNL     1       3.776  -3.256   6.389  0.00  0.00    +0.292 HD
ENDBRANCH  26  29
ENDBRANCH  22  23
ENDBRANCH  21  22
ENDBRANCH  20  21
ENDBRANCH   1  20
TORSDOF 7
