REMARK  Name = ZINC18243942
REMARK  9 active torsions:
REMARK  status: ('A' for Active; 'I' for Inactive)
REMARK    1  A    between atoms: C_7  and  C_11
REMARK    2  A    between atoms: C_11  and  C_12
REMARK    3  A    between atoms: C_12  and  C_14
REMARK    4  A    between atoms: C_12  and  N_27
REMARK    5  A    between atoms: C_14  and  O_16
REMARK    6  A    between atoms: O_16  and  C_17
REMARK    7  A    between atoms: C_17  and  C_18
REMARK    8  A    between atoms: C_18  and  C_20
REMARK    9  A    between atoms: C_28  and  C_30
REMARK                            x       y       z     vdW  Elec       q    Type
REMARK                         _______ _______ _______ _____ _____    ______ ____
ROOT
ATOM      1  C   UNL     1       4.175   0.621   1.403  0.00  0.00    +0.186 C 
ENDROOT
BRANCH   1   2
ATOM      2  N   UNL     1       3.850   1.938   1.956  0.00  0.00    -0.298 N 
ATOM      3  C   UNL     1       2.646   2.153   2.523  0.00  0.00    +0.246 C 
ATOM      4  O   UNL     1       1.830   1.254   2.576  0.00  0.00    -0.270 OA
ATOM      5  H   UNL     1       4.501   2.656   1.913  0.00  0.00    +0.150 HD
BRANCH   3   6
ATOM      6  C   UNL     1       2.319   3.482   3.081  0.00  0.00    +0.055 A 
ATOM      7  C   UNL     1       3.256   4.515   3.027  0.00  0.00    +0.014 A 
ATOM      8  C   UNL     1       2.942   5.754   3.544  0.00  0.00    +0.001 A 
ATOM      9  C   UNL     1       1.706   5.973   4.126  0.00  0.00    +0.001 A 
ATOM     10  C   UNL     1       0.774   4.953   4.189  0.00  0.00    +0.021 A 
ATOM     11  C   UNL     1       1.073   3.708   3.670  0.00  0.00    +0.053 A 
ATOM     12 CL   UNL     1      -0.098   2.428   3.749  0.00  0.00    -0.083 Cl
ENDBRANCH   3   6
ENDBRANCH   1   2
BRANCH   1  13
ATOM     13  C   UNL     1       5.670   0.432   1.400  0.00  0.00    +0.328 C 
ATOM     14  O   UNL     1       6.390   1.307   1.817  0.00  0.00    -0.249 OA
BRANCH  13  15
ATOM     15  O   UNL     1       6.201  -0.710   0.934  0.00  0.00    -0.455 OA
BRANCH  15  16
ATOM     16  C   UNL     1       7.648  -0.823   0.962  0.00  0.00    +0.311 C 
BRANCH  16  17
ATOM     17  C   UNL     1       8.058  -2.161   0.404  0.00  0.00    +0.200 C 
ATOM     18  O   UNL     1       7.214  -2.943   0.021  0.00  0.00    -0.288 OA
BRANCH  17  19
ATOM     19  C   UNL     1       9.483  -2.520   0.325  0.00  0.00    +0.021 A 
ATOM     20  C   UNL     1      10.460  -1.618   0.760  0.00  0.00    +0.013 A 
ATOM     21  C   UNL     1      11.792  -1.963   0.688  0.00  0.00    +0.021 A 
ATOM     22  C   UNL     1      12.165  -3.195   0.174  0.00  0.00    +0.041 A 
ATOM     23  C   UNL     1      11.204  -4.090  -0.264  0.00  0.00    +0.021 A 
ATOM     24  C   UNL     1       9.867  -3.761  -0.192  0.00  0.00    +0.013 A 
ATOM     25 CL   UNL     1      13.846  -3.617   0.080  0.00  0.00    -0.084 Cl
ENDBRANCH  17  19
ENDBRANCH  16  17
ENDBRANCH  15  16
ENDBRANCH  13  15
ENDBRANCH   1  13
BRANCH   1  26
ATOM     26  C   UNL     1       3.646   0.525  -0.030  0.00  0.00    +0.071 C 
BRANCH  26  33
ATOM     27  C   UNL     1       0.593   4.082   0.018  0.00  0.00    +0.001 A 
ATOM     28  C   UNL     1      -0.730   3.659   0.029  0.00  0.00    +0.002 A 
ATOM     29  C   UNL     1      -1.038   2.317   0.029  0.00  0.00    +0.026 A 
ATOM     30  C   UNL     1      -0.017   1.373   0.010  0.00  0.00    +0.047 A 
ATOM     31  C   UNL     1       1.322   1.806  -0.001  0.00  0.00    +0.003 A 
ATOM     32  C   UNL     1       1.612   3.172   0.004  0.00  0.00    +0.010 A 
ATOM     33  C   UNL     1       2.140   0.591  -0.015  0.00  0.00    -0.020 A 
ATOM     34  C   UNL     1       1.295  -0.452  -0.013  0.00  0.00    +0.087 A 
ATOM     35  N   UNL     1       0.002  -0.004   0.002  0.00  0.00    -0.360 N 
ATOM     36  H   UNL     1      -0.784  -0.572   0.006  0.00  0.00    +0.165 HD
ENDBRANCH  26  33
ENDBRANCH   1  26
TORSDOF 9
