REMARK  Name = ZINC60356550
REMARK  8 active torsions:
REMARK  status: ('A' for Active; 'I' for Inactive)
REMARK    1  A    between atoms: C_1  and  N_2
REMARK    2  A    between atoms: N_2  and  C_3
REMARK    3  A    between atoms: N_2  and  C_16
REMARK    4  A    between atoms: C_3  and  C_4
REMARK    5  A    between atoms: C_9  and  C_10
REMARK    6  A    between atoms: C_16  and  C_17
REMARK    7  A    between atoms: C_26  and  S_28
REMARK    8  A    between atoms: S_28  and  N_31
REMARK                            x       y       z     vdW  Elec       q    Type
REMARK                         _______ _______ _______ _____ _____    ______ ____
ROOT
ATOM      1  C   UNL     1      -1.355  -0.460   0.000  0.00  0.00    +0.019 C 
ENDROOT
BRANCH   1   2
ATOM      2  C   UNL     1      -2.133   0.022  -1.197  0.00  0.00    +0.203 C 
ATOM      3  O   UNL     1      -1.618   0.782  -1.990  0.00  0.00    -0.277 OA
ATOM      4  N   UNL     1      -3.402  -0.391  -1.386  0.00  0.00    -0.272 N 
ATOM      5  C   UNL     1      -4.131  -1.300  -0.497  0.00  0.00    +0.118 C 
ATOM      6  C   UNL     1      -5.520  -1.461  -1.136  0.00  0.00    +0.056 C 
ATOM      7  C   UNL     1      -5.469  -0.603  -2.380  0.00  0.00    -0.023 A 
ATOM      8  C   UNL     1      -4.218  -0.011  -2.456  0.00  0.00    +0.040 A 
ATOM      9  C   UNL     1      -3.934   0.839  -3.527  0.00  0.00    +0.026 A 
ATOM     10  C   UNL     1      -4.889   1.086  -4.490  0.00  0.00    +0.030 A 
ATOM     11  C   UNL     1      -6.135   0.494  -4.403  0.00  0.00    +0.105 A 
ATOM     12  C   UNL     1      -6.421  -0.356  -3.350  0.00  0.00    +0.034 A 
BRANCH  11  13
ATOM     13  S   UNL     1      -7.353   0.813  -5.636  0.00  0.00    +0.056 S 
ATOM     14  O   UNL     1      -8.616   0.569  -5.032  0.00  0.00    -0.153 OA
ATOM     15  O   UNL     1      -7.019   2.062  -6.223  0.00  0.00    -0.153 OA
BRANCH  13  16
ATOM     16  N   UNL     1      -7.165  -0.332  -6.818  0.00  0.00    -0.204 NA
ATOM     17  H   UNL     1      -6.472  -1.006  -6.734  0.00  0.00    +0.144 HD
ATOM     18  H   UNL     1      -7.747  -0.328  -7.594  0.00  0.00    +0.144 HD
ENDBRANCH  13  16
ENDBRANCH  11  13
ENDBRANCH   1   2
BRANCH   1  20
ATOM     19  C   UNL     1      -0.110   1.586   0.141  0.00  0.00    -0.095 C 
ATOM     20  N   UNL     1      -0.009   0.130  -0.021  0.00  0.00    +0.386 N 
ATOM     21  H   UNL     1       0.436  -0.080  -0.902  0.00  0.00    -0.081 HD
BRANCH  20  22
ATOM     22  C   UNL     1       0.789  -0.432   1.077  0.00  0.00    -0.042 C 
BRANCH  22  23
ATOM     23  C   UNL     1       2.209   0.061   0.968  0.00  0.00    -0.056 A 
ATOM     24  C   UNL     1       2.679   1.017   1.846  0.00  0.00    +0.002 A 
ATOM     25  C   UNL     1       3.982   1.470   1.748  0.00  0.00    +0.000 A 
ATOM     26  C   UNL     1       4.822   0.967   0.770  0.00  0.00    +0.001 A 
ATOM     27  C   UNL     1       4.363   0.011  -0.113  0.00  0.00    +0.009 A 
ATOM     28  C   UNL     1       3.052  -0.452  -0.015  0.00  0.00    -0.017 A 
BRANCH  28  29
ATOM     29  C   UNL     1       2.555  -1.484  -0.959  0.00  0.00    -0.018 A 
ATOM     30  C   UNL     1       2.025  -2.678  -0.473  0.00  0.00    +0.008 A 
ATOM     31  C   UNL     1       1.563  -3.634  -1.355  0.00  0.00    +0.001 A 
ATOM     32  C   UNL     1       1.626  -3.409  -2.718  0.00  0.00    +0.000 A 
ATOM     33  C   UNL     1       2.152  -2.226  -3.206  0.00  0.00    +0.001 A 
ATOM     34  C   UNL     1       2.611  -1.261  -2.333  0.00  0.00    +0.008 A 
ENDBRANCH  28  29
ENDBRANCH  22  23
ENDBRANCH  20  22
ENDBRANCH   1  20
TORSDOF 7
