REMARK  Name = ZINC09845869
REMARK  9 active torsions:
REMARK  status: ('A' for Active; 'I' for Inactive)
REMARK    1  A    between atoms: C_4  and  C_7
REMARK    2  A    between atoms: C_7  and  N_8
REMARK    3  A    between atoms: N_8  and  C_9
REMARK    4  A    between atoms: N_8  and  S_22
REMARK    5  A    between atoms: C_9  and  C_10
REMARK    6  A    between atoms: N_12  and  N_13
REMARK    7  A    between atoms: C_14  and  C_15
REMARK    8  A    between atoms: C_20  and  O_21
REMARK    9  A    between atoms: S_22  and  C_25
REMARK                            x       y       z     vdW  Elec       q    Type
REMARK                         _______ _______ _______ _____ _____    ______ ____
ROOT
ATOM      1  N   UNL     1      -8.431   1.775   0.052  0.00  0.00    -0.163 NA
ENDROOT
BRANCH   1   2
ATOM      2  S   UNL     1      -9.139   2.204   1.486  0.00  0.00    +0.062 S 
ATOM      3  O   UNL     1     -10.460   2.627   1.177  0.00  0.00    -0.153 OA
ATOM      4  O   UNL     1      -8.871   1.151   2.402  0.00  0.00    -0.153 OA
BRANCH   2   5
ATOM      5  C   UNL     1      -8.283   3.622   2.086  0.00  0.00    +0.106 A 
ATOM      6  C   UNL     1      -7.187   3.469   2.915  0.00  0.00    +0.029 A 
ATOM      7  C   UNL     1      -6.513   4.582   3.381  0.00  0.00    +0.017 A 
ATOM      8  C   UNL     1      -6.941   5.849   3.028  0.00  0.00    +0.018 A 
ATOM      9  C   UNL     1      -8.041   6.002   2.203  0.00  0.00    +0.017 A 
ATOM     10  C   UNL     1      -8.711   4.888   1.732  0.00  0.00    +0.029 A 
ATOM     11 BR   UNL     1      -6.023   7.371   3.671  0.00  0.00    -0.050 Br
ENDBRANCH   2   5
ENDBRANCH   1   2
BRANCH   1  12
ATOM     12  C   UNL     1      -8.927   2.337  -1.207  0.00  0.00    +0.145 C 
BRANCH  12  16
ATOM     13  C   UNL     1     -11.738  -0.359  -2.961  0.00  0.00    +0.000 A 
ATOM     14  C   UNL     1     -12.171   0.619  -2.086  0.00  0.00    +0.000 A 
ATOM     15  C   UNL     1     -11.262   1.491  -1.518  0.00  0.00    +0.005 A 
ATOM     16  C   UNL     1      -9.918   1.386  -1.826  0.00  0.00    -0.032 A 
ATOM     17  C   UNL     1      -9.485   0.412  -2.706  0.00  0.00    +0.005 A 
ATOM     18  C   UNL     1     -10.394  -0.464  -3.270  0.00  0.00    +0.000 A 
ENDBRANCH  12  16
ENDBRANCH   1  12
BRANCH   1  19
ATOM     19  C   UNL     1      -7.308   0.834   0.041  0.00  0.00    +0.207 C 
BRANCH  19  20
ATOM     20  C   UNL     1      -6.011   1.599   0.039  0.00  0.00    +0.248 C 
ATOM     21  O   UNL     1      -6.022   2.812   0.046  0.00  0.00    -0.273 OA
ATOM     22  N   UNL     1      -4.837   0.936   0.030  0.00  0.00    -0.206 N 
ATOM     23  H   UNL     1      -4.828  -0.034   0.025  0.00  0.00    +0.177 HD
BRANCH  22  24
ATOM     24  N   UNL     1      -3.630   1.648   0.028  0.00  0.00    -0.188 NA
ATOM     25  C   UNL     1      -2.500   1.010   0.019  0.00  0.00    +0.142 C 
BRANCH  25  26
ATOM     26  C   UNL     1      -1.231   1.759   0.017  0.00  0.00    +0.036 A 
ATOM     27  C   UNL     1      -0.013   1.076   0.008  0.00  0.00    +0.013 A 
ATOM     28  C   UNL     1       1.171   1.783   0.000  0.00  0.00    +0.001 A 
ATOM     29  C   UNL     1       1.158   3.167   0.007  0.00  0.00    +0.004 A 
ATOM     30  C   UNL     1      -0.041   3.854   0.023  0.00  0.00    +0.046 A 
ATOM     31  C   UNL     1      -1.240   3.160   0.030  0.00  0.00    +0.125 A 
BRANCH  31  32
ATOM     32  O   UNL     1      -2.418   3.835   0.045  0.00  0.00    -0.506 OA
ATOM     33  H   UNL     1      -2.768   4.035  -0.834  0.00  0.00    +0.292 HD
ENDBRANCH  31  32
ENDBRANCH  25  26
ENDBRANCH  22  24
ENDBRANCH  19  20
ENDBRANCH   1  19
TORSDOF 9
