REMARK  Name = ZINC09151114
REMARK  10 active torsions:
REMARK  status: ('A' for Active; 'I' for Inactive)
REMARK    1  A    between atoms: C_1  and  C_2
REMARK    2  A    between atoms: C_2  and  N_60
REMARK    3  A    between atoms: C_8  and  N_26
REMARK    4  A    between atoms: C_9  and  C_10
REMARK    5  A    between atoms: C_10  and  N_11
REMARK    6  A    between atoms: N_14  and  C_15
REMARK    7  A    between atoms: C_19  and  C_21
REMARK    8  A    between atoms: C_21  and  O_23
REMARK    9  A    between atoms: O_23  and  C_24
REMARK   10  A    between atoms: C_24  and  C_25
REMARK                            x       y       z     vdW  Elec       q    Type
REMARK                         _______ _______ _______ _____ _____    ______ ____
ROOT
ATOM      1  C   UNL     1      -4.969  -8.570  -0.297  0.00  0.00    +0.144 C 
ENDROOT
BRANCH   1   8
ATOM      2  C   UNL     1      -7.158  -9.637  -4.030  0.00  0.00    -0.074 C 
ATOM      3  C   UNL     1      -6.289  -8.969  -2.961  0.00  0.00    +0.018 C 
ATOM      4  C   UNL     1      -7.049  -9.006  -1.638  0.00  0.00    -0.034 A 
ATOM      5  C   UNL     1      -8.393  -9.229  -1.644  0.00  0.00    -0.021 A 
ATOM      6  S   UNL     1      -8.837  -9.194   0.070  0.00  0.00    -0.077 S 
ATOM      7  C   UNL     1      -7.208  -8.884   0.735  0.00  0.00    +0.089 A 
ATOM      8  C   UNL     1      -6.451  -8.825  -0.393  0.00  0.00    +0.004 A 
ATOM      9  C   UNL     1      -9.260  -9.448  -2.841  0.00  0.00    -0.035 C 
ATOM     10  N   UNL     1      -8.498  -9.014  -4.037  0.00  0.00    +0.383 N 
ATOM     11  H   UNL     1      -8.392  -7.993  -4.014  0.00  0.00    -0.081 HD
BRANCH   7  12
ATOM     12  N   UNL     1      -6.813  -8.738   2.070  0.00  0.00    -0.317 N 
ATOM     13  C   UNL     1      -7.159  -9.569   3.098  0.00  0.00    +0.092 A 
ATOM     14  C   UNL     1      -6.585  -9.103   4.226  0.00  0.00    +0.019 A 
ATOM     15  C   UNL     1      -5.867  -7.939   3.887  0.00  0.00    +0.019 A 
ATOM     16  C   UNL     1      -6.024  -7.739   2.562  0.00  0.00    +0.092 A 
ENDBRANCH   7  12
BRANCH  10  18
ATOM     17  C   UNL     1     -10.508  -8.565  -5.359  0.00  0.00    -0.017 C 
ATOM     18  C   UNL     1      -9.226  -9.395  -5.267  0.00  0.00    -0.082 C 
ENDBRANCH  10  18
ENDBRANCH   1   8
BRANCH   1  19
ATOM     19  N   UNL     1      -4.713  -7.132  -0.405  0.00  0.00    -0.295 N 
ATOM     20  C   UNL     1      -3.449  -6.666  -0.346  0.00  0.00    +0.304 C 
ATOM     21  O   UNL     1      -2.522  -7.440  -0.202  0.00  0.00    -0.252 OA
ATOM     22  N   UNL     1      -3.213  -5.343  -0.445  0.00  0.00    -0.269 N 
ATOM     23  H   UNL     1      -5.452  -6.515  -0.520  0.00  0.00    +0.151 HD
ATOM     24  H   UNL     1      -3.955  -4.720  -0.484  0.00  0.00    +0.156 HD
BRANCH  22  25
ATOM     25  C   UNL     1      -1.897  -4.868  -0.492  0.00  0.00    +0.036 A 
ATOM     26  C   UNL     1      -1.585  -3.631   0.058  0.00  0.00    +0.023 A 
ATOM     27  C   UNL     1      -0.287  -3.157   0.015  0.00  0.00    +0.003 A 
ATOM     28  C   UNL     1       0.709  -3.913  -0.570  0.00  0.00    +0.015 A 
ATOM     29  C   UNL     1       0.405  -5.155  -1.130  0.00  0.00    +0.061 A 
ATOM     30  C   UNL     1      -0.906  -5.633  -1.086  0.00  0.00    +0.038 A 
BRANCH  29  31
ATOM     31  C   UNL     1       1.468  -5.964  -1.761  0.00  0.00    +0.339 C 
ATOM     32  O   UNL     1       1.202  -7.047  -2.243  0.00  0.00    -0.245 OA
BRANCH  31  33
ATOM     33  O   UNL     1       2.732  -5.500  -1.802  0.00  0.00    -0.461 OA
BRANCH  33  34
ATOM     34  C   UNL     1       3.725  -6.349  -2.438  0.00  0.00    +0.229 C 
ATOM     35  C   UNL     1       5.090  -5.660  -2.388  0.00  0.00    +0.048 C 
ENDBRANCH  33  34
ENDBRANCH  31  33
ENDBRANCH  29  31
ENDBRANCH  22  25
ENDBRANCH   1  19
TORSDOF 8
