REMARK  Name = ZINC64637439
REMARK  6 active torsions:
REMARK  status: ('A' for Active; 'I' for Inactive)
REMARK    1  A    between atoms: C_1  and  C_2
REMARK    2  A    between atoms: C_4  and  C_34
REMARK    3  A    between atoms: C_5  and  C_26
REMARK    4  A    between atoms: C_6  and  S_8
REMARK    5  A    between atoms: S_8  and  N_11
REMARK    6  A    between atoms: C_14  and  C_17
REMARK                            x       y       z     vdW  Elec       q    Type
REMARK                         _______ _______ _______ _____ _____    ______ ____
ROOT
ATOM      1  S   UNL     1      -1.222  -0.760   3.079  0.00  0.00    +0.044 S 
ATOM      2  O   UNL     1      -2.287  -1.457   2.447  0.00  0.00    -0.157 OA
ATOM      3  O   UNL     1      -0.922  -0.985   4.450  0.00  0.00    -0.157 OA
ENDROOT
BRANCH   1   9
ATOM      4  C   UNL     1       1.987   0.086   3.944  0.00  0.00    +0.063 C 
ATOM      5  C   UNL     1       1.343   0.082   2.581  0.00  0.00    +0.046 C 
ATOM      6  N   UNL     1       1.588   0.897   1.607  0.00  0.00    -0.259 NA
ATOM      7  C   UNL     1       0.865   0.657   0.506  0.00  0.00    +0.049 C 
ATOM      8  C   UNL     1       0.032  -0.397   0.664  0.00  0.00    +0.066 C 
ATOM      9  C   UNL     1       0.286  -0.883   2.080  0.00  0.00    +0.228 C 
ATOM     10  C   UNL     1       0.967   1.466  -0.761  0.00  0.00    +0.066 C 
BRANCH   8  11
ATOM     11  C   UNL     1      -0.903  -0.951  -0.314  0.00  0.00    +0.247 C 
ATOM     12  O   UNL     1      -2.071  -0.611  -0.299  0.00  0.00    -0.270 OA
ATOM     13  N   UNL     1      -0.470  -1.837  -1.233  0.00  0.00    -0.298 N 
ATOM     14  C   UNL     1       0.909  -2.342  -1.195  0.00  0.00    +0.108 C 
ATOM     15  C   UNL     1       0.873  -3.873  -1.189  0.00  0.00    +0.019 C 
ATOM     16  C   UNL     1       0.057  -4.365  -2.386  0.00  0.00    +0.003 C 
ATOM     17  C   UNL     1      -1.379  -3.848  -2.273  0.00  0.00    +0.019 C 
ATOM     18  C   UNL     1      -1.371  -2.321  -2.288  0.00  0.00    +0.108 C 
ENDBRANCH   8  11
ENDBRANCH   1   9
BRANCH   1  19
ATOM     19  N   UNL     1      -1.657   0.836   2.999  0.00  0.00    -0.180 NA
ATOM     20  C   UNL     1      -1.087   1.815   3.935  0.00  0.00    +0.110 C 
ATOM     21  C   UNL     1      -2.233   2.567   4.620  0.00  0.00    +0.030 C 
ATOM     22  C   UNL     1      -3.147   3.175   3.554  0.00  0.00    +0.078 C 
ATOM     23  C   UNL     1      -3.747   2.058   2.696  0.00  0.00    +0.030 C 
ATOM     24  C   UNL     1      -2.614   1.301   1.986  0.00  0.00    +0.110 C 
BRANCH  22  25
ATOM     25  C   UNL     1      -4.256   3.945   4.223  0.00  0.00    +0.219 C 
ATOM     26  O   UNL     1      -4.451   3.816   5.413  0.00  0.00    -0.275 OA
ATOM     27  N   UNL     1      -5.032   4.776   3.500  0.00  0.00    -0.301 N 
ATOM     28  C   UNL     1      -6.023   5.574   4.187  0.00  0.00    +0.108 C 
ATOM     29  C   UNL     1      -7.354   4.786   4.276  0.00  0.00    +0.019 C 
ATOM     30  C   UNL     1      -7.984   4.700   2.950  0.00  0.00    +0.002 C 
ATOM     31  C   UNL     1      -7.164   3.940   1.912  0.00  0.00    +0.002 C 
ATOM     32  C   UNL     1      -6.171   4.879   1.274  0.00  0.00    +0.019 C 
ATOM     33  C   UNL     1      -4.831   4.839   2.039  0.00  0.00    +0.108 C 
ENDBRANCH  22  25
ENDBRANCH   1  19
TORSDOF 4
