REMARK  Name = ZINC38512986
REMARK  7 active torsions:
REMARK  status: ('A' for Active; 'I' for Inactive)
REMARK    1  A    between atoms: C_1  and  O_2
REMARK    2  A    between atoms: O_2  and  C_3
REMARK    3  A    between atoms: C_6  and  C_10
REMARK    4  A    between atoms: C_7  and  O_9
REMARK    5  A    between atoms: C_13  and  C_19
REMARK    6  A    between atoms: C_19  and  O_20
REMARK    7  A    between atoms: O_20  and  C_21
REMARK                            x       y       z     vdW  Elec       q    Type
REMARK                         _______ _______ _______ _____ _____    ______ ____
ROOT
ATOM      1  C   UNL     1       2.578  -2.527   4.294  0.00  0.00    +0.083 C 
ATOM      2  N   UNL     1       2.604  -3.811   4.281  0.00  0.00    -0.166 NA
ATOM      3  N   UNL     1       3.164  -4.593   5.285  0.00  0.00    -0.188 N 
ATOM      4  C   UNL     1       3.563  -5.890   5.305  0.00  0.00    +0.193 A 
ATOM      5  N   UNL     1       4.011  -6.140   6.510  0.00  0.00    -0.128 NA
ATOM      6  N   UNL     1       3.922  -5.084   7.249  0.00  0.00    -0.121 NA
ATOM      7  C   UNL     1       3.419  -4.116   6.554  0.00  0.00    +0.213 A 
ATOM      8  S   UNL     1       3.064  -2.439   6.976  0.00  0.00    -0.078 S 
ATOM      9  C   UNL     1       3.175  -1.633   5.343  0.00  0.00    +0.135 C 
ENDROOT
BRANCH   1  13
ATOM     10  C   UNL     1       0.625  -0.618   1.041  0.00  0.00    +0.124 A 
ATOM     11  C   UNL     1       1.202   0.144   2.051  0.00  0.00    +0.046 A 
ATOM     12  C   UNL     1       1.836  -0.470   3.107  0.00  0.00    +0.017 A 
ATOM     13  C   UNL     1       1.901  -1.865   3.167  0.00  0.00    +0.040 A 
ATOM     14  C   UNL     1       1.319  -2.632   2.147  0.00  0.00    +0.129 A 
ATOM     15  C   UNL     1       0.679  -2.003   1.093  0.00  0.00    +0.091 A 
BRANCH  10  17
ATOM     16  C   UNL     1      -0.017   1.425   0.010  0.00  0.00    +0.277 C 
ATOM     17  O   UNL     1       0.002  -0.004   0.002  0.00  0.00    -0.495 OA
ENDBRANCH  10  17
BRANCH  14  18
ATOM     18  O   UNL     1       1.377  -3.988   2.196  0.00  0.00    -0.506 OA
ATOM     19  H   UNL     1       0.633  -4.398   2.658  0.00  0.00    +0.292 HD
ENDBRANCH  14  18
ENDBRANCH   1  13
BRANCH   4  20
ATOM     20  C   UNL     1       3.503  -6.861   4.154  0.00  0.00    +0.307 C 
BRANCH  20  21
ATOM     21  O   UNL     1       4.721  -6.792   3.409  0.00  0.00    -0.484 OA
BRANCH  21  22
ATOM     22  C   UNL     1       4.830  -7.611   2.329  0.00  0.00    +0.121 A 
ATOM     23  C   UNL     1       3.787  -8.460   1.989  0.00  0.00    +0.046 A 
ATOM     24  C   UNL     1       3.909  -9.288   0.894  0.00  0.00    +0.007 A 
ATOM     25  C   UNL     1       5.067  -9.280   0.126  0.00  0.00    -0.044 A 
ATOM     26  C   UNL     1       6.103  -8.435   0.459  0.00  0.00    -0.041 A 
ATOM     27  C   UNL     1       5.981  -7.598   1.561  0.00  0.00    +0.049 A 
ATOM     28  C   UNL     1       7.379  -8.363  -0.338  0.00  0.00    +0.035 C 
ATOM     29  C   UNL     1       7.532  -9.600  -1.220  0.00  0.00    +0.005 C 
ATOM     30  C   UNL     1       6.236  -9.789  -2.018  0.00  0.00    +0.005 C 
ATOM     31  C   UNL     1       5.134 -10.217  -1.051  0.00  0.00    +0.035 C 
ENDBRANCH  21  22
ENDBRANCH  20  21
ENDBRANCH   4  20
TORSDOF 6
