REMARK  Name = ZINC14467638
REMARK  7 active torsions:
REMARK  status: ('A' for Active; 'I' for Inactive)
REMARK    1  A    between atoms: C_1  and  C_2
REMARK    2  A    between atoms: C_2  and  C_3
REMARK    3  A    between atoms: C_2  and  C_4
REMARK    4  A    between atoms: C_4  and  O_5
REMARK    5  A    between atoms: O_5  and  C_6
REMARK    6  A    between atoms: C_19  and  C_22
REMARK    7  A    between atoms: C_27  and  O_28
REMARK                            x       y       z     vdW  Elec       q    Type
REMARK                         _______ _______ _______ _____ _____    ______ ____
ROOT
ATOM      1  C   UNL     1       4.832   0.599   1.946  0.00  0.00    +0.121 A 
ATOM      2  C   UNL     1       5.099   0.578   0.585  0.00  0.00    +0.047 A 
ATOM      3  C   UNL     1       4.665   1.618  -0.212  0.00  0.00    +0.027 A 
ATOM      4  C   UNL     1       3.963   2.678   0.347  0.00  0.00    +0.032 A 
ATOM      5  C   UNL     1       3.693   2.706   1.706  0.00  0.00    -0.016 A 
ATOM      6  C   UNL     1       4.133   1.657   2.501  0.00  0.00    +0.051 A 
ATOM      7  C   UNL     1       2.943   3.829   2.350  0.00  0.00    +0.049 C 
ATOM      8  C   UNL     1       1.528   3.426   2.689  0.00  0.00    -0.023 C 
ATOM      9  C   UNL     1       0.711   4.442   2.509  0.00  0.00    -0.030 C 
ATOM     10  C   UNL     1       1.476   5.660   2.028  0.00  0.00    +0.033 C 
ATOM     11  C   UNL     1       2.777   5.054   1.425  0.00  0.00    +0.029 C 
ATOM     12  C   UNL     1       2.447   4.590   0.004  0.00  0.00    +0.109 C 
ATOM     13  N   UNL     1       3.529   3.724  -0.479  0.00  0.00    -0.336 N 
ATOM     14  H   UNL     1       3.933   3.872  -1.348  0.00  0.00    +0.147 HD
ENDROOT
BRANCH  12  15
ATOM     15  C   UNL     1       1.151   3.821   0.012  0.00  0.00    +0.017 A 
ATOM     16  C   UNL     1       1.159   2.455   0.222  0.00  0.00    +0.029 A 
ATOM     17  C   UNL     1      -0.029   1.748   0.230  0.00  0.00    +0.043 A 
ATOM     18  C   UNL     1      -1.229   2.405   0.021  0.00  0.00    +0.043 A 
ATOM     19  C   UNL     1      -1.242   3.772  -0.184  0.00  0.00    +0.084 A 
ATOM     20  C   UNL     1      -0.049   4.483  -0.191  0.00  0.00    +0.140 A 
ATOM     21 CL   UNL     1      -2.748   4.598  -0.438  0.00  0.00    -0.080 Cl
ATOM     22 CL   UNL     1      -0.016   0.032   0.494  0.00  0.00    -0.083 Cl
BRANCH  20  23
ATOM     23  O   UNL     1      -0.059   5.827  -0.398  0.00  0.00    -0.505 OA
ATOM     24  H   UNL     1       0.012   6.082  -1.327  0.00  0.00    +0.292 HD
ENDBRANCH  20  23
ENDBRANCH  12  15
BRANCH   1  25
ATOM     25  O   UNL     1       5.257  -0.422   2.737  0.00  0.00    -0.492 OA
BRANCH  25  26
ATOM     26  C   UNL     1       5.972  -1.482   2.099  0.00  0.00    +0.232 C 
BRANCH  26  28
ATOM     27  C   UNL     1       5.104  -3.181   3.712  0.00  0.00    +0.010 C 
ATOM     28  C   UNL     1       6.366  -2.531   3.141  0.00  0.00    +0.020 C 
ATOM     29  C   UNL     1       7.238  -3.602   2.482  0.00  0.00    +0.010 C 
ENDBRANCH  26  28
ENDBRANCH  25  26
ENDBRANCH   1  25
TORSDOF 5
