REMARK  Name = ZINC12635684
REMARK  12 active torsions:
REMARK  status: ('A' for Active; 'I' for Inactive)
REMARK    1  A    between atoms: C_1  and  C_2
REMARK    2  A    between atoms: C_2  and  N_67
REMARK    3  A    between atoms: C_6  and  C_8
REMARK    4  A    between atoms: C_8  and  N_9
REMARK    5  A    between atoms: N_9  and  C_10
REMARK    6  A    between atoms: N_9  and  C_25
REMARK    7  A    between atoms: C_10  and  C_11
REMARK    8  A    between atoms: C_16  and  C_24
REMARK    9  A    between atoms: C_17  and  C_23
REMARK   10  A    between atoms: C_25  and  N_27
REMARK   11  A    between atoms: N_27  and  C_28
REMARK   12  A    between atoms: C_28  and  C_29
REMARK                            x       y       z     vdW  Elec       q    Type
REMARK                         _______ _______ _______ _____ _____    ______ ____
ROOT
ATOM      1  N   UNL     1      -2.277  -0.093  -0.265  0.00  0.00    -0.310 N 
ENDROOT
BRANCH   1   2
ATOM      2  C   UNL     1      -2.916  -0.609  -1.335  0.00  0.00    +0.133 C 
ATOM      3  S   UNL     1      -4.078   0.330  -2.171  0.00  0.00    -0.019 S 
BRANCH   2   4
ATOM      4  N   UNL     1      -2.640  -1.862  -1.745  0.00  0.00    -0.322 N 
ATOM      5  H   UNL     1      -1.982  -2.394  -1.271  0.00  0.00    +0.148 HD
BRANCH   4   6
ATOM      6  C   UNL     1      -3.334  -2.422  -2.907  0.00  0.00    +0.138 C 
BRANCH   6   7
ATOM      7  C   UNL     1      -2.847  -3.827  -3.155  0.00  0.00    -0.030 A 
ATOM      8  C   UNL     1      -1.768  -4.047  -3.990  0.00  0.00    +0.005 A 
ATOM      9  C   UNL     1      -1.319  -5.335  -4.214  0.00  0.00    +0.000 A 
ATOM     10  C   UNL     1      -1.954  -6.404  -3.609  0.00  0.00    +0.000 A 
ATOM     11  C   UNL     1      -3.037  -6.183  -2.777  0.00  0.00    +0.000 A 
ATOM     12  C   UNL     1      -3.483  -4.895  -2.551  0.00  0.00    +0.005 A 
ENDBRANCH   6   7
ENDBRANCH   4   6
ENDBRANCH   2   4
ENDBRANCH   1   2
BRANCH   1  13
ATOM     13  C   UNL     1      -1.283  -0.896   0.451  0.00  0.00    +0.092 C 
BRANCH  13  17
ATOM     14  C   UNL     1      -3.343  -3.314   2.340  0.00  0.00    -0.078 C 
ATOM     15  C   UNL     1      -1.919  -3.767   2.726  0.00  0.00    -0.020 C 
ATOM     16  C   UNL     1      -0.996  -2.614   2.281  0.00  0.00    -0.016 C 
ATOM     17  C   UNL     1      -1.941  -1.561   1.662  0.00  0.00    -0.051 C 
ATOM     18  N   UNL     1      -3.112  -2.340   1.267  0.00  0.00    +0.382 N 
ATOM     19  H   UNL     1      -2.926  -2.827   0.383  0.00  0.00    -0.081 HD
BRANCH  18  21
ATOM     20  C   UNL     1      -5.415  -2.198   0.349  0.00  0.00    -0.017 C 
ATOM     21  C   UNL     1      -4.307  -1.454   1.098  0.00  0.00    -0.082 C 
ENDBRANCH  18  21
ENDBRANCH  13  17
ENDBRANCH   1  13
BRANCH   1  22
ATOM     22  C   UNL     1      -2.578   1.269   0.181  0.00  0.00    +0.147 C 
BRANCH  22  23
ATOM     23  C   UNL     1      -1.603   2.230  -0.449  0.00  0.00    +0.035 A 
ATOM     24  C   UNL     1      -1.932   2.870  -1.598  0.00  0.00    +0.020 A 
ATOM     25  C   UNL     1      -0.963   3.797  -2.185  0.00  0.00    -0.001 A 
ATOM     26  C   UNL     1      -1.246   4.487  -3.369  0.00  0.00    +0.010 A 
ATOM     27  C   UNL     1      -0.320   5.345  -3.891  0.00  0.00    +0.004 A 
ATOM     28  C   UNL     1       0.900   5.540  -3.256  0.00  0.00    -0.046 A 
ATOM     29  C   UNL     1       1.200   4.871  -2.089  0.00  0.00    -0.024 A 
ATOM     30  C   UNL     1       0.273   3.992  -1.539  0.00  0.00    +0.052 A 
ATOM     31  N   UNL     1       0.546   3.311  -0.372  0.00  0.00    -0.322 N 
ATOM     32  H   UNL     1       1.398   3.446   0.072  0.00  0.00    +0.169 HD
ATOM     33  C   UNL     1      -0.352   2.465   0.162  0.00  0.00    +0.254 A 
ATOM     34  O   UNL     1      -0.079   1.883   1.198  0.00  0.00    -0.268 OA
ATOM     35  C   UNL     1       2.527   5.093  -1.410  0.00  0.00    +0.046 C 
ATOM     36  C   UNL     1       1.906   6.491  -3.850  0.00  0.00    +0.044 C 
ENDBRANCH  22  23
ENDBRANCH   1  22
TORSDOF 9
