REMARK  Name = ZINC39642036
REMARK  15 active torsions:
REMARK  status: ('A' for Active; 'I' for Inactive)
REMARK    1  A    between atoms: C_1  and  C_2
REMARK    2  A    between atoms: C_2  and  C_3
REMARK    3  A    between atoms: C_2  and  C_4
REMARK    4  A    between atoms: C_4  and  C_6
REMARK    5  A    between atoms: C_4  and  N_25
REMARK    6  A    between atoms: C_6  and  O_8
REMARK    7  A    between atoms: O_8  and  C_9
REMARK    8  A    between atoms: C_9  and  C_10
REMARK    9  A    between atoms: C_12  and  O_13
REMARK   10  A    between atoms: C_22  and  C_24
REMARK   11  A    between atoms: C_26  and  C_28
REMARK   12  A    between atoms: C_31  and  C_34
REMARK   13  A    between atoms: C_34  and  C_35
REMARK   14  A    between atoms: C_34  and  C_36
REMARK   15  A    between atoms: C_34  and  C_37
REMARK                            x       y       z     vdW  Elec       q    Type
REMARK                         _______ _______ _______ _____ _____    ______ ____
ROOT
ATOM      1  C   UNL     1      -0.845  -1.342   0.675  0.00  0.00    +0.328 C 
ATOM      2  O   UNL     1      -1.096  -1.702  -0.451  0.00  0.00    -0.249 OA
ENDROOT
BRANCH   1   3
ATOM      3  C   UNL     1      -0.836   0.127   1.011  0.00  0.00    +0.185 C 
BRANCH   3   4
ATOM      4  N   UNL     1      -1.379   0.889  -0.116  0.00  0.00    -0.298 N 
ATOM      5  C   UNL     1      -1.937   2.098   0.094  0.00  0.00    +0.245 C 
ATOM      6  O   UNL     1      -1.990   2.556   1.219  0.00  0.00    -0.270 OA
ATOM      7  H   UNL     1      -1.338   0.524  -1.014  0.00  0.00    +0.150 HD
BRANCH   5   8
ATOM      8  C   UNL     1      -2.485   2.868  -1.044  0.00  0.00    +0.037 A 
ATOM      9  C   UNL     1      -2.432   2.342  -2.336  0.00  0.00    +0.013 A 
ATOM     10  C   UNL     1      -2.945   3.065  -3.393  0.00  0.00    +0.005 A 
ATOM     11  C   UNL     1      -3.512   4.308  -3.174  0.00  0.00    -0.042 A 
ATOM     12  C   UNL     1      -3.568   4.835  -1.896  0.00  0.00    +0.005 A 
ATOM     13  C   UNL     1      -3.063   4.120  -0.829  0.00  0.00    +0.013 A 
BRANCH  11  14
ATOM     14  C   UNL     1      -4.071   5.092  -4.334  0.00  0.00    -0.013 C 
ATOM     15  C   UNL     1      -5.187   4.287  -5.003  0.00  0.00    +0.015 C 
ATOM     16  C   UNL     1      -4.634   6.421  -3.826  0.00  0.00    +0.015 C 
ATOM     17  C   UNL     1      -2.959   5.364  -5.349  0.00  0.00    +0.015 C 
ENDBRANCH  11  14
ENDBRANCH   5   8
ENDBRANCH   3   4
BRANCH   3  19
ATOM     18  C   UNL     1       0.599   2.049   1.711  0.00  0.00    +0.009 C 
ATOM     19  C   UNL     1       0.599   0.579   1.287  0.00  0.00    +0.014 C 
ATOM     20  C   UNL     1       1.195  -0.275   2.408  0.00  0.00    +0.009 C 
ENDBRANCH   3  19
ENDBRANCH   1   3
BRANCH   1  21
ATOM     21  O   UNL     1      -0.575  -2.249   1.626  0.00  0.00    -0.459 OA
BRANCH  21  22
ATOM     22  C   UNL     1      -0.710  -3.626   1.266  0.00  0.00    +0.268 C 
BRANCH  22  23
ATOM     23  C   UNL     1      -0.487  -4.487   2.483  0.00  0.00    +0.007 A 
ATOM     24  C   UNL     1      -1.346  -4.421   3.561  0.00  0.00    +0.095 A 
ATOM     25  C   UNL     1      -1.125  -5.221   4.673  0.00  0.00    +0.285 A 
ATOM     26  O   UNL     1      -0.089  -6.066   4.727  0.00  0.00    -0.425 OA
ATOM     27  C   UNL     1       0.781  -6.171   3.701  0.00  0.00    +0.141 A 
ATOM     28  C   UNL     1       0.601  -5.383   2.542  0.00  0.00    +0.024 A 
ATOM     29  C   UNL     1       1.503  -5.494   1.468  0.00  0.00    +0.014 A 
ATOM     30  C   UNL     1       2.545  -6.362   1.545  0.00  0.00    +0.024 A 
ATOM     31  C   UNL     1       2.728  -7.154   2.692  0.00  0.00    +0.037 A 
ATOM     32  C   UNL     1       1.848  -7.048   3.770  0.00  0.00    +0.070 A 
ATOM     33  N   UNL     1       3.776  -8.021   2.756  0.00  0.00    -0.286 N 
ATOM     34  C   UNL     1       3.792  -8.970   3.671  0.00  0.00    +0.214 C 
ATOM     35  O   UNL     1       2.814  -9.155   4.374  0.00  0.00    -0.276 OA
ATOM     36  C   UNL     1       5.020  -9.825   3.849  0.00  0.00    +0.109 C 
ATOM     37  H   UNL     1       4.511  -7.941   2.128  0.00  0.00    +0.155 HD
BRANCH  25  38
ATOM     38  O   UNL     1      -1.970  -5.147   5.718  0.00  0.00    -0.480 OA
ATOM     39  H   UNL     1      -1.744  -5.737   6.450  0.00  0.00    +0.295 HD
ENDBRANCH  25  38
ENDBRANCH  22  23
ENDBRANCH  21  22
ENDBRANCH   1  21
TORSDOF 9
