REMARK  Name = ZINC39502177
REMARK  8 active torsions:
REMARK  status: ('A' for Active; 'I' for Inactive)
REMARK    1  A    between atoms: C_1  and  C_2
REMARK    2  A    between atoms: C_4  and  C_12
REMARK    3  A    between atoms: C_12  and  C_14
REMARK    4  A    between atoms: C_14  and  S_15
REMARK    5  A    between atoms: S_15  and  C_16
REMARK    6  A    between atoms: N_21  and  C_22
REMARK    7  A    between atoms: C_25  and  O_28
REMARK    8  A    between atoms: O_28  and  C_29
REMARK                            x       y       z     vdW  Elec       q    Type
REMARK                         _______ _______ _______ _____ _____    ______ ____
ROOT
ATOM      1  S   UNL     1      -5.185   0.178  -1.639  0.00  0.00    -0.089 S 
ENDROOT
BRANCH   1   2
ATOM      2  C   UNL     1      -6.609  -0.835  -1.419  0.00  0.00    +0.160 A 
ATOM      3  N   UNL     1      -6.858  -1.738  -0.489  0.00  0.00    -0.133 NA
ATOM      4  N   UNL     1      -8.050  -2.424  -0.503  0.00  0.00    -0.125 NA
ATOM      5  C   UNL     1      -8.939  -2.176  -1.445  0.00  0.00    +0.187 A 
ATOM      6  S   UNL     1      -8.107  -0.910  -2.390  0.00  0.00    -0.024 S 
ATOM      7  N   UNL     1     -10.192  -2.745  -1.646  0.00  0.00    -0.292 N 
ATOM      8  H   UNL     1     -10.704  -2.523  -2.440  0.00  0.00    +0.154 HD
BRANCH   7   9
ATOM      9  C   UNL     1     -10.714  -3.638  -0.704  0.00  0.00    +0.033 A 
ATOM     10  C   UNL     1     -11.635  -4.601  -1.095  0.00  0.00    +0.027 A 
ATOM     11  C   UNL     1     -12.150  -5.481  -0.164  0.00  0.00    +0.047 A 
ATOM     12  C   UNL     1     -11.748  -5.404   1.161  0.00  0.00    +0.120 A 
ATOM     13  C   UNL     1     -10.828  -4.442   1.553  0.00  0.00    +0.047 A 
ATOM     14  C   UNL     1     -10.307  -3.565   0.622  0.00  0.00    +0.027 A 
BRANCH  12  15
ATOM     15  O   UNL     1     -12.256  -6.271   2.078  0.00  0.00    -0.495 OA
ATOM     16  C   UNL     1     -11.798  -6.135   3.424  0.00  0.00    +0.277 C 
ENDBRANCH  12  15
ENDBRANCH   7   9
ENDBRANCH   1   2
BRANCH   1  17
ATOM     17  C   UNL     1      -4.088  -0.304  -0.277  0.00  0.00    +0.155 C 
BRANCH  17  18
ATOM     18  C   UNL     1      -2.815   0.498  -0.348  0.00  0.00    +0.172 C 
ATOM     19  O   UNL     1      -2.662   1.316  -1.233  0.00  0.00    -0.291 OA
BRANCH  18  22
ATOM     20  C   UNL     1      -0.682   2.513   0.883  0.00  0.00    +0.035 C 
ATOM     21  C   UNL     1      -0.467   1.009   0.695  0.00  0.00    +0.111 C 
ATOM     22  C   UNL     1      -1.801   0.299   0.612  0.00  0.00    +0.027 C 
ATOM     23  C   UNL     1      -1.817  -0.586   1.675  0.00  0.00    +0.006 A 
ATOM     24  C   UNL     1      -2.774  -1.521   2.134  0.00  0.00    +0.010 A 
ATOM     25  C   UNL     1      -2.522  -2.274   3.228  0.00  0.00    +0.001 A 
ATOM     26  C   UNL     1      -1.323  -2.171   3.953  0.00  0.00    +0.002 A 
ATOM     27  C   UNL     1      -0.345  -1.310   3.599  0.00  0.00    +0.026 A 
ATOM     28  C   UNL     1      -0.540  -0.453   2.418  0.00  0.00    +0.043 A 
ATOM     29  N   UNL     1       0.221   0.449   1.862  0.00  0.00    -0.377 N 
ATOM     30  H   UNL     1       1.103   0.708   2.171  0.00  0.00    +0.160 HD
ENDBRANCH  18  22
ENDBRANCH  17  18
ENDBRANCH   1  17
TORSDOF 6
