REMARK  Name = ZINC03841457
REMARK  8 active torsions:
REMARK  status: ('A' for Active; 'I' for Inactive)
REMARK    1  A    between atoms: C_1  and  C_2
REMARK    2  A    between atoms: C_2  and  C_3
REMARK    3  A    between atoms: C_3  and  S_4
REMARK    4  A    between atoms: S_4  and  N_7
REMARK    5  A    between atoms: N_7  and  C_8
REMARK    6  A    between atoms: C_23  and  C_24
REMARK    7  A    between atoms: C_23  and  N_62
REMARK    8  A    between atoms: N_26  and  C_33
REMARK                            x       y       z     vdW  Elec       q    Type
REMARK                         _______ _______ _______ _____ _____    ______ ____
ROOT
ATOM      1  C   UNL     1       2.483   0.115  -3.911  0.00  0.00    +0.112 A 
ATOM      2  C   UNL     1       1.677   1.142  -4.322  0.00  0.00    +0.031 A 
ATOM      3  C   UNL     1       2.179   2.448  -4.291  0.00  0.00    +0.023 A 
ATOM      4  C   UNL     1       3.448   2.692  -3.871  0.00  0.00    +0.023 A 
ATOM      5  N   UNL     1       4.275   1.671  -3.537  0.00  0.00    -0.310 N 
ATOM      6  C   UNL     1       3.797   0.403  -3.494  0.00  0.00    +0.274 A 
ATOM      7  O   UNL     1       4.513  -0.499  -3.090  0.00  0.00    -0.266 OA
ATOM      8  C   UNL     1       5.693   1.855  -3.225  0.00  0.00    +0.127 C 
ATOM      9  C   UNL     1       6.028   3.297  -2.884  0.00  0.00    -0.007 C 
ATOM     10  C   UNL     1       5.387   4.217  -3.927  0.00  0.00    +0.011 C 
ATOM     11  C   UNL     1       3.877   4.138  -3.763  0.00  0.00    +0.020 C 
ATOM     12  C   UNL     1       3.510   4.599  -2.345  0.00  0.00    -0.069 C 
ATOM     13  C   UNL     1       5.573   3.669  -1.481  0.00  0.00    -0.073 C 
ATOM     14  N   UNL     1       4.100   3.637  -1.386  0.00  0.00    +0.383 N 
ATOM     15  H   UNL     1       3.771   2.692  -1.617  0.00  0.00    -0.081 HD
ENDROOT
BRANCH   1  16
ATOM     16  N   UNL     1       2.008  -1.202  -3.906  0.00  0.00    -0.215 N 
ATOM     17  H   UNL     1       2.585  -1.925  -3.613  0.00  0.00    +0.173 HD
BRANCH  16  18
ATOM     18  S   UNL     1       0.461  -1.527  -4.399  0.00  0.00    +0.043 S 
ATOM     19  O   UNL     1       0.317  -2.932  -4.242  0.00  0.00    -0.155 OA
ATOM     20  O   UNL     1      -0.352  -0.628  -3.658  0.00  0.00    -0.155 OA
BRANCH  18  21
ATOM     21  C   UNL     1       0.431  -1.089  -6.159  0.00  0.00    +0.188 C 
BRANCH  21  23
ATOM     22  C   UNL     1      -0.990  -0.981  -8.211  0.00  0.00    +0.005 C 
ATOM     23  C   UNL     1      -0.965  -1.351  -6.727  0.00  0.00    +0.021 C 
ENDBRANCH  21  23
ENDBRANCH  18  21
ENDBRANCH  16  18
ENDBRANCH   1  16
BRANCH  14  24
ATOM     24  C   UNL     1       3.676   3.969  -0.011  0.00  0.00    -0.041 C 
BRANCH  24  25
ATOM     25  C   UNL     1       2.186   4.197   0.004  0.00  0.00    -0.039 A 
ATOM     26  C   UNL     1       1.560   5.385   0.016  0.00  0.00    +0.088 A 
ATOM     27  N   UNL     1       0.205   5.198   0.028  0.00  0.00    -0.349 N 
ATOM     28  C   UNL     1      -0.082   3.852   0.024  0.00  0.00    +0.049 A 
ATOM     29  C   UNL     1       1.147   3.166   0.008  0.00  0.00    +0.001 A 
ATOM     30  C   UNL     1       1.165   1.770   0.000  0.00  0.00    +0.010 A 
ATOM     31  C   UNL     1      -0.013   1.076   0.008  0.00  0.00    +0.001 A 
ATOM     32  C   UNL     1      -1.227   1.748   0.017  0.00  0.00    +0.002 A 
ATOM     33  C   UNL     1      -1.268   3.125   0.031  0.00  0.00    +0.026 A 
ATOM     34  C   UNL     1      -0.792   6.271   0.043  0.00  0.00    +0.149 C 
ENDBRANCH  24  25
ENDBRANCH  14  24
TORSDOF 6
