REMARK  Name = ZINC39850542
REMARK  6 active torsions:
REMARK  status: ('A' for Active; 'I' for Inactive)
REMARK    1  A    between atoms: C_1  and  C_2
REMARK    2  A    between atoms: C_5  and  C_13
REMARK    3  A    between atoms: C_6  and  C_7
REMARK    4  A    between atoms: C_6  and  C_8
REMARK    5  A    between atoms: N_11  and  O_12
REMARK    6  A    between atoms: N_15  and  C_16
REMARK                            x       y       z     vdW  Elec       q    Type
REMARK                         _______ _______ _______ _____ _____    ______ ____
ROOT
ATOM      1  C   UNL     1      -0.033   1.526   0.019  0.00  0.00    +0.018 C 
ATOM      2  C   UNL     1      -0.011  -0.004   0.010  0.00  0.00    +0.015 C 
ATOM      3  C   UNL     1      -1.402  -0.705   0.081  0.00  0.00    +0.014 C 
ATOM      4  C   UNL     1      -1.092  -2.138   0.570  0.00  0.00    +0.018 C 
ATOM      5  C   UNL     1       0.459  -2.165   0.738  0.00  0.00    +0.058 C 
ATOM      6  C   UNL     1       0.724  -0.692   1.213  0.00  0.00    -0.010 C 
ATOM      7  C   UNL     1       0.046  -0.389   2.551  0.00  0.00    +0.013 C 
ATOM      8  C   UNL     1       2.216  -0.358   1.244  0.00  0.00    +0.013 C 
ATOM      9  C   UNL     1       1.006  -2.088  -0.720  0.00  0.00    +0.071 C 
ATOM     10  C   UNL     1       0.709  -0.656  -1.179  0.00  0.00    +0.065 C 
ATOM     11  N   UNL     1       0.981  -0.122  -2.309  0.00  0.00    -0.096 NA
ENDROOT
BRANCH   5  12
ATOM     12  C   UNL     1       1.011  -3.261   1.612  0.00  0.00    +0.224 C 
ATOM     13  O   UNL     1       1.636  -2.982   2.614  0.00  0.00    -0.275 OA
ATOM     14  N   UNL     1       0.811  -4.553   1.282  0.00  0.00    -0.285 N 
ATOM     15  H   UNL     1       0.256  -4.777   0.519  0.00  0.00    +0.155 HD
BRANCH  14  16
ATOM     16  C   UNL     1       1.405  -5.569   2.039  0.00  0.00    +0.033 A 
ATOM     17  C   UNL     1       1.852  -6.728   1.418  0.00  0.00    +0.024 A 
ATOM     18  C   UNL     1       2.438  -7.729   2.167  0.00  0.00    +0.017 A 
ATOM     19  C   UNL     1       2.581  -7.578   3.535  0.00  0.00    +0.018 A 
ATOM     20  C   UNL     1       2.137  -6.424   4.156  0.00  0.00    +0.017 A 
ATOM     21  C   UNL     1       1.554  -5.418   3.411  0.00  0.00    +0.024 A 
ATOM     22 BR   UNL     1       3.383  -8.951   4.558  0.00  0.00    -0.050 Br
ENDBRANCH  14  16
ENDBRANCH   5  12
BRANCH  11  23
ATOM     23  O   UNL     1       1.657  -0.872  -3.303  0.00  0.00    -0.409 OA
ATOM     24  H   UNL     1       1.818  -0.384  -4.122  0.00  0.00    +0.328 HD
ENDBRANCH  11  23
TORSDOF 3
