REMARK  Name = ZINC65962972
REMARK  8 active torsions:
REMARK  status: ('A' for Active; 'I' for Inactive)
REMARK    1  A    between atoms: C_1  and  N_2
REMARK    2  A    between atoms: N_2  and  C_3
REMARK    3  A    between atoms: C_3  and  C_4
REMARK    4  A    between atoms: C_7  and  O_10
REMARK    5  A    between atoms: C_11  and  C_13
REMARK    6  A    between atoms: C_13  and  N_14
REMARK    7  A    between atoms: C_17  and  N_20
REMARK    8  A    between atoms: C_21  and  C_23
REMARK                            x       y       z     vdW  Elec       q    Type
REMARK                         _______ _______ _______ _____ _____    ______ ____
ROOT
ATOM      1  N   UNL     1      -0.020  -0.860  -3.591  0.00  0.00    +0.386 N 
ATOM      2  C   UNL     1       1.241  -1.611  -3.593  0.00  0.00    -0.076 C 
ATOM      3  C   UNL     1       1.215  -2.656  -4.710  0.00  0.00    +0.003 C 
ATOM      4  C   UNL     1       1.038  -1.951  -6.058  0.00  0.00    +0.069 C 
ATOM      5  C   UNL     1      -0.243  -1.112  -6.019  0.00  0.00    +0.003 C 
ATOM      6  C   UNL     1      -0.163  -0.123  -4.853  0.00  0.00    -0.076 C 
ATOM      7  H   UNL     1      -0.792  -1.502  -3.489  0.00  0.00    -0.081 HD
ENDROOT
BRANCH   4   8
ATOM      8  N   UNL     1       0.936  -2.950  -7.124  0.00  0.00    -0.312 N 
ATOM      9  C   UNL     1       1.275  -2.625  -8.387  0.00  0.00    +0.216 C 
ATOM     10  O   UNL     1       1.664  -1.505  -8.641  0.00  0.00    -0.276 OA
ATOM     11  H   UNL     1       0.625  -3.846  -6.921  0.00  0.00    +0.149 HD
BRANCH   9  12
ATOM     12  C   UNL     1       1.171  -3.653  -9.484  0.00  0.00    +0.075 C 
ATOM     13  C   UNL     1       2.073  -4.844  -9.154  0.00  0.00    +0.013 C 
ATOM     14  C   UNL     1       1.967  -5.888 -10.268  0.00  0.00    +0.001 C 
ATOM     15  C   UNL     1       2.408  -5.266 -11.594  0.00  0.00    +0.000 C 
ATOM     16  C   UNL     1       1.506  -4.075 -11.924  0.00  0.00    +0.001 C 
ATOM     17  C   UNL     1       1.612  -3.031 -10.810  0.00  0.00    +0.013 C 
ENDBRANCH   9  12
ENDBRANCH   4   8
BRANCH   1  18
ATOM     18  C   UNL     1      -0.023   0.089  -2.470  0.00  0.00    +0.019 C 
BRANCH  18  21
ATOM     19  C   UNL     1      -0.018   1.461   0.010  0.00  0.00    +0.132 C 
ATOM     20  N   UNL     1       0.002  -0.004   0.002  0.00  0.00    -0.302 N 
ATOM     21  C   UNL     1       0.000  -0.672  -1.169  0.00  0.00    +0.199 C 
ATOM     22  O   UNL     1       0.017  -1.884  -1.175  0.00  0.00    -0.278 OA
BRANCH  20  23
ATOM     23  C   UNL     1       0.024  -0.743   1.267  0.00  0.00    +0.142 C 
BRANCH  23  24
ATOM     24  C   UNL     1      -1.389  -1.016   1.714  0.00  0.00    -0.030 A 
ATOM     25  C   UNL     1      -2.046  -0.104   2.519  0.00  0.00    +0.009 A 
ATOM     26  C   UNL     1      -3.342  -0.352   2.930  0.00  0.00    +0.046 A 
ATOM     27  C   UNL     1      -3.983  -1.517   2.535  0.00  0.00    +0.117 A 
ATOM     28  C   UNL     1      -3.321  -2.430   1.727  0.00  0.00    +0.046 A 
ATOM     29  C   UNL     1      -2.028  -2.175   1.314  0.00  0.00    +0.009 A 
BRANCH  27  30
ATOM     30  O   UNL     1      -5.257  -1.764   2.939  0.00  0.00    -0.507 OA
ATOM     31  H   UNL     1      -5.933  -1.422   2.338  0.00  0.00    +0.292 HD
ENDBRANCH  27  30
ENDBRANCH  23  24
ENDBRANCH  20  23
ENDBRANCH  18  21
ENDBRANCH   1  18
TORSDOF 7
