REMARK  Name = ZINC36821092
REMARK  9 active torsions:
REMARK  status: ('A' for Active; 'I' for Inactive)
REMARK    1  A    between atoms: C_1  and  C_2
REMARK    2  A    between atoms: C_3  and  C_30
REMARK    3  A    between atoms: N_9  and  C_27
REMARK    4  A    between atoms: C_10  and  S_12
REMARK    5  A    between atoms: S_12  and  C_13
REMARK    6  A    between atoms: C_13  and  C_15
REMARK    7  A    between atoms: C_13  and  C_16
REMARK    8  A    between atoms: C_27  and  C_28
REMARK    9  A    between atoms: C_27  and  C_29
REMARK                            x       y       z     vdW  Elec       q    Type
REMARK                         _______ _______ _______ _____ _____    ______ ____
ROOT
ATOM      1  C   UNL     1      -0.035   1.489  -0.010  0.00  0.00    +0.045 C 
ATOM      2  C   UNL     1      -0.025  -0.018  -0.014  0.00  0.00    -0.026 A 
ATOM      3  C   UNL     1      -0.041  -0.694  -1.172  0.00  0.00    -0.008 A 
ATOM      4  S   UNL     1      -0.020  -2.400  -0.657  0.00  0.00    -0.073 S 
ATOM      5  C   UNL     1       0.010  -2.157   1.100  0.00  0.00    +0.117 A 
ATOM      6  C   UNL     1       0.009  -0.756   1.237  0.00  0.00    +0.075 A 
ATOM      7  C   UNL     1       0.037  -0.262   2.579  0.00  0.00    +0.263 A 
ATOM      8  O   UNL     1       0.033   0.938   2.796  0.00  0.00    -0.267 OA
ATOM      9  N   UNL     1       0.066  -1.138   3.600  0.00  0.00    -0.285 N 
ATOM     10  C   UNL     1       0.070  -2.484   3.377  0.00  0.00    +0.174 A 
ATOM     11  N   UNL     1       0.035  -2.967   2.151  0.00  0.00    -0.216 NA
ATOM     12  C   UNL     1      -0.071  -0.142  -2.575  0.00  0.00    +0.052 C 
ENDROOT
BRANCH   9  13
ATOM     13  C   UNL     1       0.094  -0.637   4.976  0.00  0.00    +0.087 C 
ATOM     14  C   UNL     1       1.343   0.223   5.181  0.00  0.00    +0.031 C 
ATOM     15  C   UNL     1      -1.155   0.207   5.238  0.00  0.00    +0.031 C 
ENDBRANCH   9  13
BRANCH  10  16
ATOM     16  S   UNL     1       0.109  -3.592   4.747  0.00  0.00    -0.075 S 
BRANCH  16  17
ATOM     17  C   UNL     1       0.102  -5.237   3.981  0.00  0.00    +0.137 C 
ATOM     18  C   UNL     1      -1.221  -5.451   3.244  0.00  0.00    +0.029 C 
BRANCH  17  19
ATOM     19  C   UNL     1       0.258  -6.288   5.049  0.00  0.00    +0.233 C 
ATOM     20  O   UNL     1      -0.009  -6.025   6.203  0.00  0.00    -0.274 OA
ATOM     21  N   UNL     1       0.693  -7.522   4.723  0.00  0.00    -0.270 N 
ATOM     22  C   UNL     1       1.156  -7.924   3.392  0.00  0.00    +0.118 C 
ATOM     23  C   UNL     1       1.540  -9.406   3.530  0.00  0.00    +0.056 C 
ATOM     24  C   UNL     1       1.255  -9.741   4.976  0.00  0.00    -0.024 A 
ATOM     25  C   UNL     1       0.774  -8.603   5.606  0.00  0.00    +0.040 A 
ATOM     26  C   UNL     1       0.443  -8.666   6.960  0.00  0.00    +0.024 A 
ATOM     27  C   UNL     1       0.599  -9.844   7.660  0.00  0.00    +0.002 A 
ATOM     28  C   UNL     1       1.083 -10.972   7.024  0.00  0.00    +0.000 A 
ATOM     29  C   UNL     1       1.404 -10.920   5.680  0.00  0.00    +0.005 A 
ENDBRANCH  17  19
ENDBRANCH  16  17
ENDBRANCH  10  16
TORSDOF 4
