REMARK  Name = ZINC37906104
REMARK  4 active torsions:
REMARK  status: ('A' for Active; 'I' for Inactive)
REMARK    1  A    between atoms: C_1  and  N_2
REMARK    2  A    between atoms: C_6  and  C_7
REMARK    3  A    between atoms: C_7  and  N_8
REMARK    4  A    between atoms: C_17  and  N_18
REMARK                            x       y       z     vdW  Elec       q    Type
REMARK                         _______ _______ _______ _____ _____    ______ ____
ROOT
ATOM      1  N   UNL     1      -1.348  -0.226   3.000  0.00  0.00    -0.322 N 
ATOM      2  C   UNL     1      -2.072   1.044   2.855  0.00  0.00    +0.106 C 
ATOM      3  C   UNL     1      -2.790   1.329   4.181  0.00  0.00    +0.024 C 
ATOM      4  C   UNL     1      -3.819   0.226   4.431  0.00  0.00    +0.040 C 
ATOM      5  C   UNL     1      -3.180  -1.131   4.298  0.00  0.00    -0.006 A 
ATOM      6  C   UNL     1      -1.998  -1.311   3.598  0.00  0.00    +0.035 A 
ATOM      7  C   UNL     1      -1.438  -2.580   3.486  0.00  0.00    +0.023 A 
ATOM      8  C   UNL     1      -2.059  -3.667   4.070  0.00  0.00    +0.004 A 
ATOM      9  C   UNL     1      -3.239  -3.495   4.768  0.00  0.00    +0.023 A 
ATOM     10  C   UNL     1      -3.799  -2.227   4.891  0.00  0.00    +0.030 A 
ENDROOT
BRANCH  10  11
ATOM     11  N   UNL     1      -4.992  -2.056   5.596  0.00  0.00    -0.358 N 
ATOM     12  H   UNL     1      -5.388  -1.174   5.673  0.00  0.00    +0.142 HD
ATOM     13  H   UNL     1      -5.425  -2.820   6.010  0.00  0.00    +0.142 HD
ENDBRANCH  10  11
BRANCH   1  14
ATOM     14  C   UNL     1       0.031  -0.355   2.522  0.00  0.00    +0.179 C 
BRANCH  14  20
ATOM     15  C   UNL     1      -0.018   1.461   0.010  0.00  0.00    +0.151 C 
ATOM     16  N   UNL     1       0.002  -0.004   0.002  0.00  0.00    -0.321 N 
ATOM     17  C   UNL     1       0.009  -0.810  -1.104  0.00  0.00    +0.129 A 
ATOM     18  C   UNL     1       0.028  -2.082  -0.659  0.00  0.00    +0.151 A 
ATOM     19  N   UNL     1       0.033  -2.053   0.682  0.00  0.00    -0.237 NA
ATOM     20  C   UNL     1       0.023  -0.812   1.085  0.00  0.00    +0.128 A 
ATOM     21 CL   UNL     1      -0.006  -0.294  -2.761  0.00  0.00    -0.062 Cl
ENDBRANCH  14  20
ENDBRANCH   1  14
TORSDOF 3
