REMARK  Name = ZINC08671521
REMARK  8 active torsions:
REMARK  status: ('A' for Active; 'I' for Inactive)
REMARK    1  A    between atoms: C_1  and  C_2
REMARK    2  A    between atoms: C_5  and  N_8
REMARK    3  A    between atoms: C_9  and  C_11
REMARK    4  A    between atoms: C_11  and  S_12
REMARK    5  A    between atoms: S_12  and  C_13
REMARK    6  A    between atoms: N_20  and  S_21
REMARK    7  A    between atoms: S_21  and  C_24
REMARK    8  A    between atoms: C_27  and  C_30
REMARK                            x       y       z     vdW  Elec       q    Type
REMARK                         _______ _______ _______ _____ _____    ______ ____
ROOT
ATOM      1  C   UNL     1       0.593  -8.709   2.636  0.00  0.00    +0.172 A 
ATOM      2  N   UNL     1       0.711  -9.492   3.747  0.00  0.00    -0.318 N 
ATOM      3  C   UNL     1       0.827 -10.863   3.606  0.00  0.00    +0.160 A 
ATOM      4  C   UNL     1       0.818 -11.406   2.303  0.00  0.00    +0.120 A 
ATOM      5  C   UNL     1       0.695 -10.549   1.230  0.00  0.00    +0.276 A 
ATOM      6  N   UNL     1       0.581  -9.231   1.429  0.00  0.00    -0.185 NA
ATOM      7  O   UNL     1       0.684 -11.044  -0.031  0.00  0.00    -0.266 OA
ATOM      8  N   UNL     1       0.943 -11.644   4.661  0.00  0.00    -0.111 NA
ATOM      9  H   UNL     1       0.715  -9.091   4.630  0.00  0.00    +0.169 HD
ENDROOT
BRANCH   8  10
ATOM     10  S   UNL     1       0.951 -10.985   6.180  0.00  0.00    +0.101 S 
ATOM     11  O   UNL     1       2.138 -10.210   6.281  0.00  0.00    -0.146 OA
ATOM     12  O   UNL     1      -0.340 -10.431   6.390  0.00  0.00    -0.146 OA
BRANCH  10  13
ATOM     13  C   UNL     1       1.120 -12.315   7.324  0.00  0.00    +0.113 A 
ATOM     14  C   UNL     1      -0.005 -12.947   7.820  0.00  0.00    +0.029 A 
ATOM     15  C   UNL     1       0.128 -13.990   8.717  0.00  0.00    +0.005 A 
ATOM     16  C   UNL     1       1.385 -14.403   9.117  0.00  0.00    -0.050 A 
ATOM     17  C   UNL     1       2.510 -13.772   8.620  0.00  0.00    +0.005 A 
ATOM     18  C   UNL     1       2.378 -12.731   7.719  0.00  0.00    +0.029 A 
ATOM     19  C   UNL     1       1.529 -15.540  10.095  0.00  0.00    +0.044 C 
ENDBRANCH  10  13
ENDBRANCH   8  10
BRANCH   1  20
ATOM     20  S   UNL     1       0.446  -6.963   2.823  0.00  0.00    -0.078 S 
BRANCH  20  21
ATOM     21  C   UNL     1       0.309  -6.349   1.121  0.00  0.00    +0.173 C 
BRANCH  21  23
ATOM     22  N   UNL     1       0.059  -4.170  -0.021  0.00  0.00    -0.285 N 
ATOM     23  C   UNL     1       0.175  -4.848   1.138  0.00  0.00    +0.227 C 
ATOM     24  O   UNL     1       0.173  -4.251   2.193  0.00  0.00    -0.275 OA
ATOM     25  H   UNL     1      -0.017  -4.651  -0.860  0.00  0.00    +0.155 HD
BRANCH  22  30
ATOM     26  C   UNL     1       0.008   1.503   0.007  0.00  0.00    +0.044 C 
ATOM     27  C   UNL     1       0.022  -0.004  -0.001  0.00  0.00    -0.050 A 
ATOM     28  C   UNL     1       0.777  -0.692   0.931  0.00  0.00    +0.005 A 
ATOM     29  C   UNL     1       0.791  -2.073   0.927  0.00  0.00    +0.023 A 
ATOM     30  C   UNL     1       0.046  -2.771  -0.014  0.00  0.00    +0.033 A 
ATOM     31  C   UNL     1      -0.712  -2.077  -0.948  0.00  0.00    +0.023 A 
ATOM     32  C   UNL     1      -0.726  -0.696  -0.936  0.00  0.00    +0.005 A 
ENDBRANCH  22  30
ENDBRANCH  21  23
ENDBRANCH  20  21
ENDBRANCH   1  20
TORSDOF 6
