REMARK  Name = ZINC05945771
REMARK  9 active torsions:
REMARK  status: ('A' for Active; 'I' for Inactive)
REMARK    1  A    between atoms: C_4  and  O_30
REMARK    2  A    between atoms: C_5  and  C_7
REMARK    3  A    between atoms: N_8  and  N_9
REMARK    4  A    between atoms: C_10  and  C_12
REMARK    5  A    between atoms: C_12  and  N_56
REMARK    6  A    between atoms: C_15  and  C_18
REMARK    7  A    between atoms: N_20  and  N_21
REMARK    8  A    between atoms: C_22  and  C_23
REMARK    9  A    between atoms: C_28  and  O_29
REMARK                            x       y       z     vdW  Elec       q    Type
REMARK                         _______ _______ _______ _____ _____    ______ ____
ROOT
ATOM      1  C   UNL     1      -8.341   2.710  -1.087  0.00  0.00    -0.077 C 
ATOM      2  C   UNL     1      -9.518   3.687  -1.035  0.00  0.00    -0.006 C 
ATOM      3  C   UNL     1     -10.826   2.912  -1.220  0.00  0.00    +0.073 C 
ATOM      4  C   UNL     1     -10.933   1.840  -0.132  0.00  0.00    -0.006 C 
ATOM      5  C   UNL     1      -9.715   0.917  -0.211  0.00  0.00    -0.077 C 
ATOM      6  N   UNL     1      -8.491   1.719  -0.001  0.00  0.00    +0.385 N 
ATOM      7  H   UNL     1      -8.567   2.216   0.894  0.00  0.00    -0.081 HD
ENDROOT
BRANCH   3   8
ATOM      8  C   UNL     1     -11.992   3.860  -1.109  0.00  0.00    +0.235 C 
ATOM      9  O   UNL     1     -12.828   3.695  -0.245  0.00  0.00    -0.274 OA
ATOM     10  N   UNL     1     -12.107   4.891  -1.970  0.00  0.00    -0.207 N 
ATOM     11  H   UNL     1     -11.438   5.023  -2.660  0.00  0.00    +0.177 HD
BRANCH  10  12
ATOM     12  N   UNL     1     -13.191   5.772  -1.867  0.00  0.00    -0.188 NA
ATOM     13  C   UNL     1     -13.301   6.765  -2.696  0.00  0.00    +0.142 C 
BRANCH  13  14
ATOM     14  C   UNL     1     -14.442   7.692  -2.588  0.00  0.00    +0.036 A 
ATOM     15  C   UNL     1     -14.561   8.765  -3.474  0.00  0.00    +0.013 A 
ATOM     16  C   UNL     1     -15.633   9.626  -3.370  0.00  0.00    +0.001 A 
ATOM     17  C   UNL     1     -16.587   9.438  -2.385  0.00  0.00    +0.004 A 
ATOM     18  C   UNL     1     -16.477   8.383  -1.498  0.00  0.00    +0.046 A 
ATOM     19  C   UNL     1     -15.409   7.505  -1.591  0.00  0.00    +0.125 A 
BRANCH  19  20
ATOM     20  O   UNL     1     -15.301   6.468  -0.721  0.00  0.00    -0.506 OA
ATOM     21  H   UNL     1     -14.802   6.678   0.080  0.00  0.00    +0.292 HD
ENDBRANCH  19  20
ENDBRANCH  13  14
ENDBRANCH  10  12
ENDBRANCH   3   8
BRANCH   6  22
ATOM     22  C   UNL     1      -7.308   0.834   0.041  0.00  0.00    +0.020 C 
BRANCH  22  24
ATOM     23  N   UNL     1      -6.462  -0.974   1.502  0.00  0.00    -0.209 N 
ATOM     24  C   UNL     1      -7.376  -0.007   1.290  0.00  0.00    +0.216 C 
ATOM     25  O   UNL     1      -8.254   0.188   2.105  0.00  0.00    -0.276 OA
ATOM     26  H   UNL     1      -5.760  -1.129   0.851  0.00  0.00    +0.177 HD
BRANCH  23  28
ATOM     27  C   UNL     1      -5.644  -2.686   2.868  0.00  0.00    +0.142 C 
ATOM     28  N   UNL     1      -6.525  -1.755   2.664  0.00  0.00    -0.188 NA
BRANCH  27  33
ATOM     29  C   UNL     1      -4.829  -5.273   5.461  0.00  0.00    +0.001 A 
ATOM     30  C   UNL     1      -5.830  -5.051   6.391  0.00  0.00    +0.004 A 
ATOM     31  C   UNL     1      -6.775  -4.065   6.179  0.00  0.00    +0.046 A 
ATOM     32  C   UNL     1      -6.725  -3.290   5.031  0.00  0.00    +0.125 A 
ATOM     33  C   UNL     1      -5.710  -3.508   4.090  0.00  0.00    +0.036 A 
ATOM     34  C   UNL     1      -4.764  -4.511   4.313  0.00  0.00    +0.013 A 
BRANCH  32  35
ATOM     35  O   UNL     1      -7.653  -2.321   4.822  0.00  0.00    -0.506 OA
ATOM     36  H   UNL     1      -7.406  -1.457   5.177  0.00  0.00    +0.292 HD
ENDBRANCH  32  35
ENDBRANCH  27  33
ENDBRANCH  23  28
ENDBRANCH  22  24
ENDBRANCH   6  22
TORSDOF 9
