REMARK  Name = ZINC10233173
REMARK  3 active torsions:
REMARK  status: ('A' for Active; 'I' for Inactive)
REMARK    1  A    between atoms: C_1  and  C_2
REMARK    2  A    between atoms: C_7  and  C_8
REMARK    3  A    between atoms: C_14  and  C_24
REMARK                            x       y       z     vdW  Elec       q    Type
REMARK                         _______ _______ _______ _____ _____    ______ ____
ROOT
ATOM      1  C   UNL     1      -0.013   1.086   0.008  0.00  0.00    +0.044 C 
ATOM      2  C   UNL     1      -0.718   1.572   1.248  0.00  0.00    -0.047 A 
ATOM      3  C   UNL     1       0.001   1.804   2.400  0.00  0.00    +0.019 A 
ATOM      4  C   UNL     1      -0.659   2.254   3.542  0.00  0.00    +0.065 A 
ATOM      5  C   UNL     1      -2.048   2.470   3.523  0.00  0.00    +0.140 A 
ATOM      6  C   UNL     1      -2.753   2.228   2.348  0.00  0.00    +0.050 A 
ATOM      7  C   UNL     1      -2.088   1.789   1.224  0.00  0.00    -0.044 A 
ATOM      8  C   UNL     1      -2.860   1.537  -0.046  0.00  0.00    +0.044 C 
ATOM      9  O   UNL     1      -2.686   2.904   4.626  0.00  0.00    -0.450 OA
ATOM     10  C   UNL     1      -2.067   3.159   5.795  0.00  0.00    +0.199 A 
ATOM     11  C   UNL     1      -0.729   2.987   5.935  0.00  0.00    +0.072 A 
ATOM     12  C   UNL     1       0.068   2.517   4.799  0.00  0.00    +0.199 A 
ATOM     13  O   UNL     1       1.272   2.351   4.888  0.00  0.00    -0.287 OA
ATOM     14  C   UNL     1      -0.371   3.357   7.351  0.00  0.00    +0.151 C 
ATOM     15  N   UNL     1      -1.629   3.753   7.996  0.00  0.00    -0.232 N 
ATOM     16  C   UNL     1      -2.614   3.637   7.089  0.00  0.00    +0.289 C 
ATOM     17  O   UNL     1      -3.784   3.888   7.298  0.00  0.00    -0.266 OA
ATOM     18  C   UNL     1      -1.775   4.174   9.310  0.00  0.00    +0.168 A 
ATOM     19  N   UNL     1      -0.855   4.303  10.246  0.00  0.00    -0.233 NA
ATOM     20  C   UNL     1      -1.165   4.723  11.457  0.00  0.00    +0.120 A 
ATOM     21  C   UNL     1      -2.462   5.012  11.727  0.00  0.00    +0.068 A 
ATOM     22  S   UNL     1      -3.218   4.657  10.147  0.00  0.00    -0.060 S 
ENDROOT
BRANCH  14  23
ATOM     23  C   UNL     1       0.226   2.171   8.062  0.00  0.00    -0.021 A 
ATOM     24  C   UNL     1       1.598   2.067   8.203  0.00  0.00    +0.006 A 
ATOM     25  C   UNL     1       2.146   0.980   8.856  0.00  0.00    +0.002 A 
ATOM     26  C   UNL     1       1.324  -0.006   9.368  0.00  0.00    +0.020 A 
ATOM     27  C   UNL     1      -0.049   0.096   9.227  0.00  0.00    +0.041 A 
ATOM     28  C   UNL     1      -0.597   1.188   8.578  0.00  0.00    +0.025 A 
ATOM     29 CL   UNL     1      -1.083  -1.141   9.871  0.00  0.00    -0.084 Cl
ENDBRANCH  14  23
TORSDOF 1
