REMARK  Name = ZINC63964131
REMARK  9 active torsions:
REMARK  status: ('A' for Active; 'I' for Inactive)
REMARK    1  A    between atoms: C_1  and  C_2
REMARK    2  A    between atoms: C_2  and  C_3
REMARK    3  A    between atoms: C_2  and  C_4
REMARK    4  A    between atoms: C_8  and  N_10
REMARK    5  A    between atoms: C_11  and  C_13
REMARK    6  A    between atoms: C_13  and  C_15
REMARK    7  A    between atoms: C_13  and  N_25
REMARK    8  A    between atoms: C_15  and  C_16
REMARK    9  A    between atoms: C_26  and  C_28
REMARK                            x       y       z     vdW  Elec       q    Type
REMARK                         _______ _______ _______ _____ _____    ______ ____
ROOT
ATOM      1  C   UNL     1       0.100  -4.101   6.142  0.00  0.00    +0.163 C 
ENDROOT
BRANCH   1   2
ATOM      2  N   UNL     1       1.114  -4.876   6.860  0.00  0.00    -0.304 N 
ATOM      3  C   UNL     1       2.011  -4.248   7.646  0.00  0.00    +0.211 C 
ATOM      4  O   UNL     1       1.978  -3.041   7.759  0.00  0.00    -0.276 OA
ATOM      5  C   UNL     1       3.055  -5.046   8.385  0.00  0.00    +0.109 C 
ATOM      6  H   UNL     1       1.141  -5.842   6.770  0.00  0.00    +0.149 HD
ENDBRANCH   1   2
BRANCH   1   8
ATOM      7  N   UNL     1       0.096  -2.598   4.177  0.00  0.00    -0.284 N 
ATOM      8  C   UNL     1       0.777  -3.125   5.214  0.00  0.00    +0.238 C 
ATOM      9  O   UNL     1       1.934  -2.814   5.401  0.00  0.00    -0.273 OA
ATOM     10  H   UNL     1      -0.850  -2.786   4.072  0.00  0.00    +0.155 HD
BRANCH   7  15
ATOM     11  C   UNL     1       0.728   0.078   1.736  0.00  0.00    -0.043 A 
ATOM     12  C   UNL     1       2.054  -0.161   1.423  0.00  0.00    +0.004 A 
ATOM     13  C   UNL     1       2.731  -1.206   2.023  0.00  0.00    +0.002 A 
ATOM     14  C   UNL     1       2.085  -2.016   2.937  0.00  0.00    +0.023 A 
ATOM     15  C   UNL     1       0.754  -1.779   3.253  0.00  0.00    +0.034 A 
ATOM     16  C   UNL     1       0.078  -0.725   2.652  0.00  0.00    +0.027 A 
BRANCH  11  18
ATOM     17  C   UNL     1       0.700   2.536   1.409  0.00  0.00    +0.012 C 
ATOM     18  C   UNL     1      -0.006   1.219   1.080  0.00  0.00    +0.013 C 
ATOM     19  C   UNL     1      -0.020   1.012  -0.436  0.00  0.00    +0.012 C 
ENDBRANCH  11  18
ENDBRANCH   7  15
ENDBRANCH   1   8
BRANCH   1  20
ATOM     20  C   UNL     1      -0.762  -3.334   7.147  0.00  0.00    +0.065 C 
BRANCH  20  21
ATOM     21  C   UNL     1      -1.534  -4.312   7.995  0.00  0.00    -0.039 C 
ATOM     22  C   UNL     1      -1.184  -4.786   9.213  0.00  0.00    -0.001 A 
ATOM     23  C   UNL     1      -0.024  -4.543  10.078  0.00  0.00    +0.010 A 
ATOM     24  C   UNL     1       0.050  -5.179  11.269  0.00  0.00    +0.001 A 
ATOM     25  C   UNL     1      -0.951  -6.062  11.697  0.00  0.00    +0.002 A 
ATOM     26  C   UNL     1      -2.046  -6.336  10.958  0.00  0.00    +0.026 A 
ATOM     27  C   UNL     1      -2.228  -5.723   9.688  0.00  0.00    +0.043 A 
ATOM     28  N   UNL     1      -3.186  -5.824   8.798  0.00  0.00    -0.380 N 
ATOM     29  C   UNL     1      -2.861  -4.957   7.660  0.00  0.00    +0.144 C 
ATOM     30  H   UNL     1      -3.979  -6.376   8.881  0.00  0.00    +0.160 HD
ENDBRANCH  20  21
ENDBRANCH   1  20
TORSDOF 6
