REMARK  Name = ZINC19664807
REMARK  8 active torsions:
REMARK  status: ('A' for Active; 'I' for Inactive)
REMARK    1  A    between atoms: C_1  and  C_2
REMARK    2  A    between atoms: C_2  and  C_3
REMARK    3  A    between atoms: C_2  and  N_4
REMARK    4  A    between atoms: C_12  and  C_14
REMARK    5  A    between atoms: C_14  and  N_15
REMARK    6  A    between atoms: C_16  and  C_18
REMARK    7  A    between atoms: C_18  and  C_19
REMARK    8  A    between atoms: C_19  and  C_20
REMARK                            x       y       z     vdW  Elec       q    Type
REMARK                         _______ _______ _______ _____ _____    ______ ____
ROOT
ATOM      1  C   UNL     1      -1.670   7.149   1.496  0.00  0.00    +0.139 C 
ENDROOT
BRANCH   1  10
ATOM      2  N   UNL     1      -0.730   1.558   1.222  0.00  0.00    -0.327 N 
ATOM      3  C   UNL     1      -0.052   1.097   0.008  0.00  0.00    +0.106 C 
ATOM      4  C   UNL     1      -0.827   1.605  -1.214  0.00  0.00    +0.024 C 
ATOM      5  C   UNL     1      -0.673   3.127  -1.271  0.00  0.00    +0.038 C 
ATOM      6  C   UNL     1      -0.936   3.714   0.093  0.00  0.00    -0.026 A 
ATOM      7  C   UNL     1      -0.946   2.936   1.238  0.00  0.00    +0.033 A 
ATOM      8  C   UNL     1      -1.186   3.538   2.474  0.00  0.00    +0.024 A 
ATOM      9  C   UNL     1      -1.418   4.894   2.556  0.00  0.00    +0.007 A 
ATOM     10  C   UNL     1      -1.413   5.666   1.409  0.00  0.00    -0.030 A 
ATOM     11  C   UNL     1      -1.172   5.077   0.184  0.00  0.00    +0.010 A 
BRANCH   2  13
ATOM     12  C   UNL     1       0.147  -0.402   2.399  0.00  0.00    +0.027 C 
ATOM     13  C   UNL     1      -0.011   1.120   2.425  0.00  0.00    +0.067 C 
ATOM     14  C   UNL     1       1.372   1.776   2.460  0.00  0.00    +0.027 C 
ENDBRANCH   2  13
ENDBRANCH   1  10
BRANCH   1  15
ATOM     15  N   UNL     1      -3.107   7.404   1.367  0.00  0.00    -0.311 N 
ATOM     16  C   UNL     1      -3.574   8.667   1.415  0.00  0.00    +0.214 C 
ATOM     17  O   UNL     1      -2.805   9.593   1.565  0.00  0.00    -0.276 OA
ATOM     18  H   UNL     1      -3.804   6.564   1.230  0.00  0.00    +0.149 HD
BRANCH  16  19
ATOM     19  C   UNL     1      -5.052   8.929   1.282  0.00  0.00    +0.102 C 
BRANCH  19  20
ATOM     20  C   UNL     1      -5.313  10.434   1.370  0.00  0.00    +0.065 C 
BRANCH  20  21
ATOM     21  C   UNL     1      -6.791  10.696   1.237  0.00  0.00    +0.051 A 
ATOM     22  C   UNL     1      -7.458  11.400   2.183  0.00  0.00    +0.071 A 
ATOM     23  S   UNL     1      -9.111  11.385   1.506  0.00  0.00    -0.061 S 
ATOM     24  C   UNL     1      -8.760  10.470   0.072  0.00  0.00    +0.156 A 
ATOM     25  N   UNL     1      -7.465  10.250   0.194  0.00  0.00    -0.230 NA
ATOM     26  N   UNL     1      -9.619  10.078  -0.943  0.00  0.00    -0.338 N 
ATOM     27  H   UNL     1      -9.235   9.495  -1.793  0.00  0.00    +0.144 HD
ATOM     28  H   UNL     1     -10.684  10.349  -0.897  0.00  0.00    +0.144 HD
ENDBRANCH  20  21
ENDBRANCH  19  20
ENDBRANCH  16  19
ENDBRANCH   1  15
TORSDOF 6
