REMARK  Name = ZINC41546015
REMARK  7 active torsions:
REMARK  status: ('A' for Active; 'I' for Inactive)
REMARK    1  A    between atoms: C_1  and  C_2
REMARK    2  A    between atoms: C_2  and  C_4
REMARK    3  A    between atoms: C_2  and  N_12
REMARK    4  A    between atoms: C_8  and  O_10
REMARK    5  A    between atoms: O_10  and  C_11
REMARK    6  A    between atoms: C_13  and  C_15
REMARK    7  A    between atoms: C_15  and  C_26
REMARK                            x       y       z     vdW  Elec       q    Type
REMARK                         _______ _______ _______ _____ _____    ______ ____
ROOT
ATOM      1  N   UNL     1       0.711  -0.489   1.189  0.00  0.00    -0.305 N 
ATOM      2  C   UNL     1       0.051  -0.633   2.355  0.00  0.00    +0.266 C 
ATOM      3  O   UNL     1      -1.129  -0.361   2.423  0.00  0.00    -0.271 OA
ATOM      4  H   UNL     1       1.654  -0.707   1.135  0.00  0.00    +0.149 HD
ENDROOT
BRANCH   2   5
ATOM      5  C   UNL     1       0.780  -1.133   3.576  0.00  0.00    +0.257 C 
ATOM      6  C   UNL     1      -0.205  -1.773   4.522  0.00  0.00    +0.270 C 
ATOM      7  O   UNL     1      -0.715  -1.117   5.406  0.00  0.00    -0.271 OA
ATOM      8  N   UNL     1      -0.517  -3.078   4.381  0.00  0.00    -0.279 N 
ATOM      9  C   UNL     1       0.176  -3.848   3.436  0.00  0.00    +0.076 A 
ATOM     10  C   UNL     1      -0.265  -5.119   3.104  0.00  0.00    +0.027 A 
ATOM     11  C   UNL     1       0.421  -5.861   2.161  0.00  0.00    +0.002 A 
ATOM     12  C   UNL     1       1.546  -5.338   1.549  0.00  0.00    +0.004 A 
ATOM     13  C   UNL     1       1.994  -4.073   1.880  0.00  0.00    +0.047 A 
ATOM     14  C   UNL     1       1.315  -3.326   2.827  0.00  0.00    +0.144 A 
ATOM     15  O   UNL     1       1.764  -2.093   3.184  0.00  0.00    -0.466 OA
ATOM     16  C   UNL     1       1.466   0.043   4.276  0.00  0.00    +0.076 C 
ATOM     17  H   UNL     1      -1.212  -3.478   4.926  0.00  0.00    +0.155 HD
ENDBRANCH   2   5
BRANCH   1  19
ATOM     18  C   UNL     1      -0.019   1.526   0.010  0.00  0.00    +0.033 C 
ATOM     19  C   UNL     1       0.002  -0.004   0.002  0.00  0.00    +0.100 C 
BRANCH  19  20
ATOM     20  C   UNL     1       0.707  -0.490  -1.238  0.00  0.00    -0.024 A 
ATOM     21  C   UNL     1       2.089  -0.510  -1.283  0.00  0.00    +0.005 A 
ATOM     22  C   UNL     1       2.740  -0.956  -2.419  0.00  0.00    +0.004 A 
ATOM     23  C   UNL     1       2.010  -1.381  -3.512  0.00  0.00    +0.045 A 
ATOM     24  C   UNL     1       0.623  -1.362  -3.469  0.00  0.00    +0.120 A 
ATOM     25  C   UNL     1      -0.027  -0.920  -2.326  0.00  0.00    +0.051 A 
BRANCH  24  26
ATOM     26  O   UNL     1      -0.097  -1.780  -4.543  0.00  0.00    -0.495 OA
ATOM     27  C   UNL     1       0.639  -2.226  -5.684  0.00  0.00    +0.277 C 
ENDBRANCH  24  26
ENDBRANCH  19  20
ENDBRANCH   1  19
TORSDOF 4
