REMARK  Name = ZINC20896837
REMARK  7 active torsions:
REMARK  status: ('A' for Active; 'I' for Inactive)
REMARK    1  A    between atoms: C_1  and  N_2
REMARK    2  A    between atoms: C_5  and  C_17
REMARK    3  A    between atoms: C_6  and  C_9
REMARK    4  A    between atoms: C_12  and  O_15
REMARK    5  A    between atoms: O_15  and  C_16
REMARK    6  A    between atoms: N_24  and  C_31
REMARK    7  A    between atoms: C_25  and  N_26
REMARK                            x       y       z     vdW  Elec       q    Type
REMARK                         _______ _______ _______ _____ _____    ______ ____
ROOT
ATOM      1  C   UNL     1       0.817   0.960  -0.466  0.00  0.00    +0.153 C 
ATOM      2  N   UNL     1       0.649  -0.488  -0.327  0.00  0.00    -0.309 N 
ATOM      3  C   UNL     1      -0.610  -1.037  -0.324  0.00  0.00    +0.127 A 
ATOM      4  C   UNL     1      -0.729  -2.421  -0.189  0.00  0.00    +0.092 A 
ATOM      5  C   UNL     1      -2.165  -2.723  -0.219  0.00  0.00    +0.031 A 
ATOM      6  C   UNL     1      -2.807  -1.510  -0.369  0.00  0.00    +0.057 A 
ATOM      7  N   UNL     1      -1.855  -0.510  -0.430  0.00  0.00    -0.340 N 
ATOM      8  H   UNL     1      -2.050   0.434  -0.533  0.00  0.00    +0.167 HD
ATOM      9  C   UNL     1       0.439  -3.201  -0.060  0.00  0.00    +0.284 A 
ATOM     10  O   UNL     1       0.353  -4.543   0.072  0.00  0.00    -0.265 OA
ATOM     11  N   UNL     1       1.621  -2.603  -0.070  0.00  0.00    -0.184 NA
ATOM     12  C   UNL     1       1.728  -1.283  -0.206  0.00  0.00    +0.185 A 
ATOM     13  S   UNL     1       3.287  -0.574  -0.219  0.00  0.00    -0.011 S 
ENDROOT
BRANCH   5  14
ATOM     14  C   UNL     1      -2.797  -4.056  -0.111  0.00  0.00    +0.090 A 
ATOM     15  C   UNL     1      -3.050  -4.834  -1.272  0.00  0.00    +0.262 A 
ATOM     16  O   UNL     1      -2.747  -4.411  -2.373  0.00  0.00    -0.267 OA
ATOM     17  N   UNL     1      -3.627  -6.045  -1.142  0.00  0.00    -0.302 N 
ATOM     18  H   UNL     1      -3.801  -6.580  -1.933  0.00  0.00    +0.171 HD
ATOM     19  C   UNL     1      -3.963  -6.521   0.069  0.00  0.00    +0.162 A 
ATOM     20  S   UNL     1      -4.693  -8.065   0.189  0.00  0.00    -0.013 S 
ATOM     21  N   UNL     1      -3.739  -5.811   1.189  0.00  0.00    -0.310 N 
ATOM     22  C   UNL     1      -3.150  -4.574   1.125  0.00  0.00    +0.133 A 
ATOM     23  C   UNL     1      -4.121  -6.366   2.489  0.00  0.00    +0.153 C 
BRANCH  22  24
ATOM     24  N   UNL     1      -2.915  -3.850   2.280  0.00  0.00    -0.309 N 
ATOM     25  C   UNL     1      -2.230  -4.296   3.377  0.00  0.00    +0.092 A 
ATOM     26  C   UNL     1      -2.212  -3.308   4.292  0.00  0.00    +0.019 A 
ATOM     27  C   UNL     1      -2.909  -2.209   3.745  0.00  0.00    +0.019 A 
ATOM     28  C   UNL     1      -3.324  -2.565   2.514  0.00  0.00    +0.092 A 
ENDBRANCH  22  24
ENDBRANCH   5  14
BRANCH   6  29
ATOM     29  C   UNL     1      -4.267  -1.313  -0.451  0.00  0.00    -0.001 A 
ATOM     30  C   UNL     1      -5.043  -2.152  -1.254  0.00  0.00    +0.013 A 
ATOM     31  C   UNL     1      -6.407  -1.965  -1.327  0.00  0.00    +0.046 A 
ATOM     32  C   UNL     1      -7.009  -0.944  -0.604  0.00  0.00    +0.120 A 
ATOM     33  C   UNL     1      -6.242  -0.107   0.195  0.00  0.00    +0.046 A 
ATOM     34  C   UNL     1      -4.878  -0.291   0.280  0.00  0.00    +0.013 A 
BRANCH  32  35
ATOM     35  O   UNL     1      -8.354  -0.763  -0.680  0.00  0.00    -0.495 OA
ATOM     36  C   UNL     1      -8.909   0.306   0.090  0.00  0.00    +0.277 C 
ENDBRANCH  32  35
ENDBRANCH   6  29
TORSDOF 4
