REMARK  Name = ZINC00975223
REMARK  3 active torsions:
REMARK  status: ('A' for Active; 'I' for Inactive)
REMARK    1  A    between atoms: C_3  and  C_6
REMARK    2  A    between atoms: C_6  and  N_7
REMARK    3  A    between atoms: C_11  and  C_12
REMARK                            x       y       z     vdW  Elec       q    Type
REMARK                         _______ _______ _______ _____ _____    ______ ____
ROOT
ATOM      1  N   UNL     1       3.355   0.806   1.603  0.00  0.00    -0.248 N 
ATOM      2  C   UNL     1       3.934   1.881   2.110  0.00  0.00    +0.259 C 
ATOM      3  O   UNL     1       3.967   2.936   1.503  0.00  0.00    -0.269 OA
ATOM      4  C   UNL     1       4.536   1.738   3.452  0.00  0.00    +0.077 C 
ATOM      5  C   UNL     1       5.185   2.655   4.211  0.00  0.00    +0.028 C 
ATOM      6  S   UNL     1       4.181   0.020   3.796  0.00  0.00    -0.061 S 
ATOM      7  C   UNL     1       3.326  -0.363   2.276  0.00  0.00    +0.121 C 
ATOM      8  S   UNL     1       2.637  -1.852   1.790  0.00  0.00    -0.027 S 
ENDROOT
BRANCH   5   9
ATOM      9  C   UNL     1       5.564   2.330   5.594  0.00  0.00    -0.022 A 
ATOM     10  C   UNL     1       6.384   3.200   6.321  0.00  0.00    +0.009 A 
ATOM     11  C   UNL     1       6.735   2.889   7.617  0.00  0.00    +0.022 A 
ATOM     12  C   UNL     1       6.278   1.719   8.201  0.00  0.00    +0.059 A 
ATOM     13  C   UNL     1       5.465   0.852   7.487  0.00  0.00    +0.060 A 
ATOM     14  C   UNL     1       5.101   1.153   6.191  0.00  0.00    +0.029 A 
ATOM     15 CL   UNL     1       4.898  -0.612   8.228  0.00  0.00    -0.082 Cl
ATOM     16 CL   UNL     1       6.725   1.336   9.834  0.00  0.00    -0.082 Cl
ENDBRANCH   5   9
BRANCH   1  17
ATOM     17  C   UNL     1       2.735   0.884   0.278  0.00  0.00    +0.189 C 
BRANCH  17  20
ATOM     18  C   UNL     1      -0.581   2.462   0.585  0.00  0.00    +0.041 A 
ATOM     19  C   UNL     1       0.821   2.547   0.426  0.00  0.00    +0.046 A 
ATOM     20  C   UNL     1       1.290   1.286   0.422  0.00  0.00    +0.122 A 
ATOM     21  O   UNL     1       0.252   0.447   0.569  0.00  0.00    -0.466 OA
ATOM     22  C   UNL     1      -0.885   1.155   0.668  0.00  0.00    +0.195 A 
ENDBRANCH  17  20
ENDBRANCH   1  17
TORSDOF 3
