REMARK  Name = ZINC50817704
REMARK  7 active torsions:
REMARK  status: ('A' for Active; 'I' for Inactive)
REMARK    1  A    between atoms: C_1  and  C_2
REMARK    2  A    between atoms: C_3  and  C_7
REMARK    3  A    between atoms: C_7  and  N_8
REMARK    4  A    between atoms: N_8  and  C_9
REMARK    5  A    between atoms: N_8  and  C_10
REMARK    6  A    between atoms: C_10  and  C_11
REMARK    7  A    between atoms: C_20  and  N_21
REMARK                            x       y       z     vdW  Elec       q    Type
REMARK                         _______ _______ _______ _____ _____    ______ ____
ROOT
ATOM      1  C   UNL     1      -4.624   0.395  -3.155  0.00  0.00    -0.024 A 
ATOM      2  C   UNL     1      -4.517   1.529  -3.903  0.00  0.00    +0.015 A 
ATOM      3  C   UNL     1      -4.920   1.478  -5.253  0.00  0.00    +0.001 A 
ATOM      4  C   UNL     1      -4.836   2.609  -6.081  0.00  0.00    +0.010 A 
ATOM      5  C   UNL     1      -5.233   2.523  -7.381  0.00  0.00    +0.001 A 
ATOM      6  C   UNL     1      -5.723   1.327  -7.901  0.00  0.00    +0.002 A 
ATOM      7  C   UNL     1      -5.817   0.212  -7.126  0.00  0.00    +0.028 A 
ATOM      8  C   UNL     1      -5.416   0.261  -5.780  0.00  0.00    +0.073 A 
ATOM      9  N   UNL     1      -5.498  -0.820  -4.997  0.00  0.00    -0.232 NA
ATOM     10  C   UNL     1      -5.119  -0.781  -3.736  0.00  0.00    +0.118 A 
ENDROOT
BRANCH  10  11
ATOM     11  N   UNL     1      -5.216  -1.929  -2.963  0.00  0.00    -0.343 N 
ATOM     12  H   UNL     1      -5.014  -1.894  -2.015  0.00  0.00    +0.144 HD
ATOM     13  H   UNL     1      -5.487  -2.766  -3.371  0.00  0.00    +0.144 HD
ENDBRANCH  10  11
BRANCH   1  14
ATOM     14  C   UNL     1      -4.205   0.404  -1.707  0.00  0.00    -0.039 C 
BRANCH  14  15
ATOM     15  N   UNL     1      -2.894  -0.246  -1.573  0.00  0.00    +0.383 N 
ATOM     16  C   UNL     1      -1.877   0.556  -2.266  0.00  0.00    -0.095 C 
ATOM     17  H   UNL     1      -2.932  -1.167  -1.982  0.00  0.00    -0.081 HD
BRANCH  15  18
ATOM     18  C   UNL     1      -2.546  -0.355  -0.150  0.00  0.00    -0.039 C 
BRANCH  18  21
ATOM     19  C   UNL     1      -2.245  -3.453  -0.417  0.00  0.00    +0.086 C 
ATOM     20  C   UNL     1      -1.136  -2.478  -0.119  0.00  0.00    +0.103 A 
ATOM     21  C   UNL     1      -1.270  -1.145  -0.005  0.00  0.00    -0.023 A 
ATOM     22  C   UNL     1       0.014  -0.626   0.277  0.00  0.00    +0.043 A 
ATOM     23  C   UNL     1       0.857  -1.673   0.318  0.00  0.00    +0.195 A 
ATOM     24  O   UNL     1       0.154  -2.793   0.083  0.00  0.00    -0.468 OA
ENDBRANCH  18  21
ENDBRANCH  15  18
ENDBRANCH  14  15
ENDBRANCH   1  14
TORSDOF 5
