REMARK  Name = ZINC13882188
REMARK  3 active torsions:
REMARK  status: ('A' for Active; 'I' for Inactive)
REMARK    1  A    between atoms: C_3  and  N_9
REMARK    2  A    between atoms: C_10  and  C_12
REMARK    3  A    between atoms: C_21  and  N_24
REMARK                            x       y       z     vdW  Elec       q    Type
REMARK                         _______ _______ _______ _____ _____    ______ ____
ROOT
ATOM      1  C   UNL     1       3.743  -0.965   0.176  0.00  0.00    +0.050 C 
ATOM      2  C   UNL     1       4.582  -0.667  -1.068  0.00  0.00    +0.020 C 
ATOM      3  C   UNL     1       5.920  -1.403  -0.969  0.00  0.00    -0.007 C 
ATOM      4  C   UNL     1       6.671  -0.932   0.278  0.00  0.00    +0.007 C 
ATOM      5  C   UNL     1       5.832  -1.230   1.522  0.00  0.00    -0.007 C 
ATOM      6  C   UNL     1       4.494  -0.493   1.423  0.00  0.00    +0.020 C 
ATOM      7  C   UNL     1       5.579  -2.736   1.618  0.00  0.00    +0.034 C 
ATOM      8  C   UNL     1       4.827  -3.207   0.371  0.00  0.00    +0.067 C 
ATOM      9  C   UNL     1       5.667  -2.909  -0.873  0.00  0.00    +0.034 C 
ATOM     10  C   UNL     1       3.490  -2.470   0.272  0.00  0.00    +0.046 C 
ENDROOT
BRANCH   8  11
ATOM     11  N   UNL     1       4.585  -4.649   0.463  0.00  0.00    -0.244 N 
ATOM     12  C   UNL     1       3.729  -5.371  -0.281  0.00  0.00    +0.221 A 
ATOM     13  N   UNL     1       3.806  -6.618   0.106  0.00  0.00    -0.205 NA
ATOM     14  C   UNL     1       4.698  -6.732   1.090  0.00  0.00    +0.242 A 
ATOM     15  N   UNL     1       5.206  -5.553   1.340  0.00  0.00    -0.137 NA
ATOM     16 CL   UNL     1       5.122  -8.206   1.903  0.00  0.00    -0.040 Cl
ENDBRANCH   8  11
BRANCH   1  18
ATOM     17  N   UNL     1       2.402   1.105  -0.015  0.00  0.00    -0.284 N 
ATOM     18  C   UNL     1       2.426  -0.239   0.079  0.00  0.00    +0.223 C 
ATOM     19  O   UNL     1       1.387  -0.865   0.086  0.00  0.00    -0.275 OA
ATOM     20  H   UNL     1       3.345   1.667  -0.096  0.00  0.00    +0.155 HD
BRANCH  17  23
ATOM     21  C   UNL     1      -1.141   1.892  -0.607  0.00  0.00    +0.017 A 
ATOM     22  C   UNL     1       0.064   1.216  -0.608  0.00  0.00    +0.025 A 
ATOM     23  C   UNL     1       1.179   1.786  -0.010  0.00  0.00    +0.048 A 
ATOM     24  C   UNL     1       1.079   3.034   0.592  0.00  0.00    +0.040 A 
ATOM     25  C   UNL     1      -0.129   3.704   0.595  0.00  0.00    +0.032 A 
ATOM     26  C   UNL     1      -1.239   3.132  -0.002  0.00  0.00    +0.019 A 
ATOM     27 BR   UNL     1      -2.892   4.051   0.004  0.00  0.00    -0.050 Br
ATOM     28 BR   UNL     1       2.596   3.815   1.408  0.00  0.00    -0.048 Br
ENDBRANCH  17  23
ENDBRANCH   1  18
TORSDOF 3
