REMARK  Name = ZINC08831509
REMARK  6 active torsions:
REMARK  status: ('A' for Active; 'I' for Inactive)
REMARK    1  A    between atoms: C_6  and  N_7
REMARK    2  A    between atoms: N_7  and  C_8
REMARK    3  A    between atoms: C_8  and  N_10
REMARK    4  A    between atoms: C_11  and  C_13
REMARK    5  A    between atoms: C_14  and  C_15
REMARK    6  A    between atoms: C_18  and  C_20
REMARK                            x       y       z     vdW  Elec       q    Type
REMARK                         _______ _______ _______ _____ _____    ______ ____
ROOT
ATOM      1  N   UNL     1      -1.125  -2.038   0.205  0.00  0.00    -0.264 N 
ATOM      2  C   UNL     1      -2.277  -2.729   0.314  0.00  0.00    +0.242 C 
ATOM      3  O   UNL     1      -3.342  -2.138   0.328  0.00  0.00    -0.270 OA
ATOM      4  H   UNL     1      -0.277  -2.509   0.194  0.00  0.00    +0.157 HD
ENDROOT
BRANCH   1   5
ATOM      5  C   UNL     1      -1.150  -0.694   0.111  0.00  0.00    +0.141 C 
ATOM      6  S   UNL     1      -2.647   0.137   0.130  0.00  0.00    -0.018 S 
BRANCH   5   7
ATOM      7  N   UNL     1       0.002  -0.004   0.002  0.00  0.00    -0.297 N 
ATOM      8  H   UNL     1       0.846  -0.477  -0.071  0.00  0.00    +0.154 HD
BRANCH   7  14
ATOM      9  C   UNL     1      -0.945   2.072  -0.792  0.00  0.00    +0.025 A 
ATOM     10  C   UNL     1      -0.974   3.452  -0.800  0.00  0.00    +0.029 A 
ATOM     11  C   UNL     1      -0.069   4.168  -0.032  0.00  0.00    +0.067 A 
ATOM     12  C   UNL     1       0.867   3.492   0.755  0.00  0.00    +0.069 A 
ATOM     13  C   UNL     1       0.889   2.107   0.765  0.00  0.00    +0.051 A 
ATOM     14  C   UNL     1      -0.018   1.396  -0.006  0.00  0.00    +0.035 A 
ATOM     15  N   UNL     1       1.625   4.464   1.403  0.00  0.00    -0.306 N 
ATOM     16  H   UNL     1       2.355   4.297   2.019  0.00  0.00    +0.170 HD
ATOM     17  C   UNL     1       1.173   5.676   1.028  0.00  0.00    +0.325 A 
ATOM     18  O   UNL     1       1.620   6.740   1.413  0.00  0.00    -0.247 OA
ATOM     19  N   UNL     1       0.151   5.531   0.163  0.00  0.00    -0.306 N 
ATOM     20  H   UNL     1      -0.346   6.252  -0.253  0.00  0.00    +0.170 HD
ENDBRANCH   7  14
ENDBRANCH   5   7
ENDBRANCH   1   5
BRANCH   2  21
ATOM     21  C   UNL     1      -2.250  -4.138   0.413  0.00  0.00    +0.071 C 
ATOM     22  C   UNL     1      -3.412  -4.834   0.523  0.00  0.00    +0.051 C 
BRANCH  22  23
ATOM     23  C   UNL     1      -3.385  -6.242   0.621  0.00  0.00    +0.129 A 
ATOM     24  C   UNL     1      -4.488  -7.068   0.737  0.00  0.00    +0.050 A 
ATOM     25  C   UNL     1      -4.007  -8.378   0.805  0.00  0.00    +0.050 A 
ATOM     26  C   UNL     1      -2.634  -8.307   0.729  0.00  0.00    +0.137 A 
ATOM     27  O   UNL     1      -2.278  -7.015   0.613  0.00  0.00    -0.455 OA
BRANCH  26  28
ATOM     28  C   UNL     1      -1.709  -9.455   0.762  0.00  0.00    +0.036 A 
ATOM     29  C   UNL     1      -1.821 -10.418   1.769  0.00  0.00    +0.014 A 
ATOM     30  C   UNL     1      -0.957 -11.492   1.791  0.00  0.00    +0.021 A 
ATOM     31  C   UNL     1       0.029 -11.613   0.825  0.00  0.00    +0.042 A 
ATOM     32  C   UNL     1       0.150 -10.661  -0.173  0.00  0.00    +0.040 A 
ATOM     33  C   UNL     1      -0.712  -9.583  -0.210  0.00  0.00    +0.053 A 
ATOM     34 CL   UNL     1      -0.560  -8.389  -1.462  0.00  0.00    -0.083 Cl
ATOM     35 CL   UNL     1       1.117 -12.965   0.865  0.00  0.00    -0.083 Cl
ENDBRANCH  26  28
ENDBRANCH  22  23
ENDBRANCH   2  21
TORSDOF 6
