REMARK  Name = ZINC61406061
REMARK  7 active torsions:
REMARK  status: ('A' for Active; 'I' for Inactive)
REMARK    1  A    between atoms: C_1  and  C_2
REMARK    2  A    between atoms: C_2  and  C_3
REMARK    3  A    between atoms: C_3  and  C_5
REMARK    4  A    between atoms: C_3  and  N_23
REMARK    5  A    between atoms: C_5  and  C_7
REMARK    6  A    between atoms: C_5  and  S_13
REMARK    7  A    between atoms: S_13  and  C_14
REMARK                            x       y       z     vdW  Elec       q    Type
REMARK                         _______ _______ _______ _____ _____    ______ ____
ROOT
ATOM      1  C   UNL     1       0.775  -2.043   1.244  0.00  0.00    +0.076 C 
ENDROOT
BRANCH   1   2
ATOM      2  C   UNL     1       1.258  -2.596   2.560  0.00  0.00    +0.003 A 
ATOM      3  C   UNL     1       0.610  -3.400   3.438  0.00  0.00    +0.027 A 
ATOM      4  C   UNL     1       1.258  -3.788   4.596  0.00  0.00    +0.025 A 
ATOM      5  C   UNL     1       2.522  -3.352   4.819  0.00  0.00    +0.060 A 
ATOM      6  S   UNL     1       2.837  -2.370   3.362  0.00  0.00    -0.099 S 
ATOM      7 BR   UNL     1       0.393  -4.907   5.851  0.00  0.00    -0.050 Br
ENDBRANCH   1   2
BRANCH   1   8
ATOM      8  C   UNL     1       0.800  -0.514   1.293  0.00  0.00    -0.057 C 
BRANCH   8   9
ATOM      9  N   UNL     1      -0.053  -0.046   2.393  0.00  0.00    +0.381 N 
ATOM     10  H   UNL     1       0.290  -0.416   3.267  0.00  0.00    -0.090 HD
ATOM     11  H   UNL     1      -0.036   0.963   2.426  0.00  0.00    -0.090 HD
ATOM     12  H   UNL     1      -1.000  -0.362   2.243  0.00  0.00    -0.090 HD
ENDBRANCH   8   9
BRANCH   8  14
ATOM     13  C   UNL     1       0.430   1.570  -0.034  0.00  0.00    +0.002 C 
ATOM     14  C   UNL     1       0.279   0.047  -0.031  0.00  0.00    -0.018 C 
ENDBRANCH   8  14
ENDBRANCH   1   8
BRANCH   1  15
ATOM     15  S   UNL     1       1.858  -2.623  -0.091  0.00  0.00    -0.079 S 
BRANCH  15  16
ATOM     16  C   UNL     1       1.551  -4.357  -0.166  0.00  0.00    +0.196 A 
ATOM     17  N   UNL     1       0.776  -5.046   0.641  0.00  0.00    -0.122 NA
ATOM     18  N   UNL     1       0.774  -6.288   0.306  0.00  0.00    -0.129 NA
ATOM     19  C   UNL     1       1.555  -6.466  -0.744  0.00  0.00    +0.162 A 
ATOM     20  N   UNL     1       2.069  -5.230  -1.076  0.00  0.00    -0.278 N 
ATOM     21  C   UNL     1       2.918  -5.097  -2.139  0.00  0.00    +0.095 A 
ATOM     22  C   UNL     1       3.261  -6.170  -2.878  0.00  0.00    +0.018 A 
ATOM     23  C   UNL     1       2.751  -7.444  -2.566  0.00  0.00    +0.005 A 
ATOM     24  C   UNL     1       1.912  -7.596  -1.507  0.00  0.00    +0.049 A 
ENDBRANCH  15  16
ENDBRANCH   1  15
TORSDOF 6
