REMARK  Name = ZINC36495776
REMARK  15 active torsions:
REMARK  status: ('A' for Active; 'I' for Inactive)
REMARK    1  A    between atoms: C_1  and  C_2
REMARK    2  A    between atoms: C_2  and  C_3
REMARK    3  A    between atoms: C_3  and  C_4
REMARK    4  A    between atoms: C_4  and  C_5
REMARK    5  A    between atoms: C_5  and  C_6
REMARK    6  A    between atoms: C_7  and  C_8
REMARK    7  A    between atoms: N_10  and  C_11
REMARK    8  A    between atoms: N_10  and  C_17
REMARK    9  A    between atoms: C_11  and  C_12
REMARK   10  A    between atoms: C_17  and  C_19
REMARK   11  A    between atoms: C_17  and  C_25
REMARK   12  A    between atoms: N_27  and  C_28
REMARK   13  A    between atoms: C_28  and  S_29
REMARK   14  A    between atoms: S_29  and  C_32
REMARK   15  A    between atoms: C_35  and  C_38
REMARK                            x       y       z     vdW  Elec       q    Type
REMARK                         _______ _______ _______ _____ _____    ______ ____
ROOT
ATOM      1  C   UNL     1       3.267  -9.111   1.808  0.00  0.00    +0.166 C 
ENDROOT
BRANCH   1   2
ATOM      2  C   UNL     1       3.498  -9.300   3.309  0.00  0.00    +0.019 C 
ATOM      3  C   UNL     1       3.704 -10.786   3.610  0.00  0.00    +0.006 C 
ATOM      4  C   UNL     1       3.934 -10.975   5.111  0.00  0.00    +0.000 C 
ATOM      5  C   UNL     1       2.716 -10.462   5.882  0.00  0.00    +0.000 C 
ATOM      6  C   UNL     1       2.510  -8.976   5.581  0.00  0.00    +0.000 C 
ATOM      7  C   UNL     1       2.280  -8.787   4.080  0.00  0.00    +0.006 C 
ENDBRANCH   1   2
BRANCH   1   8
ATOM      8  C   UNL     1       4.518  -9.487   1.056  0.00  0.00    +0.235 C 
ATOM      9  O   UNL     1       5.222  -8.622   0.580  0.00  0.00    -0.274 OA
ATOM     10  N   UNL     1       4.855 -10.784   0.914  0.00  0.00    -0.295 N 
ATOM     11  H   UNL     1       4.266 -11.477   1.252  0.00  0.00    +0.150 HD
BRANCH  10  12
ATOM     12  C   UNL     1       6.109 -11.147   0.249  0.00  0.00    +0.278 C 
BRANCH  12  13
ATOM     13  S   UNL     1       7.398 -11.417   1.496  0.00  0.00    +0.013 S 
ATOM     14  O   UNL     1       8.619 -11.782   0.867  0.00  0.00    -0.168 OA
ATOM     15  O   UNL     1       7.365 -10.380   2.467  0.00  0.00    -0.168 OA
BRANCH  13  16
ATOM     16  C   UNL     1       6.891 -12.863   2.366  0.00  0.00    +0.090 A 
ATOM     17  C   UNL     1       6.234 -12.746   3.577  0.00  0.00    +0.027 A 
ATOM     18  C   UNL     1       5.836 -13.880   4.260  0.00  0.00    +0.005 A 
ATOM     19  C   UNL     1       6.094 -15.131   3.732  0.00  0.00    -0.050 A 
ATOM     20  C   UNL     1       6.751 -15.248   2.521  0.00  0.00    +0.005 A 
ATOM     21  C   UNL     1       7.145 -14.114   1.836  0.00  0.00    +0.027 A 
ATOM     22  C   UNL     1       5.661 -16.368   4.476  0.00  0.00    +0.044 C 
ENDBRANCH  13  16
ENDBRANCH  12  13
ENDBRANCH  10  12
ENDBRANCH   1   8
BRANCH   1  25
ATOM     23  C   UNL     1       1.732  -7.387   1.028  0.00  0.00    +0.240 C 
ATOM     24  O   UNL     1       0.918  -8.259   0.794  0.00  0.00    -0.271 OA
ATOM     25  N   UNL     1       2.938  -7.709   1.537  0.00  0.00    -0.279 N 
BRANCH  23  27
ATOM     26  C   UNL     1       0.211  -5.661   0.255  0.00  0.00    -0.022 C 
ATOM     27  C   UNL     1       1.401  -5.979   0.757  0.00  0.00    +0.063 C 
BRANCH  26  28
ATOM     28  C   UNL     1      -0.128  -4.220  -0.024  0.00  0.00    +0.027 C 
BRANCH  28  29
ATOM     29  C   UNL     1      -0.557  -4.070  -1.485  0.00  0.00    +0.004 C 
BRANCH  29  30
ATOM     30  C   UNL     1      -0.902  -2.606  -1.768  0.00  0.00    +0.000 C 
BRANCH  30  32
ATOM     31  C   UNL     1      -1.675  -0.993  -3.511  0.00  0.00    +0.004 C 
ATOM     32  C   UNL     1      -1.331  -2.456  -3.228  0.00  0.00    -0.003 C 
ENDBRANCH  30  32
ENDBRANCH  29  30
ENDBRANCH  28  29
ENDBRANCH  26  28
ENDBRANCH  23  27
BRANCH  25  33
ATOM     33  C   UNL     1       3.918  -6.658   1.819  0.00  0.00    +0.183 C 
BRANCH  33  34
ATOM     34  C   UNL     1       3.639  -6.062   3.175  0.00  0.00    +0.122 A 
ATOM     35  C   UNL     1       4.242  -6.409   4.326  0.00  0.00    +0.046 A 
ATOM     36  C   UNL     1       3.680  -5.602   5.342  0.00  0.00    +0.041 A 
ATOM     37  C   UNL     1       2.767  -4.811   4.751  0.00  0.00    +0.195 A 
ATOM     38  O   UNL     1       2.751  -5.090   3.437  0.00  0.00    -0.466 OA
ENDBRANCH  33  34
ENDBRANCH  25  33
ENDBRANCH   1  25
TORSDOF 13
