REMARK  Name = ZINC28633023
REMARK  10 active torsions:
REMARK  status: ('A' for Active; 'I' for Inactive)
REMARK    1  A    between atoms: C_1  and  C_2
REMARK    2  A    between atoms: C_2  and  O_3
REMARK    3  A    between atoms: O_3  and  C_4
REMARK    4  A    between atoms: C_11  and  C_18
REMARK    5  A    between atoms: C_13  and  O_14
REMARK    6  A    between atoms: C_18  and  O_19
REMARK    7  A    between atoms: O_19  and  C_20
REMARK    8  A    between atoms: C_20  and  C_22
REMARK    9  A    between atoms: C_22  and  C_23
REMARK   10  A    between atoms: C_22  and  C_29
REMARK                            x       y       z     vdW  Elec       q    Type
REMARK                         _______ _______ _______ _____ _____    ______ ____
ROOT
ATOM      1  C   UNL     1       0.173   2.932  10.129  0.00  0.00    +0.405 C 
ATOM      2  O   UNL     1       1.328   2.718   9.820  0.00  0.00    -0.226 OA
ATOM      3  N   UNL     1      -0.816   2.702   9.242  0.00  0.00    -0.251 N 
ATOM      4  C   UNL     1      -0.507   2.295   7.944  0.00  0.00    +0.040 A 
ATOM      5  C   UNL     1      -1.288   2.738   6.876  0.00  0.00    +0.024 A 
ATOM      6  C   UNL     1      -0.998   2.348   5.601  0.00  0.00    +0.014 A 
ATOM      7  C   UNL     1       0.092   1.503   5.362  0.00  0.00    +0.024 A 
ATOM      8  C   UNL     1       0.422   1.064   4.004  0.00  0.00    +0.007 A 
ATOM      9  C   UNL     1       1.489   0.239   3.837  0.00  0.00    +0.095 A 
ATOM     10  C   UNL     1       2.239  -0.172   4.958  0.00  0.00    +0.285 A 
ATOM     11  O   UNL     1       1.928   0.230   6.201  0.00  0.00    -0.425 OA
ATOM     12  C   UNL     1       0.881   1.049   6.435  0.00  0.00    +0.141 A 
ATOM     13  C   UNL     1       0.573   1.454   7.725  0.00  0.00    +0.070 A 
ATOM     14  H   UNL     1      -1.866   2.836   9.542  0.00  0.00    +0.158 HD
ENDROOT
BRANCH  10  15
ATOM     15  O   UNL     1       3.193  -0.911   4.795  0.00  0.00    -0.480 OA
ATOM     16  H   UNL     1       3.788  -1.240   5.659  0.00  0.00    +0.295 HD
ENDBRANCH  10  15
BRANCH   1  17
ATOM     17  O   UNL     1      -0.120   3.400  11.357  0.00  0.00    -0.450 OA
BRANCH  17  19
ATOM     18  C   UNL     1       0.469   4.151  13.598  0.00  0.00    +0.048 C 
ATOM     19  C   UNL     1       0.994   3.624  12.261  0.00  0.00    +0.230 C 
ENDBRANCH  17  19
ENDBRANCH   1  17
BRANCH   8  20
ATOM     20  C   UNL     1      -0.397   1.519   2.824  0.00  0.00    +0.268 C 
BRANCH  20  21
ATOM     21  O   UNL     1       0.148   0.944   1.607  0.00  0.00    -0.459 OA
BRANCH  21  22
ATOM     22  C   UNL     1      -0.470   1.254   0.456  0.00  0.00    +0.319 C 
ATOM     23  O   UNL     1      -1.436   1.980   0.466  0.00  0.00    -0.250 OA
BRANCH  22  24
ATOM     24  C   UNL     1       0.039   0.694  -0.847  0.00  0.00    +0.158 C 
BRANCH  24  25
ATOM     25  C   UNL     1       1.460   1.145  -1.066  0.00  0.00    -0.029 A 
ATOM     26  C   UNL     1       1.850   2.414  -0.681  0.00  0.00    +0.005 A 
ATOM     27  C   UNL     1       3.155   2.825  -0.878  0.00  0.00    +0.000 A 
ATOM     28  C   UNL     1       4.067   1.971  -1.468  0.00  0.00    +0.000 A 
ATOM     29  C   UNL     1       3.676   0.704  -1.858  0.00  0.00    +0.000 A 
ATOM     30  C   UNL     1       2.373   0.291  -1.657  0.00  0.00    +0.005 A 
ENDBRANCH  24  25
BRANCH  24  31
ATOM     31  C   UNL     1      -0.825   1.190  -1.978  0.00  0.00    -0.029 A 
ATOM     32  C   UNL     1      -0.861   2.539  -2.280  0.00  0.00    +0.005 A 
ATOM     33  C   UNL     1      -1.650   2.993  -3.321  0.00  0.00    +0.000 A 
ATOM     34  C   UNL     1      -2.410   2.100  -4.053  0.00  0.00    +0.000 A 
ATOM     35  C   UNL     1      -2.379   0.752  -3.747  0.00  0.00    +0.000 A 
ATOM     36  C   UNL     1      -1.586   0.297  -2.710  0.00  0.00    +0.005 A 
ENDBRANCH  24  31
ENDBRANCH  22  24
ENDBRANCH  21  22
ENDBRANCH  20  21
ENDBRANCH   8  20
TORSDOF 9
