REMARK  Name = ZINC37885277
REMARK  6 active torsions:
REMARK  status: ('A' for Active; 'I' for Inactive)
REMARK    1  A    between atoms: C_5  and  N_8
REMARK    2  A    between atoms: N_8  and  C_9
REMARK    3  A    between atoms: C_9  and  C_10
REMARK    4  A    between atoms: C_10  and  C_12
REMARK    5  A    between atoms: C_10  and  O_19
REMARK    6  A    between atoms: C_12  and  N_13
REMARK                            x       y       z     vdW  Elec       q    Type
REMARK                         _______ _______ _______ _____ _____    ______ ____
ROOT
ATOM      1  N   UNL     1       1.261  -2.091  -0.006  0.00  0.00    -0.340 N 
ATOM      2  H   UNL     1       1.855  -2.489  -0.662  0.00  0.00    +0.146 HD
ENDROOT
BRANCH   1   7
ATOM      3  C   UNL     1       0.802   1.449   0.877  0.00  0.00    +0.032 A 
ATOM      4  C   UNL     1       2.029   1.738   1.448  0.00  0.00    +0.020 A 
ATOM      5  C   UNL     1       3.001   0.758   1.536  0.00  0.00    +0.032 A 
ATOM      6  C   UNL     1       2.750  -0.513   1.055  0.00  0.00    +0.041 A 
ATOM      7  C   UNL     1       1.519  -0.806   0.482  0.00  0.00    +0.056 A 
ATOM      8  C   UNL     1       0.544   0.180   0.394  0.00  0.00    +0.041 A 
ATOM      9 BR   UNL     1      -1.134  -0.213  -0.384  0.00  0.00    -0.048 Br
ATOM     10 BR   UNL     1       4.081  -1.851   1.176  0.00  0.00    -0.048 Br
ATOM     11 BR   UNL     1       2.377   3.476   2.106  0.00  0.00    -0.050 Br
ENDBRANCH   1   7
BRANCH   1  12
ATOM     12  C   UNL     1       0.094  -2.836   0.472  0.00  0.00    +0.134 C 
BRANCH  12  13
ATOM     13  C   UNL     1       0.380  -4.337   0.392  0.00  0.00    +0.145 C 
BRANCH  13  14
ATOM     14  O   UNL     1       0.653  -4.698  -0.963  0.00  0.00    -0.389 OA
ATOM     15  H   UNL     1      -0.074  -4.513  -1.574  0.00  0.00    +0.210 HD
ENDBRANCH  13  14
BRANCH  13  16
ATOM     16  C   UNL     1      -0.839  -5.115   0.892  0.00  0.00    +0.117 C 
BRANCH  16  17
ATOM     17  N   UNL     1      -0.462  -6.514   1.133  0.00  0.00    -0.296 NA
ATOM     18  C   UNL     1      -1.649  -7.345   1.379  0.00  0.00    +0.112 C 
ATOM     19  C   UNL     1      -1.216  -8.802   1.565  0.00  0.00    +0.175 C 
ATOM     20  O   UNL     1      -0.271  -8.879   2.636  0.00  0.00    -0.377 OA
ATOM     21  C   UNL     1       0.899  -8.082   2.430  0.00  0.00    +0.175 C 
ATOM     22  C   UNL     1       0.487  -6.618   2.252  0.00  0.00    +0.112 C 
ENDBRANCH  16  17
ENDBRANCH  13  16
ENDBRANCH  12  13
ENDBRANCH   1  12
TORSDOF 6
