REMARK  Name = ZINC02953385
REMARK  9 active torsions:
REMARK  status: ('A' for Active; 'I' for Inactive)
REMARK    1  A    between atoms: C_1  and  C_2
REMARK    2  A    between atoms: C_5  and  C_8
REMARK    3  A    between atoms: C_8  and  N_9
REMARK    4  A    between atoms: N_12  and  C_20
REMARK    5  A    between atoms: C_20  and  N_22
REMARK    6  A    between atoms: N_22  and  C_23
REMARK    7  A    between atoms: C_23  and  C_24
REMARK    8  A    between atoms: N_26  and  C_27
REMARK    9  A    between atoms: C_27  and  C_28
REMARK                            x       y       z     vdW  Elec       q    Type
REMARK                         _______ _______ _______ _____ _____    ______ ____
ROOT
ATOM      1  N   UNL     1       1.447  -4.747  -0.026  0.00  0.00    +0.388 N 
ATOM      2  C   UNL     1       2.110  -4.346   1.222  0.00  0.00    -0.058 C 
ATOM      3  C   UNL     1       3.590  -4.738   1.161  0.00  0.00    +0.088 C 
ATOM      4  N   UNL     1       3.680  -6.175   0.861  0.00  0.00    -0.316 N 
ATOM      5  C   UNL     1       2.913  -6.694  -0.282  0.00  0.00    +0.095 C 
ATOM      6  C   UNL     1       1.465  -6.210  -0.154  0.00  0.00    -0.049 C 
ATOM      7  C   UNL     1       0.827  -6.840   1.085  0.00  0.00    -0.010 C 
ATOM      8  C   UNL     1       0.852  -8.364   0.951  0.00  0.00    -0.001 C 
ATOM      9  C   UNL     1       0.067  -8.780  -0.295  0.00  0.00    -0.000 C 
ATOM     10  C   UNL     1       0.704  -8.148  -1.534  0.00  0.00    -0.001 C 
ATOM     11  C   UNL     1       0.679  -6.624  -1.400  0.00  0.00    -0.010 C 
ATOM     12  H   UNL     1       1.933  -4.337  -0.809  0.00  0.00    -0.080 HD
ENDROOT
BRANCH   4  13
ATOM     13  C   UNL     1       4.445  -6.993   1.611  0.00  0.00    +0.133 C 
ATOM     14  S   UNL     1       5.427  -6.346   2.854  0.00  0.00    -0.019 S 
BRANCH  13  15
ATOM     15  N   UNL     1       4.437  -8.322   1.381  0.00  0.00    -0.318 N 
ATOM     16  H   UNL     1       3.939  -8.681   0.630  0.00  0.00    +0.148 HD
BRANCH  15  17
ATOM     17  C   UNL     1       5.180  -9.222   2.266  0.00  0.00    +0.199 C 
BRANCH  17  18
ATOM     18  C   UNL     1       5.008 -10.643   1.795  0.00  0.00    +0.230 C 
ATOM     19  O   UNL     1       4.332 -10.880   0.816  0.00  0.00    -0.274 OA
ATOM     20  N   UNL     1       5.606 -11.651   2.461  0.00  0.00    -0.310 N 
ATOM     21  H   UNL     1       6.147 -11.461   3.243  0.00  0.00    +0.149 HD
BRANCH  20  22
ATOM     22  C   UNL     1       5.439 -13.033   2.003  0.00  0.00    +0.139 C 
BRANCH  22  23
ATOM     23  C   UNL     1       6.204 -13.959   2.913  0.00  0.00    -0.027 A 
ATOM     24  C   UNL     1       7.523 -14.265   2.636  0.00  0.00    +0.009 A 
ATOM     25  C   UNL     1       8.229 -15.114   3.468  0.00  0.00    +0.050 A 
ATOM     26  C   UNL     1       7.614 -15.662   4.582  0.00  0.00    +0.166 A 
ATOM     27  C   UNL     1       6.285 -15.354   4.861  0.00  0.00    +0.167 A 
ATOM     28  C   UNL     1       5.586 -14.498   4.026  0.00  0.00    +0.054 A 
ATOM     29  O   UNL     1       5.915 -16.011   5.999  0.00  0.00    -0.453 OA
ATOM     30  C   UNL     1       6.902 -17.042   6.186  0.00  0.00    +0.466 C 
ATOM     31  O   UNL     1       8.077 -16.511   5.545  0.00  0.00    -0.453 OA
ENDBRANCH  22  23
ENDBRANCH  20  22
ENDBRANCH  17  18
ENDBRANCH  15  17
ENDBRANCH  13  15
ENDBRANCH   4  13
BRANCH   1  32
ATOM     32  C   UNL     1       0.056  -4.276  -0.013  0.00  0.00    -0.042 C 
BRANCH  32  37
ATOM     33  C   UNL     1      -0.021   1.502   0.017  0.00  0.00    +0.044 C 
ATOM     34  C   UNL     1      -0.001  -0.004   0.009  0.00  0.00    -0.050 A 
ATOM     35  C   UNL     1       0.000  -0.689  -1.191  0.00  0.00    +0.003 A 
ATOM     36  C   UNL     1       0.019  -2.072  -1.198  0.00  0.00    +0.002 A 
ATOM     37  C   UNL     1       0.037  -2.769  -0.005  0.00  0.00    -0.064 A 
ATOM     38  C   UNL     1       0.037  -2.084   1.196  0.00  0.00    +0.002 A 
ATOM     39  C   UNL     1       0.022  -0.701   1.203  0.00  0.00    +0.003 A 
ENDBRANCH  32  37
ENDBRANCH   1  32
TORSDOF 8
