REMARK  Name = ZINC09601420
REMARK  12 active torsions:
REMARK  status: ('A' for Active; 'I' for Inactive)
REMARK    1  A    between atoms: C_1  and  C_2
REMARK    2  A    between atoms: C_5  and  C_8
REMARK    3  A    between atoms: C_8  and  C_10
REMARK    4  A    between atoms: C_8  and  N_22
REMARK    5  A    between atoms: N_12  and  C_13
REMARK    6  A    between atoms: C_16  and  C_19
REMARK    7  A    between atoms: C_19  and  C_20
REMARK    8  A    between atoms: C_19  and  C_21
REMARK    9  A    between atoms: N_22  and  C_23
REMARK   10  A    between atoms: C_23  and  C_24
REMARK   11  A    between atoms: C_29  and  C_31
REMARK   12  A    between atoms: C_31  and  C_32
REMARK                            x       y       z     vdW  Elec       q    Type
REMARK                         _______ _______ _______ _____ _____    ______ ____
ROOT
ATOM      1  C   UNL     1      -4.496   0.994   2.072  0.00  0.00    +0.193 C 
ENDROOT
BRANCH   1   6
ATOM      2  C   UNL     1       0.383   3.660   3.647  0.00  0.00    +0.044 C 
ATOM      3  C   UNL     1      -0.889   2.965   3.236  0.00  0.00    -0.050 A 
ATOM      4  C   UNL     1      -1.469   2.032   4.076  0.00  0.00    +0.004 A 
ATOM      5  C   UNL     1      -2.636   1.394   3.699  0.00  0.00    +0.006 A 
ATOM      6  C   UNL     1      -3.224   1.689   2.483  0.00  0.00    -0.018 A 
ATOM      7  C   UNL     1      -2.641   2.618   1.641  0.00  0.00    +0.006 A 
ATOM      8  C   UNL     1      -1.476   3.259   2.020  0.00  0.00    +0.004 A 
ENDBRANCH   1   6
BRANCH   1   9
ATOM      9  C   UNL     1      -5.658   1.941   2.225  0.00  0.00    +0.242 C 
ATOM     10  O   UNL     1      -5.799   2.859   1.446  0.00  0.00    -0.273 OA
ATOM     11  N   UNL     1      -6.541   1.768   3.229  0.00  0.00    -0.284 N 
ATOM     12  H   UNL     1      -6.425   1.038   3.857  0.00  0.00    +0.155 HD
BRANCH  11  13
ATOM     13  C   UNL     1      -7.625   2.642   3.365  0.00  0.00    +0.033 A 
ATOM     14  C   UNL     1      -7.424   4.015   3.311  0.00  0.00    +0.023 A 
ATOM     15  C   UNL     1      -8.498   4.874   3.439  0.00  0.00    +0.006 A 
ATOM     16  C   UNL     1      -9.770   4.369   3.633  0.00  0.00    -0.045 A 
ATOM     17  C   UNL     1      -9.973   3.002   3.693  0.00  0.00    +0.006 A 
ATOM     18  C   UNL     1      -8.905   2.138   3.560  0.00  0.00    +0.023 A 
BRANCH  16  19
ATOM     19  C   UNL     1     -10.939   5.310   3.779  0.00  0.00    +0.013 C 
ATOM     20  C   UNL     1     -10.713   6.219   4.989  0.00  0.00    +0.012 C 
ATOM     21  C   UNL     1     -11.067   6.163   2.516  0.00  0.00    +0.012 C 
ENDBRANCH  16  19
ENDBRANCH  11  13
ENDBRANCH   1   9
BRANCH   1  22
ATOM     22  N   UNL     1      -4.392   0.571   0.674  0.00  0.00    -0.278 N 
ATOM     23  C   UNL     1      -4.104  -0.712   0.377  0.00  0.00    +0.219 C 
ATOM     24  O   UNL     1      -3.932  -1.516   1.269  0.00  0.00    -0.275 OA
BRANCH  22  25
ATOM     25  C   UNL     1      -4.600   1.542  -0.403  0.00  0.00    +0.183 C 
BRANCH  25  26
ATOM     26  C   UNL     1      -6.001   1.405  -0.940  0.00  0.00    +0.122 A 
ATOM     27  C   UNL     1      -6.749   2.399  -1.452  0.00  0.00    +0.046 A 
ATOM     28  C   UNL     1      -7.984   1.828  -1.833  0.00  0.00    +0.041 A 
ATOM     29  C   UNL     1      -7.921   0.520  -1.524  0.00  0.00    +0.195 A 
ATOM     30  O   UNL     1      -6.718   0.270  -0.983  0.00  0.00    -0.466 OA
ENDBRANCH  25  26
ENDBRANCH  22  25
BRANCH  23  31
ATOM     31  C   UNL     1      -3.997  -1.147  -1.061  0.00  0.00    +0.127 C 
BRANCH  31  32
ATOM     32  C   UNL     1      -3.665  -2.640  -1.119  0.00  0.00    +0.169 C 
ATOM     33  C   UNL     1      -3.620  -3.121  -2.556  0.00  0.00    +0.241 C 
ATOM     34  O   UNL     1      -4.527  -3.110  -3.361  0.00  0.00    -0.273 OA
ATOM     35  N   UNL     1      -2.362  -3.562  -2.754  0.00  0.00    -0.239 N 
ATOM     36  C   UNL     1      -1.614  -3.428  -1.653  0.00  0.00    +0.307 C 
ATOM     37  O   UNL     1      -0.445  -3.756  -1.586  0.00  0.00    -0.252 OA
ATOM     38  N   UNL     1      -2.299  -2.889  -0.628  0.00  0.00    -0.287 N 
ATOM     39  H   UNL     1      -2.039  -3.931  -3.591  0.00  0.00    +0.159 HD
ATOM     40  H   UNL     1      -1.959  -2.701   0.261  0.00  0.00    +0.151 HD
ENDBRANCH  31  32
ENDBRANCH  23  31
ENDBRANCH   1  22
TORSDOF 9
