REMARK  Name = ZINC24216552
REMARK  7 active torsions:
REMARK  status: ('A' for Active; 'I' for Inactive)
REMARK    1  A    between atoms: C_1  and  C_2
REMARK    2  A    between atoms: C_2  and  O_3
REMARK    3  A    between atoms: O_3  and  C_4
REMARK    4  A    between atoms: C_7  and  C_10
REMARK    5  A    between atoms: N_15  and  C_16
REMARK    6  A    between atoms: C_16  and  C_17
REMARK    7  A    between atoms: C_23  and  C_28
REMARK                            x       y       z     vdW  Elec       q    Type
REMARK                         _______ _______ _______ _____ _____    ______ ____
ROOT
ATOM      1  C   UNL     1       5.223   3.601  -0.029  0.00  0.00    -0.002 C 
ENDROOT
BRANCH   1   2
ATOM      2  C   UNL     1       3.816   3.059  -0.018  0.00  0.00    +0.094 A 
ATOM      3  N   UNL     1       2.769   3.923  -0.003  0.00  0.00    -0.312 N 
ATOM      4  H   UNL     1       2.950   5.008   0.001  0.00  0.00    +0.170 HD
ATOM      5  C   UNL     1       1.498   3.480   0.006  0.00  0.00    +0.260 A 
ATOM      6  O   UNL     1       0.568   4.269   0.018  0.00  0.00    -0.267 OA
ATOM      7  C   UNL     1       1.254   2.070   0.001  0.00  0.00    +0.083 A 
ATOM      8  C   UNL     1      -0.016   1.353   0.009  0.00  0.00    +0.039 A 
ATOM      9  C   UNL     1       0.002  -0.004   0.002  0.00  0.00    +0.059 A 
ATOM     10  S   UNL     1       1.742  -0.393  -0.017  0.00  0.00    -0.076 S 
ATOM     11  C   UNL     1       2.398   1.255  -0.014  0.00  0.00    +0.116 A 
ATOM     12  N   UNL     1       3.626   1.767  -0.023  0.00  0.00    -0.229 NA
BRANCH   8  13
ATOM     13  C   UNL     1      -1.297   2.089   0.020  0.00  0.00    +0.136 A 
ATOM     14  C   UNL     1      -2.346   1.877  -0.820  0.00  0.00    +0.050 A 
ATOM     15  C   UNL     1      -3.350   2.797  -0.455  0.00  0.00    +0.042 A 
ATOM     16  C   UNL     1      -2.870   3.517   0.578  0.00  0.00    +0.196 A 
ATOM     17  O   UNL     1      -1.631   3.083   0.865  0.00  0.00    -0.463 OA
ENDBRANCH   8  13
ENDBRANCH   1   2
BRANCH   1  22
ATOM     18  C   UNL     1       7.559   2.969  -0.296  0.00  0.00    -0.037 C 
ATOM     19  C   UNL     1       8.469   1.843   0.238  0.00  0.00    -0.013 C 
ATOM     20  C   UNL     1       7.612   1.095   1.281  0.00  0.00    -0.020 C 
ATOM     21  C   UNL     1       6.256   1.833   1.288  0.00  0.00    -0.077 C 
ATOM     22  N   UNL     1       6.177   2.484  -0.044  0.00  0.00    +0.389 N 
ATOM     23  H   UNL     1       5.815   1.804  -0.830  0.00  0.00    -0.080 HD
BRANCH  18  27
ATOM     24  C   UNL     1       8.197   3.540  -4.483  0.00  0.00    +0.121 A 
ATOM     25  C   UNL     1       8.711   4.451  -3.571  0.00  0.00    +0.046 A 
ATOM     26  C   UNL     1       8.503   4.264  -2.218  0.00  0.00    +0.005 A 
ATOM     27  C   UNL     1       7.784   3.170  -1.773  0.00  0.00    -0.061 A 
ATOM     28  C   UNL     1       7.276   2.258  -2.679  0.00  0.00    +0.005 A 
ATOM     29  C   UNL     1       7.477   2.443  -4.034  0.00  0.00    +0.046 A 
BRANCH  24  30
ATOM     30  O   UNL     1       8.400   3.722  -5.814  0.00  0.00    -0.492 OA
BRANCH  30  32
ATOM     31  C   UNL     1       8.173   3.114  -8.143  0.00  0.00    +0.048 C 
ATOM     32  C   UNL     1       7.843   2.744  -6.695  0.00  0.00    +0.225 C 
ENDBRANCH  30  32
ENDBRANCH  24  30
ENDBRANCH  18  27
ENDBRANCH   1  22
TORSDOF 6
