REMARK  Name = ZINC47277480
REMARK  4 active torsions:
REMARK  status: ('A' for Active; 'I' for Inactive)
REMARK    1  A    between atoms: C_6  and  C_10
REMARK    2  A    between atoms: N_12  and  C_13
REMARK    3  A    between atoms: C_15  and  N_20
REMARK    4  A    between atoms: C_18  and  O_19
REMARK                            x       y       z     vdW  Elec       q    Type
REMARK                         _______ _______ _______ _____ _____    ______ ____
ROOT
ATOM      1  C   UNL     1       5.119  -5.516  -0.166  0.00  0.00    +0.077 A 
ATOM      2  C   UNL     1       6.469  -5.200  -0.166  0.00  0.00    +0.051 A 
ATOM      3  C   UNL     1       7.416  -6.210  -0.270  0.00  0.00    +0.053 A 
ATOM      4  C   UNL     1       7.011  -7.534  -0.374  0.00  0.00    +0.028 A 
ATOM      5  C   UNL     1       5.665  -7.849  -0.374  0.00  0.00    +0.049 A 
ATOM      6  C   UNL     1       4.717  -6.846  -0.265  0.00  0.00    +0.138 A 
ENDROOT
BRANCH   3   7
ATOM      7  N   UNL     1       8.779  -5.893  -0.271  0.00  0.00    -0.207 N 
ATOM      8  C   UNL     1       9.393  -4.613  -0.668  0.00  0.00    +0.133 C 
ATOM      9  C   UNL     1      10.706  -4.374   0.101  0.00  0.00    +0.045 C 
ATOM     10  C   UNL     1      11.468  -5.732   0.031  0.00  0.00    +0.190 C 
ATOM     11  S   UNL     1      10.047  -6.888   0.187  0.00  0.00    +0.046 S 
ATOM     12  O   UNL     1       9.805  -7.210   1.550  0.00  0.00    -0.155 OA
ATOM     13  O   UNL     1      10.113  -7.901  -0.808  0.00  0.00    -0.155 OA
ENDBRANCH   3   7
BRANCH   1  16
ATOM     14  C   UNL     1       4.387  -3.299  -0.630  0.00  0.00    +0.255 C 
ATOM     15  O   UNL     1       5.456  -3.071  -1.165  0.00  0.00    -0.269 OA
ATOM     16  N   UNL     1       4.161  -4.500  -0.060  0.00  0.00    -0.278 N 
ATOM     17  H   UNL     1       3.335  -4.660   0.422  0.00  0.00    +0.155 HD
BRANCH  14  23
ATOM     18  C   UNL     1      -0.117   1.281  -0.570  0.00  0.00    +0.004 A 
ATOM     19  C   UNL     1       0.952   1.859  -1.244  0.00  0.00    +0.039 A 
ATOM     20  C   UNL     1       2.118   1.172  -1.457  0.00  0.00    +0.132 A 
ATOM     21  C   UNL     1       2.267  -0.162  -0.991  0.00  0.00    +0.025 A 
ATOM     22  C   UNL     1       3.383  -1.008  -1.119  0.00  0.00    +0.032 A 
ATOM     23  C   UNL     1       3.343  -2.266  -0.605  0.00  0.00    +0.075 A 
ATOM     24  S   UNL     1       1.709  -2.353   0.108  0.00  0.00    -0.084 S 
ATOM     25  C   UNL     1       1.159  -0.718  -0.310  0.00  0.00    +0.023 A 
ATOM     26  C   UNL     1      -0.008  -0.013  -0.104  0.00  0.00    +0.016 A 
ATOM     27  F   UNL     1       3.135   1.769  -2.116  0.00  0.00    -0.205 F 
ENDBRANCH  14  23
ENDBRANCH   1  16
BRANCH   6  28
ATOM     28  O   UNL     1       3.392  -7.159  -0.259  0.00  0.00    -0.505 OA
ATOM     29  H   UNL     1       2.989  -7.178  -1.137  0.00  0.00    +0.292 HD
ENDBRANCH   6  28
TORSDOF 4
