REMARK  Name = ZINC33961096
REMARK  7 active torsions:
REMARK  status: ('A' for Active; 'I' for Inactive)
REMARK    1  A    between atoms: C_1  and  O_2
REMARK    2  A    between atoms: O_2  and  C_3
REMARK    3  A    between atoms: C_5  and  C_18
REMARK    4  A    between atoms: C_8  and  O_9
REMARK    5  A    between atoms: O_9  and  C_10
REMARK    6  A    between atoms: C_10  and  C_11
REMARK    7  A    between atoms: N_19  and  N_20
REMARK                            x       y       z     vdW  Elec       q    Type
REMARK                         _______ _______ _______ _____ _____    ______ ____
ROOT
ATOM      1  C   UNL     1       0.626  -0.619   1.042  0.00  0.00    +0.163 A 
ATOM      2  C   UNL     1       1.200   0.137   2.047  0.00  0.00    +0.059 A 
ATOM      3  C   UNL     1       1.841  -0.498   3.116  0.00  0.00    -0.000 A 
ATOM      4  C   UNL     1       1.897  -1.895   3.162  0.00  0.00    +0.028 A 
ATOM      5  C   UNL     1       1.322  -2.641   2.154  0.00  0.00    +0.064 A 
ATOM      6  C   UNL     1       0.682  -2.010   1.097  0.00  0.00    +0.176 A 
ATOM      7 BR   UNL     1       1.400  -4.530   2.217  0.00  0.00    -0.046 Br
ENDROOT
BRANCH   1   9
ATOM      8  C   UNL     1      -0.017   1.425   0.010  0.00  0.00    +0.277 C 
ATOM      9  O   UNL     1       0.002  -0.004   0.002  0.00  0.00    -0.491 OA
ENDBRANCH   1   9
BRANCH   3  10
ATOM     10  C   UNL     1       2.454   0.300   4.189  0.00  0.00    +0.143 C 
ATOM     11  N   UNL     1       3.051  -0.294   5.185  0.00  0.00    -0.154 NA
BRANCH  11  12
ATOM     12  N   UNL     1       3.635   0.467   6.207  0.00  0.00    -0.114 NA
ATOM     13  C   UNL     1       4.238  -0.134   7.212  0.00  0.00    +0.213 C 
ATOM     14  N   UNL     1       4.295  -1.504   7.259  0.00  0.00    -0.369 N 
ATOM     15  N   UNL     1       4.810   0.611   8.213  0.00  0.00    -0.369 N 
ATOM     16  H   UNL     1       3.890  -2.030   6.552  0.00  0.00    +0.159 HD
ATOM     17  H   UNL     1       4.770   1.580   8.180  0.00  0.00    +0.159 HD
ATOM     18  H   UNL     1       5.254   0.169   8.953  0.00  0.00    +0.159 HD
ATOM     19  H   UNL     1       4.739  -1.946   8.000  0.00  0.00    +0.159 HD
ENDBRANCH  11  12
ENDBRANCH   3  10
BRANCH   6  20
ATOM     20  O   UNL     1       0.112  -2.750   0.110  0.00  0.00    -0.483 OA
BRANCH  20  21
ATOM     21  C   UNL     1       0.936  -3.085  -1.009  0.00  0.00    +0.264 C 
BRANCH  21  22
ATOM     22  C   UNL     1       0.139  -3.902  -1.993  0.00  0.00    -0.010 A 
ATOM     23  C   UNL     1       0.114  -5.280  -1.887  0.00  0.00    +0.007 A 
ATOM     24  C   UNL     1      -0.617  -6.029  -2.790  0.00  0.00    +0.000 A 
ATOM     25  C   UNL     1      -1.322  -5.400  -3.799  0.00  0.00    +0.000 A 
ATOM     26  C   UNL     1      -1.297  -4.022  -3.905  0.00  0.00    +0.000 A 
ATOM     27  C   UNL     1      -0.570  -3.273  -2.999  0.00  0.00    +0.007 A 
ENDBRANCH  21  22
ENDBRANCH  20  21
ENDBRANCH   6  20
TORSDOF 6
