REMARK  Name = ZINC59047100
REMARK  11 active torsions:
REMARK  status: ('A' for Active; 'I' for Inactive)
REMARK    1  A    between atoms: C_4  and  C_7
REMARK    2  A    between atoms: C_7  and  C_8
REMARK    3  A    between atoms: C_8  and  C_9
REMARK    4  A    between atoms: C_12  and  S_15
REMARK    5  A    between atoms: N_13  and  N_14
REMARK    6  A    between atoms: S_15  and  C_16
REMARK    7  A    between atoms: C_16  and  C_17
REMARK    8  A    between atoms: N_19  and  C_20
REMARK    9  A    between atoms: C_25  and  S_26
REMARK   10  A    between atoms: S_26  and  C_27
REMARK   11  A    between atoms: C_27  and  C_28
REMARK                            x       y       z     vdW  Elec       q    Type
REMARK                         _______ _______ _______ _____ _____    ______ ____
ROOT
ATOM      1  C   UNL     1       9.921  -3.792   1.342  0.00  0.00    +0.173 C 
ENDROOT
BRANCH   1   2
ATOM      2  C   UNL     1      11.427  -3.839   1.316  0.00  0.00    +0.228 C 
ATOM      3  O   UNL     1      12.067  -2.809   1.318  0.00  0.00    -0.275 OA
ATOM      4  N   UNL     1      12.064  -5.027   1.292  0.00  0.00    -0.284 N 
ATOM      5  H   UNL     1      11.555  -5.851   1.357  0.00  0.00    +0.155 HD
BRANCH   4   6
ATOM      6  C   UNL     1      13.459  -5.072   1.174  0.00  0.00    +0.047 A 
ATOM      7  C   UNL     1      14.239  -4.092   1.768  0.00  0.00    +0.024 A 
ATOM      8  C   UNL     1      15.616  -4.138   1.650  0.00  0.00    +0.002 A 
ATOM      9  C   UNL     1      16.220  -5.161   0.941  0.00  0.00    +0.001 A 
ATOM     10  C   UNL     1      15.451  -6.143   0.346  0.00  0.00    +0.016 A 
ATOM     11  C   UNL     1      14.068  -6.108   0.464  0.00  0.00    +0.029 A 
BRANCH  11  12
ATOM     12  S   UNL     1      13.085  -7.362  -0.287  0.00  0.00    -0.119 S 
BRANCH  12  13
ATOM     13  C   UNL     1      14.297  -8.457  -1.075  0.00  0.00    +0.109 C 
BRANCH  13  14
ATOM     14  C   UNL     1      13.579  -9.589  -1.764  0.00  0.00    -0.037 A 
ATOM     15  C   UNL     1      13.308 -10.756  -1.075  0.00  0.00    +0.004 A 
ATOM     16  C   UNL     1      12.649 -11.794  -1.707  0.00  0.00    +0.000 A 
ATOM     17  C   UNL     1      12.261 -11.665  -3.028  0.00  0.00    +0.000 A 
ATOM     18  C   UNL     1      12.532 -10.496  -3.716  0.00  0.00    +0.000 A 
ATOM     19  C   UNL     1      13.187  -9.457  -3.083  0.00  0.00    +0.004 A 
ENDBRANCH  13  14
ENDBRANCH  12  13
ENDBRANCH  11  12
ENDBRANCH   4   6
ENDBRANCH   1   2
BRANCH   1  20
ATOM     20  S   UNL     1       9.372  -2.063   1.370  0.00  0.00    -0.075 S 
BRANCH  20  24
ATOM     21  C   UNL     1       5.489  -1.697   1.438  0.00  0.00    +0.151 A 
ATOM     22  N   UNL     1       5.649  -2.990   1.421  0.00  0.00    -0.132 NA
ATOM     23  N   UNL     1       6.902  -3.278   1.397  0.00  0.00    -0.121 NA
ATOM     24  C   UNL     1       7.614  -2.175   1.398  0.00  0.00    +0.209 A 
ATOM     25  N   UNL     1       6.734  -1.131   1.419  0.00  0.00    -0.228 N 
BRANCH  25  26
ATOM     26  N   UNL     1       7.035   0.201   1.422  0.00  0.00    -0.295 N 
ATOM     27  H   UNL     1       7.132   0.547   2.365  0.00  0.00    +0.163 HD
ATOM     28  H   UNL     1       7.866   0.385   0.882  0.00  0.00    +0.163 HD
ENDBRANCH  25  26
BRANCH  21  29
ATOM     29  C   UNL     1       4.174  -0.961   1.467  0.00  0.00    +0.082 C 
BRANCH  29  30
ATOM     30  C   UNL     1       3.703  -0.703   0.034  0.00  0.00    +0.043 C 
BRANCH  30  34
ATOM     31  C   UNL     1      -0.024   1.384   0.114  0.00  0.00    +0.000 A 
ATOM     32  C   UNL     1       1.164   2.091   0.098  0.00  0.00    +0.000 A 
ATOM     33  C   UNL     1       2.370   1.416   0.072  0.00  0.00    +0.003 A 
ATOM     34  C   UNL     1       2.388   0.034   0.063  0.00  0.00    -0.047 A 
ATOM     35  C   UNL     1       1.200  -0.673   0.080  0.00  0.00    +0.003 A 
ATOM     36  C   UNL     1      -0.006   0.002   0.104  0.00  0.00    +0.000 A 
ENDBRANCH  30  34
ENDBRANCH  29  30
ENDBRANCH  21  29
ENDBRANCH  20  24
ENDBRANCH   1  20
TORSDOF 11
