REMARK  Name = ZINC34707920
REMARK  4 active torsions:
REMARK  status: ('A' for Active; 'I' for Inactive)
REMARK    1  A    between atoms: C_1  and  C_2
REMARK    2  A    between atoms: N_8  and  C_9
REMARK    3  A    between atoms: C_9  and  C_10
REMARK    4  A    between atoms: C_25  and  C_28
REMARK                            x       y       z     vdW  Elec       q    Type
REMARK                         _______ _______ _______ _____ _____    ______ ____
ROOT
ATOM      1  C   UNL     1      -2.494   0.237   3.159  0.00  0.00    -0.012 C 
ATOM      2  C   UNL     1      -2.025  -0.142   1.753  0.00  0.00    -0.054 C 
ATOM      3  C   UNL     1      -2.116  -1.662   1.576  0.00  0.00    +0.092 C 
ATOM      4  N   UNL     1      -1.539  -2.015   0.270  0.00  0.00    -0.304 N 
ATOM      5  C   UNL     1      -0.208  -1.486  -0.066  0.00  0.00    +0.089 C 
ATOM      6  C   UNL     1      -0.207   0.025   0.188  0.00  0.00    -0.059 C 
ATOM      7  N   UNL     1      -0.633   0.288   1.568  0.00  0.00    +0.386 N 
ATOM      8  C   UNL     1      -2.224  -2.816  -0.611  0.00  0.00    +0.206 A 
ATOM      9  N   UNL     1      -3.061  -2.257  -1.446  0.00  0.00    -0.215 NA
ATOM     10  C   UNL     1      -3.774  -2.979  -2.346  0.00  0.00    +0.079 A 
ATOM     11  C   UNL     1      -4.663  -2.364  -3.230  0.00  0.00    +0.048 A 
ATOM     12  C   UNL     1      -5.371  -3.130  -4.132  0.00  0.00    +0.043 A 
ATOM     13  C   UNL     1      -5.211  -4.509  -4.172  0.00  0.00    +0.021 A 
ATOM     14  C   UNL     1      -4.341  -5.138  -3.309  0.00  0.00    +0.015 A 
ATOM     15  C   UNL     1      -3.615  -4.383  -2.391  0.00  0.00    +0.045 A 
ATOM     16  C   UNL     1      -2.674  -4.998  -1.448  0.00  0.00    +0.173 A 
ATOM     17  N   UNL     1      -1.999  -4.166  -0.583  0.00  0.00    -0.250 N 
ATOM     18  C   UNL     1      -1.201  -4.983   0.160  0.00  0.00    +0.143 A 
ATOM     19  N   UNL     1      -1.399  -6.206  -0.254  0.00  0.00    -0.133 NA
ATOM     20  N   UNL     1      -2.274  -6.221  -1.199  0.00  0.00    -0.129 NA
ATOM     21 CL   UNL     1      -6.475  -2.361  -5.229  0.00  0.00    -0.083 Cl
ATOM     22  H   UNL     1      -0.038  -0.219   2.205  0.00  0.00    -0.081 HD
ENDROOT
BRANCH  18  23
ATOM     23  C   UNL     1      -0.263  -4.554   1.259  0.00  0.00    +0.058 C 
ATOM     24  C   UNL     1       1.170  -4.938   0.884  0.00  0.00    +0.011 C 
ATOM     25  C   UNL     1       2.123  -4.503   1.999  0.00  0.00    +0.001 C 
ATOM     26  C   UNL     1       1.733  -5.200   3.304  0.00  0.00    +0.000 C 
ATOM     27  C   UNL     1       0.300  -4.816   3.679  0.00  0.00    +0.001 C 
ATOM     28  C   UNL     1      -0.652  -5.251   2.564  0.00  0.00    +0.011 C 
ENDBRANCH  18  23
BRANCH   7  29
ATOM     29  C   UNL     1      -0.527   1.727   1.845  0.00  0.00    -0.042 C 
BRANCH  29  30
ATOM     30  C   UNL     1       0.919   2.147   1.776  0.00  0.00    -0.057 A 
ATOM     31  C   UNL     1       1.716   2.104   2.904  0.00  0.00    +0.009 A 
ATOM     32  C   UNL     1       3.012   2.489   2.808  0.00  0.00    +0.045 A 
ATOM     33  S   UNL     1       3.139   2.929   1.082  0.00  0.00    -0.105 S 
ATOM     34  C   UNL     1       1.458   2.566   0.605  0.00  0.00    +0.047 A 
ENDBRANCH  29  30
ENDBRANCH   7  29
TORSDOF 3
