REMARK  Name = ZINC19878720
REMARK  8 active torsions:
REMARK  status: ('A' for Active; 'I' for Inactive)
REMARK    1  A    between atoms: C_1  and  C_2
REMARK    2  A    between atoms: C_2  and  C_4
REMARK    3  A    between atoms: C_10  and  C_32
REMARK    4  A    between atoms: C_19  and  C_31
REMARK    5  A    between atoms: C_20  and  C_30
REMARK    6  A    between atoms: C_23  and  O_26
REMARK    7  A    between atoms: O_26  and  C_27
REMARK    8  A    between atoms: C_27  and  C_29
REMARK                            x       y       z     vdW  Elec       q    Type
REMARK                         _______ _______ _______ _____ _____    ______ ____
ROOT
ATOM      1  C   UNL     1      -4.331   2.837   6.280  0.00  0.00    +0.061 C 
ATOM      2  C   UNL     1      -3.183   2.263   7.147  0.00  0.00    +0.012 C 
ATOM      3  C   UNL     1      -2.187   1.585   6.171  0.00  0.00    +0.005 C 
ATOM      4  C   UNL     1      -2.617   2.107   4.790  0.00  0.00    -0.001 C 
ATOM      5  C   UNL     1      -4.152   2.146   4.915  0.00  0.00    -0.019 C 
ATOM      6  C   UNL     1      -4.740   2.910   3.749  0.00  0.00    +0.008 C 
ATOM      7  C   UNL     1      -3.777   2.852   2.551  0.00  0.00    +0.005 C 
ATOM      8  C   UNL     1      -3.120   1.488   2.458  0.00  0.00    -0.001 C 
ATOM      9  C   UNL     1      -2.182   1.226   3.624  0.00  0.00    -0.004 C 
ATOM     10  C   UNL     1      -0.730   1.602   3.323  0.00  0.00    +0.004 C 
ATOM     11  C   UNL     1      -0.245   1.069   1.985  0.00  0.00    +0.007 C 
ATOM     12  C   UNL     1      -1.144   1.588   0.862  0.00  0.00    -0.023 C 
ATOM     13  C   UNL     1      -2.571   1.137   1.098  0.00  0.00    -0.023 C 
ATOM     14  C   UNL     1      -3.482   1.634  -0.023  0.00  0.00    +0.011 C 
ATOM     15  C   UNL     1      -2.988   1.137  -1.380  0.00  0.00    +0.045 C 
ATOM     16  C   UNL     1      -1.535   1.535  -1.621  0.00  0.00    +0.177 C 
ATOM     17  C   UNL     1      -0.634   1.057  -0.483  0.00  0.00    +0.051 C 
ATOM     18  C   UNL     1      -2.609  -0.404   1.039  0.00  0.00    +0.012 C 
ATOM     19  C   UNL     1      -1.056   3.120   0.835  0.00  0.00    +0.012 C 
ATOM     20  C   UNL     1      -4.755   0.744   5.009  0.00  0.00    +0.012 C 
ENDROOT
BRANCH   1  22
ATOM     21  C   UNL     1      -6.892   3.272   6.507  0.00  0.00    +0.086 C 
ATOM     22  C   UNL     1      -5.667   2.475   6.870  0.00  0.00    +0.134 C 
ATOM     23  O   UNL     1      -5.757   1.545   7.636  0.00  0.00    -0.297 OA
ENDBRANCH   1  22
BRANCH  16  24
ATOM     24  O   UNL     1      -1.080   0.926  -2.867  0.00  0.00    -0.462 OA
BRANCH  24  25
ATOM     25  C   UNL     1      -1.280   1.626  -3.995  0.00  0.00    +0.304 C 
ATOM     26  O   UNL     1      -1.815   2.708  -3.948  0.00  0.00    -0.251 OA
ATOM     27  C   UNL     1      -0.837   1.061  -5.320  0.00  0.00    +0.136 C 
ENDBRANCH  24  25
ENDBRANCH  16  24
TORSDOF 3
