REMARK  Name = ZINC35560243
REMARK  6 active torsions:
REMARK  status: ('A' for Active; 'I' for Inactive)
REMARK    1  A    between atoms: C_1  and  C_2
REMARK    2  A    between atoms: C_2  and  N_3
REMARK    3  A    between atoms: N_3  and  C_4
REMARK    4  A    between atoms: C_4  and  C_6
REMARK    5  A    between atoms: C_4  and  C_16
REMARK    6  A    between atoms: C_9  and  C_12
REMARK                            x       y       z     vdW  Elec       q    Type
REMARK                         _______ _______ _______ _____ _____    ______ ____
ROOT
ATOM      1  C   UNL     1       0.733  -1.960   1.184  0.00  0.00    -0.008 C 
ENDROOT
BRANCH   1   2
ATOM      2  C   UNL     1       1.543  -2.445   0.010  0.00  0.00    -0.035 A 
ATOM      3  C   UNL     1       2.529  -1.646  -0.540  0.00  0.00    +0.026 A 
ATOM      4  C   UNL     1       3.240  -2.113  -1.597  0.00  0.00    +0.056 A 
ATOM      5  S   UNL     1       2.517  -3.727  -1.844  0.00  0.00    -0.074 S 
ATOM      6  C   UNL     1       1.320  -3.673  -0.520  0.00  0.00    +0.058 A 
ATOM      7 BR   UNL     1       0.066  -4.987   0.005  0.00  0.00    -0.042 Br
ATOM      8 BR   UNL     1       4.634  -1.273  -2.558  0.00  0.00    -0.043 Br
ENDBRANCH   1   2
BRANCH   1   9
ATOM      9  C   UNL     1       1.352  -2.461   2.463  0.00  0.00    -0.057 A 
ATOM     10  C   UNL     1       2.447  -1.811   3.002  0.00  0.00    +0.003 A 
ATOM     11  C   UNL     1       3.015  -2.271   4.175  0.00  0.00    +0.012 A 
ATOM     12  C   UNL     1       2.488  -3.379   4.810  0.00  0.00    +0.055 A 
ATOM     13  C   UNL     1       1.393  -4.029   4.272  0.00  0.00    +0.012 A 
ATOM     14  C   UNL     1       0.822  -3.566   3.101  0.00  0.00    +0.003 A 
BRANCH  12  15
ATOM     15  C   UNL     1       3.108  -3.881   6.089  0.00  0.00    +0.417 C 
ATOM     16  F   UNL     1       2.496  -3.256   7.181  0.00  0.00    -0.166 F 
ATOM     17  F   UNL     1       2.928  -5.265   6.183  0.00  0.00    -0.166 F 
ATOM     18  F   UNL     1       4.476  -3.588   6.090  0.00  0.00    -0.166 F 
ENDBRANCH  12  15
ENDBRANCH   1   9
BRANCH   1  19
ATOM     19  N   UNL     1       0.713  -0.491   1.192  0.00  0.00    +0.386 N 
ATOM     20  H   UNL     1       1.659  -0.141   1.185  0.00  0.00    -0.085 HD
ATOM     21  H   UNL     1       0.240  -0.165   2.022  0.00  0.00    -0.085 HD
BRANCH  19  23
ATOM     22  C   UNL     1      -0.019   1.526   0.010  0.00  0.00    -0.017 C 
ATOM     23  C   UNL     1       0.002  -0.004   0.002  0.00  0.00    -0.085 C 
ENDBRANCH  19  23
ENDBRANCH   1  19
TORSDOF 5
