REMARK  Name = ZINC02253559
REMARK  7 active torsions:
REMARK  status: ('A' for Active; 'I' for Inactive)
REMARK    1  A    between atoms: C_1  and  C_2
REMARK    2  A    between atoms: C_9  and  N_24
REMARK    3  A    between atoms: C_10  and  C_13
REMARK    4  A    between atoms: N_17  and  C_21
REMARK    5  A    between atoms: C_21  and  C_22
REMARK    6  A    between atoms: C_21  and  C_23
REMARK    7  A    between atoms: N_27  and  C_30
REMARK                            x       y       z     vdW  Elec       q    Type
REMARK                         _______ _______ _______ _____ _____    ______ ____
ROOT
ATOM      1  C   UNL     1      -6.176   2.508  -0.303  0.00  0.00    +0.047 C 
ATOM      2  C   UNL     1      -4.960   3.398  -0.248  0.00  0.00    -0.007 A 
ATOM      3  C   UNL     1      -5.094   4.750  -0.357  0.00  0.00    +0.008 A 
ATOM      4  C   UNL     1      -3.954   5.564  -0.303  0.00  0.00    +0.019 A 
ATOM      5  C   UNL     1      -2.732   5.010  -0.145  0.00  0.00    +0.096 A 
ATOM      6  N   UNL     1      -2.587   3.658  -0.035  0.00  0.00    -0.267 N 
ATOM      7  C   UNL     1      -3.680   2.838  -0.083  0.00  0.00    +0.145 A 
ATOM      8  N   UNL     1      -3.559   1.515   0.024  0.00  0.00    -0.213 NA
ATOM      9  C   UNL     1      -2.378   0.935   0.180  0.00  0.00    +0.136 A 
ATOM     10  C   UNL     1      -1.212   1.733   0.236  0.00  0.00    +0.081 A 
ATOM     11  C   UNL     1      -1.352   3.137   0.128  0.00  0.00    +0.267 A 
ATOM     12  O   UNL     1      -0.374   3.864   0.176  0.00  0.00    -0.267 OA
ENDROOT
BRANCH  10  13
ATOM     13  C   UNL     1       0.063   1.143   0.403  0.00  0.00    +0.037 C 
ATOM     14  C   UNL     1       0.312   0.351   1.486  0.00  0.00    +0.077 C 
ATOM     15  C   UNL     1      -0.503   0.090   2.624  0.00  0.00    +0.259 C 
ATOM     16  O   UNL     1      -1.602   0.603   2.738  0.00  0.00    -0.269 OA
ATOM     17  N   UNL     1      -0.035  -0.728   3.551  0.00  0.00    -0.253 N 
ATOM     18  C   UNL     1       1.187  -1.292   3.427  0.00  0.00    +0.121 C 
ATOM     19  S   UNL     1       1.988  -2.362   4.496  0.00  0.00    -0.027 S 
ATOM     20  S   UNL     1       1.754  -0.636   1.865  0.00  0.00    -0.061 S 
BRANCH  17  21
ATOM     21  C   UNL     1      -0.850  -1.022   4.732  0.00  0.00    +0.077 C 
ATOM     22  C   UNL     1      -1.122  -2.526   4.803  0.00  0.00    +0.028 C 
ATOM     23  C   UNL     1      -0.102  -0.579   5.991  0.00  0.00    +0.028 C 
ENDBRANCH  17  21
ENDBRANCH  10  13
BRANCH   9  24
ATOM     24  N   UNL     1      -2.287  -0.436   0.287  0.00  0.00    -0.312 N 
ATOM     25  C   UNL     1      -1.560  -1.006  -0.855  0.00  0.00    +0.125 C 
ATOM     26  C   UNL     1      -1.412  -2.517  -0.659  0.00  0.00    +0.124 C 
ATOM     27  N   UNL     1      -2.744  -3.124  -0.529  0.00  0.00    -0.327 N 
ATOM     28  C   UNL     1      -3.471  -2.554   0.614  0.00  0.00    +0.124 C 
ATOM     29  C   UNL     1      -3.619  -1.043   0.417  0.00  0.00    +0.125 C 
BRANCH  27  30
ATOM     30  C   UNL     1      -2.651  -4.515  -0.420  0.00  0.00    +0.030 A 
ATOM     31  C   UNL     1      -3.207  -5.166   0.674  0.00  0.00    +0.026 A 
ATOM     32  C   UNL     1      -3.119  -6.540   0.777  0.00  0.00    +0.040 A 
ATOM     33  C   UNL     1      -2.468  -7.269  -0.204  0.00  0.00    +0.124 A 
ATOM     34  C   UNL     1      -1.908  -6.622  -1.293  0.00  0.00    +0.040 A 
ATOM     35  C   UNL     1      -1.999  -5.248  -1.403  0.00  0.00    +0.026 A 
ATOM     36  F   UNL     1      -2.378  -8.613  -0.098  0.00  0.00    -0.205 F 
ENDBRANCH  27  30
ENDBRANCH   9  24
TORSDOF 4
