REMARK  Name = ZINC13397637
REMARK  5 active torsions:
REMARK  status: ('A' for Active; 'I' for Inactive)
REMARK    1  A    between atoms: C_3  and  S_20
REMARK    2  A    between atoms: C_6  and  N_7
REMARK    3  A    between atoms: C_8  and  C_10
REMARK    4  A    between atoms: S_20  and  N_23
REMARK    5  A    between atoms: C_27  and  C_30
REMARK                            x       y       z     vdW  Elec       q    Type
REMARK                         _______ _______ _______ _____ _____    ______ ____
ROOT
ATOM      1  C   UNL     1      -2.672   1.486   3.018  0.00  0.00    +0.025 A 
ATOM      2  C   UNL     1      -1.952   1.110   1.901  0.00  0.00    +0.030 A 
ATOM      3  C   UNL     1      -0.912   1.901   1.449  0.00  0.00    +0.106 A 
ATOM      4  C   UNL     1      -0.585   3.067   2.116  0.00  0.00    +0.030 A 
ATOM      5  C   UNL     1      -1.305   3.452   3.230  0.00  0.00    +0.025 A 
ATOM      6  C   UNL     1      -2.350   2.660   3.687  0.00  0.00    +0.034 A 
ENDROOT
BRANCH   6   7
ATOM      7  N   UNL     1      -3.076   3.043   4.819  0.00  0.00    -0.281 N 
ATOM      8  C   UNL     1      -3.281   4.350   5.078  0.00  0.00    +0.255 C 
ATOM      9  O   UNL     1      -2.917   5.192   4.279  0.00  0.00    -0.269 OA
ATOM     10  H   UNL     1      -3.433   2.368   5.418  0.00  0.00    +0.155 HD
BRANCH   8  11
ATOM     11  C   UNL     1      -3.941   4.756   6.322  0.00  0.00    +0.075 A 
ATOM     12  C   UNL     1      -4.243   6.028   6.775  0.00  0.00    +0.024 A 
ATOM     13  C   UNL     1      -4.886   6.150   8.001  0.00  0.00    -0.036 A 
ATOM     14  C   UNL     1      -5.139   5.001   8.668  0.00  0.00    -0.006 A 
ATOM     15  S   UNL     1      -4.573   3.738   7.646  0.00  0.00    -0.088 S 
ATOM     16  C   UNL     1      -5.776   4.872  10.034  0.00  0.00    +0.043 C 
ATOM     17  C   UNL     1      -7.245   5.303   9.893  0.00  0.00    +0.005 C 
ATOM     18  C   UNL     1      -7.350   6.810   9.872  0.00  0.00    +0.001 C 
ATOM     19  C   UNL     1      -6.857   7.498   8.625  0.00  0.00    +0.005 C 
ATOM     20  C   UNL     1      -5.330   7.514   8.543  0.00  0.00    +0.036 C 
ENDBRANCH   8  11
ENDBRANCH   6   7
BRANCH   3  21
ATOM     21  S   UNL     1       0.004   1.417   0.023  0.00  0.00    +0.061 S 
ATOM     22  O   UNL     1      -0.142   0.009  -0.095  0.00  0.00    -0.153 OA
ATOM     23  O   UNL     1       1.274   2.046   0.124  0.00  0.00    -0.153 OA
BRANCH  21  24
ATOM     24  N   UNL     1      -0.750   2.083  -1.292  0.00  0.00    -0.176 NA
ATOM     25  C   UNL     1      -1.806   1.348  -2.002  0.00  0.00    +0.109 C 
ATOM     26  C   UNL     1      -3.053   2.241  -2.084  0.00  0.00    +0.018 C 
ATOM     27  C   UNL     1      -2.676   3.577  -2.728  0.00  0.00    +0.017 C 
ATOM     28  C   UNL     1      -1.632   4.286  -1.863  0.00  0.00    +0.118 C 
ATOM     29  C   UNL     1      -0.372   3.418  -1.776  0.00  0.00    +0.124 C 
BRANCH  28  30
ATOM     30  C   UNL     1      -1.284   5.616  -2.482  0.00  0.00    +0.360 C 
ATOM     31  O   UNL     1      -0.147   5.847  -2.819  0.00  0.00    -0.246 OA
ATOM     32  O   UNL     1      -2.238   6.543  -2.659  0.00  0.00    -0.246 OA
ENDBRANCH  28  30
ENDBRANCH  21  24
ENDBRANCH   3  21
TORSDOF 5
