REMARK  Name = ZINC12387768
REMARK  7 active torsions:
REMARK  status: ('A' for Active; 'I' for Inactive)
REMARK    1  A    between atoms: C_5  and  C_7
REMARK    2  A    between atoms: C_7  and  N_54
REMARK    3  A    between atoms: C_13  and  C_15
REMARK    4  A    between atoms: C_15  and  C_16
REMARK    5  A    between atoms: N_18  and  C_19
REMARK    6  A    between atoms: C_19  and  C_20
REMARK    7  A    between atoms: C_20  and  C_21
REMARK                            x       y       z     vdW  Elec       q    Type
REMARK                         _______ _______ _______ _____ _____    ______ ____
ROOT
ATOM      1  C   UNL     1       2.378   0.800  -2.618  0.00  0.00    -0.058 C 
ATOM      2  C   UNL     1       3.030  -0.553  -2.333  0.00  0.00    +0.085 C 
ATOM      3  N   UNL     1       2.884  -0.893  -0.921  0.00  0.00    -0.318 N 
ATOM      4  C   UNL     1       2.591   0.014   0.018  0.00  0.00    +0.200 C 
ATOM      5  O   UNL     1       2.519  -0.349   1.173  0.00  0.00    -0.278 OA
ATOM      6  C   UNL     1       2.348   1.462  -0.299  0.00  0.00    +0.029 C 
ATOM      7  H   UNL     1       3.002  -1.817  -0.651  0.00  0.00    +0.149 HD
ATOM      8  N   UNL     1       2.894   1.773  -1.633  0.00  0.00    +0.392 N 
ATOM      9  H   UNL     1       3.918   1.706  -1.601  0.00  0.00    -0.080 HD
ENDROOT
BRANCH   8  10
ATOM     10  C   UNL     1       2.513   3.148  -2.029  0.00  0.00    -0.021 C 
BRANCH  10  15
ATOM     11  C   UNL     1      -0.981   3.966  -0.876  0.00  0.00    +0.003 A 
ATOM     12  C   UNL     1      -1.693   3.567  -1.997  0.00  0.00    +0.020 A 
ATOM     13  C   UNL     1      -1.008   3.048  -3.080  0.00  0.00    +0.111 A 
ATOM     14  N   UNL     1       0.305   2.932  -3.055  0.00  0.00    -0.262 NA
ATOM     15  C   UNL     1       1.014   3.302  -2.006  0.00  0.00    +0.025 A 
ATOM     16  C   UNL     1       0.398   3.823  -0.884  0.00  0.00    +0.021 A 
ENDBRANCH  10  15
ENDBRANCH   8  10
BRANCH   6  17
ATOM     17  C   UNL     1       3.052   2.335   0.742  0.00  0.00    +0.089 C 
BRANCH  17  18
ATOM     18  C   UNL     1       4.541   2.120   0.653  0.00  0.00    +0.212 C 
ATOM     19  O   UNL     1       5.001   1.416  -0.221  0.00  0.00    -0.276 OA
ATOM     20  N   UNL     1       5.362   2.710   1.545  0.00  0.00    -0.315 N 
ATOM     21  H   UNL     1       4.994   3.273   2.244  0.00  0.00    +0.149 HD
BRANCH  20  22
ATOM     22  C   UNL     1       6.809   2.502   1.458  0.00  0.00    +0.108 C 
BRANCH  22  23
ATOM     23  C   UNL     1       7.504   3.277   2.579  0.00  0.00    +0.049 C 
BRANCH  23  24
ATOM     24  C   UNL     1       8.993   3.062   2.491  0.00  0.00    -0.072 C 
ATOM     25  C   UNL     1       9.696   3.941   1.851  0.00  0.00    -0.028 C 
ATOM     26  C   UNL     1      11.183   3.858   1.671  0.00  0.00    +0.027 C 
ATOM     27  C   UNL     1      11.782   2.869   2.673  0.00  0.00    +0.004 C 
ATOM     28  C   UNL     1      10.974   1.567   2.611  0.00  0.00    +0.005 C 
ATOM     29  C   UNL     1       9.569   1.846   3.154  0.00  0.00    +0.030 C 
ENDBRANCH  23  24
ENDBRANCH  22  23
ENDBRANCH  20  22
ENDBRANCH  17  18
ENDBRANCH   6  17
TORSDOF 7
