REMARK  Name = ZINC60036317
REMARK  9 active torsions:
REMARK  status: ('A' for Active; 'I' for Inactive)
REMARK    1  A    between atoms: C_1  and  C_2
REMARK    2  A    between atoms: C_2  and  C_4
REMARK    3  A    between atoms: C_2  and  N_17
REMARK    4  A    between atoms: N_6  and  C_7
REMARK    5  A    between atoms: C_12  and  O_13
REMARK    6  A    between atoms: O_13  and  C_14
REMARK    7  A    between atoms: N_17  and  C_18
REMARK    8  A    between atoms: C_18  and  C_19
REMARK    9  A    between atoms: C_19  and  C_25
REMARK                            x       y       z     vdW  Elec       q    Type
REMARK                         _______ _______ _______ _____ _____    ______ ____
ROOT
ATOM      1  N   UNL     1       0.631  -0.819   1.354  0.00  0.00    +0.387 N 
ATOM      2  H   UNL     1       0.217  -0.338   2.138  0.00  0.00    -0.085 HD
ATOM      3  H   UNL     1       0.639  -1.811   1.533  0.00  0.00    -0.085 HD
ENDROOT
BRANCH   1   5
ATOM      4  C   UNL     1      -0.273   0.965  -0.060  0.00  0.00    -0.004 C 
ATOM      5  C   UNL     1      -0.155  -0.547   0.143  0.00  0.00    +0.013 C 
BRANCH   5   6
ATOM      6  C   UNL     1      -1.532  -1.142   0.293  0.00  0.00    +0.203 C 
ATOM      7  O   UNL     1      -1.828  -1.734   1.310  0.00  0.00    -0.277 OA
ATOM      8  N   UNL     1      -2.433  -1.016  -0.701  0.00  0.00    -0.284 N 
ATOM      9  H   UNL     1      -2.220  -0.485  -1.484  0.00  0.00    +0.155 HD
BRANCH   8  10
ATOM     10  C   UNL     1      -3.677  -1.652  -0.603  0.00  0.00    +0.076 A 
ATOM     11  C   UNL     1      -4.288  -1.798   0.634  0.00  0.00    +0.027 A 
ATOM     12  C   UNL     1      -5.516  -2.426   0.728  0.00  0.00    +0.002 A 
ATOM     13  C   UNL     1      -6.138  -2.909  -0.409  0.00  0.00    +0.004 A 
ATOM     14  C   UNL     1      -5.535  -2.767  -1.645  0.00  0.00    +0.048 A 
ATOM     15  C   UNL     1      -4.307  -2.134  -1.748  0.00  0.00    +0.148 A 
BRANCH  15  16
ATOM     16  O   UNL     1      -3.715  -1.989  -2.964  0.00  0.00    -0.432 OA
BRANCH  16  17
ATOM     17  C   UNL     1      -4.419  -2.508  -4.094  0.00  0.00    +0.541 C 
ATOM     18  F   UNL     1      -4.612  -3.884  -3.932  0.00  0.00    -0.166 F 
ATOM     19  F   UNL     1      -5.661  -1.872  -4.202  0.00  0.00    -0.166 F 
ENDBRANCH  16  17
ENDBRANCH  15  16
ENDBRANCH   8  10
ENDBRANCH   5   6
ENDBRANCH   1   5
BRANCH   1  20
ATOM     20  C   UNL     1       2.008  -0.344   1.160  0.00  0.00    -0.070 C 
BRANCH  20  21
ATOM     21  C   UNL     1       2.845  -0.692   2.393  0.00  0.00    -0.015 C 
ATOM     22  C   UNL     1       4.231  -0.053   2.267  0.00  0.00    +0.038 C 
ATOM     23  C   UNL     1       4.082   1.470   2.236  0.00  0.00    +0.160 C 
ATOM     24  O   UNL     1       3.407   1.905   3.418  0.00  0.00    -0.380 OA
ATOM     25  C   UNL     1       2.087   1.377   3.565  0.00  0.00    +0.160 C 
ATOM     26  C   UNL     1       2.157  -0.150   3.649  0.00  0.00    +0.038 C 
BRANCH  21  27
ATOM     27  C   UNL     1       2.985  -2.189   2.501  0.00  0.00    -0.043 A 
ATOM     28  C   UNL     1       2.534  -3.001   1.477  0.00  0.00    +0.005 A 
ATOM     29  C   UNL     1       2.662  -4.373   1.576  0.00  0.00    +0.020 A 
ATOM     30  C   UNL     1       3.243  -4.935   2.699  0.00  0.00    +0.041 A 
ATOM     31  C   UNL     1       3.695  -4.122   3.723  0.00  0.00    +0.020 A 
ATOM     32  C   UNL     1       3.571  -2.749   3.621  0.00  0.00    +0.005 A 
ATOM     33 CL   UNL     1       3.404  -6.659   2.824  0.00  0.00    -0.084 Cl
ENDBRANCH  21  27
ENDBRANCH  20  21
ENDBRANCH   1  20
TORSDOF 8
