REMARK  Name = ZINC02328476
REMARK  8 active torsions:
REMARK  status: ('A' for Active; 'I' for Inactive)
REMARK    1  A    between atoms: C_1  and  C_2
REMARK    2  A    between atoms: N_8  and  C_9
REMARK    3  A    between atoms: C_9  and  C_10
REMARK    4  A    between atoms: C_10  and  C_11
REMARK    5  A    between atoms: C_10  and  C_12
REMARK    6  A    between atoms: C_13  and  C_21
REMARK    7  A    between atoms: C_15  and  C_19
REMARK    8  A    between atoms: C_16  and  N_18
REMARK                            x       y       z     vdW  Elec       q    Type
REMARK                         _______ _______ _______ _____ _____    ______ ____
ROOT
ATOM      1  C   UNL     1       5.570   2.782  -1.538  0.00  0.00    +0.064 C 
ATOM      2  C   UNL     1       4.470   1.829  -1.149  0.00  0.00    +0.022 A 
ATOM      3  C   UNL     1       3.283   2.317  -0.730  0.00  0.00    +0.068 A 
ATOM      4  C   UNL     1       2.249   1.429  -0.365  0.00  0.00    +0.141 A 
ATOM      5  C   UNL     1       2.477   0.071  -0.446  0.00  0.00    +0.072 A 
ATOM      6  C   UNL     1       3.724  -0.390  -0.886  0.00  0.00    +0.259 A 
ATOM      7  O   UNL     1       3.939  -1.589  -0.963  0.00  0.00    -0.267 OA
ATOM      8  N   UNL     1       4.686   0.489  -1.225  0.00  0.00    -0.312 N 
ATOM      9  C   UNL     1       1.403  -0.912  -0.067  0.00  0.00    +0.103 C 
ATOM     10  C   UNL     1       0.066  -0.225  -0.018  0.00  0.00    +0.098 C 
ATOM     11  C   UNL     1      -0.028   1.125   0.039  0.00  0.00    +0.199 C 
ATOM     12  O   UNL     1       1.061   1.913   0.053  0.00  0.00    -0.441 OA
ENDROOT
BRANCH   9  13
ATOM     13  C   UNL     1       1.715  -1.495   1.288  0.00  0.00    -0.034 A 
ATOM     14  C   UNL     1       1.808  -0.668   2.391  0.00  0.00    +0.006 A 
ATOM     15  C   UNL     1       2.089  -1.203   3.634  0.00  0.00    +0.020 A 
ATOM     16  C   UNL     1       2.287  -2.565   3.772  0.00  0.00    +0.041 A 
ATOM     17  C   UNL     1       2.199  -3.392   2.666  0.00  0.00    +0.020 A 
ATOM     18  C   UNL     1       1.913  -2.856   1.425  0.00  0.00    +0.006 A 
ATOM     19 CL   UNL     1       2.647  -3.237   5.332  0.00  0.00    -0.084 Cl
ENDBRANCH   9  13
BRANCH  11  20
ATOM     20  N   UNL     1      -1.271   1.705   0.077  0.00  0.00    -0.328 N 
ATOM     21  H   UNL     1      -2.066   1.149   0.063  0.00  0.00    +0.145 HD
ATOM     22  H   UNL     1      -1.355   2.671   0.118  0.00  0.00    +0.145 HD
ENDBRANCH  11  20
BRANCH  10  23
ATOM     23  C   UNL     1      -1.129  -1.012  -0.030  0.00  0.00    +0.101 C 
ATOM     24  N   UNL     1      -2.078  -1.637  -0.041  0.00  0.00    -0.191 NA
ENDBRANCH  10  23
BRANCH   8  25
ATOM     25  C   UNL     1       5.986  -0.006  -1.684  0.00  0.00    +0.128 C 
BRANCH  25  26
ATOM     26  C   UNL     1       6.961  -0.046  -0.506  0.00  0.00    +0.003 C 
ATOM     27  C   UNL     1       6.478  -1.071   0.522  0.00  0.00    +0.009 C 
ATOM     28  C   UNL     1       8.351  -0.444  -1.008  0.00  0.00    +0.009 C 
ENDBRANCH  25  26
ENDBRANCH   8  25
TORSDOF 5
