REMARK  Name = ZINC19854041
REMARK  6 active torsions:
REMARK  status: ('A' for Active; 'I' for Inactive)
REMARK    1  A    between atoms: C_1  and  C_2
REMARK    2  A    between atoms: C_9  and  C_11
REMARK    3  A    between atoms: C_11  and  N_12
REMARK    4  A    between atoms: C_13  and  C_15
REMARK    5  A    between atoms: C_16  and  C_26
REMARK    6  A    between atoms: C_19  and  C_25
REMARK                            x       y       z     vdW  Elec       q    Type
REMARK                         _______ _______ _______ _____ _____    ______ ____
ROOT
ATOM      1  N   UNL     1       3.801  -3.881   1.320  0.00  0.00    -0.303 N 
ATOM      2  C   UNL     1       4.454  -5.038   1.552  0.00  0.00    +0.280 C 
ATOM      3  O   UNL     1       4.913  -5.674   0.623  0.00  0.00    -0.267 OA
ATOM      4  H   UNL     1       3.386  -3.306   2.160  0.00  0.00    +0.149 HD
ENDROOT
BRANCH   2   5
ATOM      5  C   UNL     1       4.610  -5.529   2.928  0.00  0.00    +0.193 A 
ATOM      6  C   UNL     1       5.242  -6.679   3.280  0.00  0.00    +0.008 A 
ATOM      7  C   UNL     1       5.155  -6.759   4.738  0.00  0.00    +0.026 A 
ATOM      8  C   UNL     1       5.601  -7.678   5.691  0.00  0.00    +0.015 A 
ATOM      9  C   UNL     1       5.347  -7.458   7.015  0.00  0.00    -0.048 A 
ATOM     10  C   UNL     1       4.649  -6.329   7.420  0.00  0.00    +0.027 A 
ATOM     11  C   UNL     1       4.201  -5.409   6.496  0.00  0.00    +0.084 A 
ATOM     12  C   UNL     1       4.448  -5.612   5.141  0.00  0.00    +0.154 A 
ATOM     13  O   UNL     1       4.144  -4.910   4.032  0.00  0.00    -0.448 OA
ATOM     14 CL   UNL     1       3.330  -4.002   7.020  0.00  0.00    -0.080 Cl
ATOM     15  C   UNL     1       5.828  -8.449   8.044  0.00  0.00    +0.044 C 
ATOM     16  C   UNL     1       5.900  -7.671   2.356  0.00  0.00    +0.048 C 
ENDBRANCH   2   5
BRANCH   1  17
ATOM     17  C   UNL     1       3.645  -3.391  -0.052  0.00  0.00    +0.159 C 
BRANCH  17  26
ATOM     18  C   UNL     1       3.663   2.187  -0.020  0.00  0.00    +0.064 C 
ATOM     19  C   UNL     1       2.372   1.409  -0.012  0.00  0.00    +0.022 A 
ATOM     20  C   UNL     1       1.194   2.068   0.002  0.00  0.00    +0.021 A 
ATOM     21  C   UNL     1      -0.016   1.356   0.009  0.00  0.00    +0.005 A 
ATOM     22  C   UNL     1       0.002  -0.004   0.002  0.00  0.00    +0.045 A 
ATOM     23  C   UNL     1       1.240  -0.678  -0.013  0.00  0.00    +0.116 A 
ATOM     24  N   UNL     1       2.405   0.045  -0.021  0.00  0.00    -0.305 N 
ATOM     25  C   UNL     1       3.434  -0.856  -0.035  0.00  0.00    +0.115 A 
ATOM     26  C   UNL     1       2.885  -2.090  -0.037  0.00  0.00    +0.051 A 
ATOM     27  N   UNL     1       1.556  -1.965  -0.023  0.00  0.00    -0.342 N 
ATOM     28  H   UNL     1       0.761  -2.726  -0.020  0.00  0.00    +0.167 HD
ENDBRANCH  17  26
ENDBRANCH   1  17
TORSDOF 3
