REMARK  Name = ZINC12424821
REMARK  6 active torsions:
REMARK  status: ('A' for Active; 'I' for Inactive)
REMARK    1  A    between atoms: C_10  and  C_13
REMARK    2  A    between atoms: C_13  and  C_14
REMARK    3  A    between atoms: C_14  and  O_16
REMARK    4  A    between atoms: O_16  and  C_17
REMARK    5  A    between atoms: C_17  and  C_18
REMARK    6  A    between atoms: N_20  and  C_21
REMARK                            x       y       z     vdW  Elec       q    Type
REMARK                         _______ _______ _______ _____ _____    ______ ____
ROOT
ATOM      1  O   UNL     1      -3.427  -2.044  -3.913  0.00  0.00    -0.455 OA
ENDROOT
BRANCH   1   2
ATOM      2  C   UNL     1      -3.677  -1.910  -2.601  0.00  0.00    +0.309 C 
ATOM      3  O   UNL     1      -3.518  -0.841  -2.062  0.00  0.00    -0.251 OA
BRANCH   2   4
ATOM      4  C   UNL     1      -4.157  -3.094  -1.802  0.00  0.00    +0.144 C 
BRANCH   4  14
ATOM      5  C   UNL     1      -0.813  -6.235   1.108  0.00  0.00    +0.002 A 
ATOM      6  C   UNL     1      -0.028  -5.126   0.851  0.00  0.00    +0.001 A 
ATOM      7  C   UNL     1      -0.622  -3.897   0.630  0.00  0.00    +0.016 A 
ATOM      8  C   UNL     1      -2.002  -3.783   0.659  0.00  0.00    +0.030 A 
ATOM      9  C   UNL     1      -2.802  -4.901   0.897  0.00  0.00    +0.047 A 
ATOM     10  C   UNL     1      -2.189  -6.126   1.137  0.00  0.00    +0.024 A 
ATOM     11  N   UNL     1      -4.191  -4.816   0.925  0.00  0.00    -0.284 N 
ATOM     12  C   UNL     1      -4.936  -3.828   0.439  0.00  0.00    +0.231 C 
ATOM     13  O   UNL     1      -6.132  -3.857   0.635  0.00  0.00    -0.274 OA
ATOM     14  C   UNL     1      -4.365  -2.675  -0.345  0.00  0.00    +0.148 C 
ATOM     15  S   UNL     1      -2.767  -2.214   0.394  0.00  0.00    -0.110 S 
ATOM     16  H   UNL     1      -4.664  -5.552   1.343  0.00  0.00    +0.155 HD
ENDBRANCH   4  14
ENDBRANCH   2   4
ENDBRANCH   1   2
BRANCH   1  17
ATOM     17  C   UNL     1      -2.968  -0.862  -4.621  0.00  0.00    +0.328 C 
BRANCH  17  18
ATOM     18  C   UNL     1      -2.741  -1.200  -6.071  0.00  0.00    +0.255 C 
ATOM     19  O   UNL     1      -2.946  -2.328  -6.470  0.00  0.00    -0.272 OA
ATOM     20  N   UNL     1      -2.310  -0.251  -6.926  0.00  0.00    -0.280 N 
ATOM     21  H   UNL     1      -2.216   0.666  -6.624  0.00  0.00    +0.155 HD
BRANCH  20  22
ATOM     22  C   UNL     1      -1.999  -0.589  -8.248  0.00  0.00    +0.073 A 
ATOM     23  C   UNL     1      -0.713  -0.998  -8.578  0.00  0.00    +0.082 A 
ATOM     24  C   UNL     1      -0.409  -1.336  -9.884  0.00  0.00    +0.063 A 
ATOM     25  C   UNL     1      -1.382  -1.257 -10.865  0.00  0.00    +0.043 A 
ATOM     26  C   UNL     1      -2.663  -0.844 -10.541  0.00  0.00    +0.063 A 
ATOM     27  C   UNL     1      -2.974  -0.510  -9.235  0.00  0.00    +0.082 A 
ATOM     28 CL   UNL     1      -4.580   0.006  -8.829  0.00  0.00    -0.080 Cl
ATOM     29 CL   UNL     1      -3.880  -0.747 -11.774  0.00  0.00    -0.082 Cl
ATOM     30 CL   UNL     1       1.196  -1.854 -10.296  0.00  0.00    -0.082 Cl
ATOM     31 CL   UNL     1       0.511  -1.091  -7.349  0.00  0.00    -0.080 Cl
ENDBRANCH  20  22
ENDBRANCH  17  18
ENDBRANCH   1  17
TORSDOF 6
