REMARK  Name = ZINC35533075
REMARK  10 active torsions:
REMARK  status: ('A' for Active; 'I' for Inactive)
REMARK    1  A    between atoms: C_1  and  C_2
REMARK    2  A    between atoms: C_2  and  C_3
REMARK    3  A    between atoms: C_2  and  N_4
REMARK    4  A    between atoms: C_5  and  C_7
REMARK    5  A    between atoms: C_10  and  C_26
REMARK    6  A    between atoms: C_11  and  C_12
REMARK    7  A    between atoms: C_11  and  C_13
REMARK    8  A    between atoms: N_15  and  O_16
REMARK    9  A    between atoms: O_16  and  C_17
REMARK   10  A    between atoms: C_17  and  C_19
REMARK                            x       y       z     vdW  Elec       q    Type
REMARK                         _______ _______ _______ _____ _____    ______ ____
ROOT
ATOM      1  C   UNL     1       0.780  -1.133   3.576  0.00  0.00    +0.058 C 
ATOM      2  C   UNL     1       1.955  -0.242   4.085  0.00  0.00    +0.018 C 
ATOM      3  C   UNL     1       2.175  -0.692   5.548  0.00  0.00    +0.014 C 
ATOM      4  C   UNL     1       1.106  -1.802   5.782  0.00  0.00    +0.015 C 
ATOM      5  C   UNL     1      -0.069  -1.269   4.890  0.00  0.00    -0.010 C 
ATOM      6  C   UNL     1      -1.206  -2.282   4.738  0.00  0.00    +0.013 C 
ATOM      7  C   UNL     1      -0.578   0.085   5.389  0.00  0.00    +0.013 C 
ATOM      8  C   UNL     1       1.592  -2.990   4.939  0.00  0.00    +0.066 C 
ATOM      9  N   UNL     1       2.067  -4.100   5.364  0.00  0.00    -0.083 NA
ATOM     10  C   UNL     1       1.374  -2.572   3.481  0.00  0.00    +0.071 C 
ATOM     11  C   UNL     1       0.761  -2.100   7.243  0.00  0.00    +0.018 C 
ENDROOT
BRANCH   1  13
ATOM     12  N   UNL     1       0.711  -0.489   1.189  0.00  0.00    -0.313 N 
ATOM     13  C   UNL     1       0.051  -0.633   2.355  0.00  0.00    +0.220 C 
ATOM     14  O   UNL     1      -1.129  -0.361   2.423  0.00  0.00    -0.275 OA
ATOM     15  H   UNL     1       1.654  -0.707   1.135  0.00  0.00    +0.149 HD
BRANCH  12  17
ATOM     16  C   UNL     1      -0.019   1.526   0.010  0.00  0.00    +0.027 C 
ATOM     17  C   UNL     1       0.002  -0.004   0.002  0.00  0.00    +0.067 C 
ATOM     18  C   UNL     1       0.718  -0.497  -1.257  0.00  0.00    +0.027 C 
ENDBRANCH  12  17
ENDBRANCH   1  13
BRANCH   9  19
ATOM     19  O   UNL     1       2.187  -4.333   6.755  0.00  0.00    -0.312 OA
BRANCH  19  20
ATOM     20  C   UNL     1       2.700  -5.539   7.066  0.00  0.00    +0.366 C 
ATOM     21  O   UNL     1       3.011  -6.312   6.183  0.00  0.00    -0.243 OA
BRANCH  20  22
ATOM     22  C   UNL     1       2.883  -5.920   8.482  0.00  0.00    +0.061 A 
ATOM     23  C   UNL     1       2.520  -5.036   9.499  0.00  0.00    +0.015 A 
ATOM     24  C   UNL     1       2.694  -5.399  10.819  0.00  0.00    +0.001 A 
ATOM     25  C   UNL     1       3.227  -6.636  11.135  0.00  0.00    +0.000 A 
ATOM     26  C   UNL     1       3.588  -7.517  10.131  0.00  0.00    +0.001 A 
ATOM     27  C   UNL     1       3.414  -7.170   8.808  0.00  0.00    +0.015 A 
ENDBRANCH  20  22
ENDBRANCH  19  20
ENDBRANCH   9  19
TORSDOF 5
