REMARK  Name = ZINC38773697
REMARK  5 active torsions:
REMARK  status: ('A' for Active; 'I' for Inactive)
REMARK    1  A    between atoms: C_1  and  C_2
REMARK    2  A    between atoms: C_2  and  O_3
REMARK    3  A    between atoms: O_3  and  C_4
REMARK    4  A    between atoms: C_7  and  C_10
REMARK    5  A    between atoms: C_22  and  C_27
REMARK                            x       y       z     vdW  Elec       q    Type
REMARK                         _______ _______ _______ _____ _____    ______ ____
ROOT
ATOM      1  C   UNL     1       1.109  -6.040  -1.847  0.00  0.00    +0.106 C 
ATOM      2  C   UNL     1       2.510  -6.503  -1.445  0.00  0.00    +0.047 C 
ATOM      3  C   UNL     1       2.825  -6.119   0.001  0.00  0.00    +0.011 C 
ATOM      4  C   UNL     1       4.217  -6.663   0.350  0.00  0.00    +0.028 C 
ATOM      5  C   UNL     1       4.258  -8.172   0.111  0.00  0.00    +0.160 C 
ATOM      6  O   UNL     1       3.889  -8.467  -1.242  0.00  0.00    -0.372 OA
ATOM      7  C   UNL     1       2.575  -8.027  -1.571  0.00  0.00    +0.155 C 
ATOM      8  C   UNL     1       2.171  -8.446  -2.955  0.00  0.00    +0.003 A 
ATOM      9  C   UNL     1       2.608  -9.659  -3.457  0.00  0.00    +0.011 A 
ATOM     10  C   UNL     1       2.240 -10.062  -4.726  0.00  0.00    -0.050 A 
ATOM     11  C   UNL     1       1.430  -9.253  -5.502  0.00  0.00    +0.005 A 
ATOM     12  C   UNL     1       0.991  -8.041  -5.010  0.00  0.00    +0.023 A 
ATOM     13  C   UNL     1       1.362  -7.630  -3.734  0.00  0.00    +0.033 A 
ATOM     14  N   UNL     1       0.918  -6.389  -3.264  0.00  0.00    -0.336 N 
ATOM     15  C   UNL     1       2.722 -11.384  -5.265  0.00  0.00    +0.044 C 
ATOM     16  H   UNL     1       0.488  -5.763  -3.867  0.00  0.00    +0.147 HD
ENDROOT
BRANCH   1  20
ATOM     17  C   UNL     1       0.777  -1.810  -1.336  0.00  0.00    +0.121 A 
ATOM     18  C   UNL     1       0.243  -2.669  -0.386  0.00  0.00    +0.046 A 
ATOM     19  C   UNL     1       0.351  -4.036  -0.554  0.00  0.00    +0.009 A 
ATOM     20  C   UNL     1       0.992  -4.548  -1.667  0.00  0.00    -0.027 A 
ATOM     21  C   UNL     1       1.525  -3.694  -2.615  0.00  0.00    +0.009 A 
ATOM     22  C   UNL     1       1.414  -2.327  -2.455  0.00  0.00    +0.046 A 
BRANCH  17  23
ATOM     23  O   UNL     1       0.671  -0.465  -1.174  0.00  0.00    -0.492 OA
BRANCH  23  25
ATOM     24  C   UNL     1      -0.019   1.526   0.010  0.00  0.00    +0.048 C 
ATOM     25  C   UNL     1       0.002  -0.004   0.002  0.00  0.00    +0.225 C 
ENDBRANCH  23  25
ENDBRANCH  17  23
ENDBRANCH   1  20
TORSDOF 3
