REMARK  Name = ZINC05340379
REMARK  3 active torsions:
REMARK  status: ('A' for Active; 'I' for Inactive)
REMARK    1  A    between atoms: C_1  and  C_2
REMARK    2  A    between atoms: C_5  and  N_8
REMARK    3  A    between atoms: C_12  and  N_21
REMARK                            x       y       z     vdW  Elec       q    Type
REMARK                         _______ _______ _______ _____ _____    ______ ____
ROOT
ATOM      1  N   UNL     1       0.058  -4.171  -0.021  0.00  0.00    -0.236 N 
ATOM      2  C   UNL     1      -0.965  -4.982   0.457  0.00  0.00    +0.050 A 
ATOM      3  C   UNL     1      -2.208  -4.806   1.037  0.00  0.00    +0.027 A 
ATOM      4  C   UNL     1      -2.974  -5.915   1.394  0.00  0.00    +0.035 A 
ATOM      5  C   UNL     1      -2.560  -7.206   1.202  0.00  0.00    +0.134 A 
ATOM      6  C   UNL     1      -1.303  -7.427   0.615  0.00  0.00    +0.015 A 
ATOM      7  C   UNL     1      -0.559  -6.299   0.267  0.00  0.00    +0.018 A 
ATOM      8  C   UNL     1       0.712  -6.342  -0.326  0.00  0.00    +0.047 A 
ATOM      9  C   UNL     1       1.241  -7.597  -0.571  0.00  0.00    +0.014 A 
ATOM     10  C   UNL     1       0.510  -8.735  -0.230  0.00  0.00    +0.001 A 
ATOM     11  C   UNL     1      -0.730  -8.682   0.348  0.00  0.00    +0.011 A 
ATOM     12  C   UNL     1       1.077  -4.932  -0.502  0.00  0.00    +0.256 C 
ATOM     13  O   UNL     1       2.111  -4.516  -0.991  0.00  0.00    -0.269 OA
ENDROOT
BRANCH   1  18
ATOM     14  C   UNL     1      -0.018   1.503   0.010  0.00  0.00    +0.044 C 
ATOM     15  C   UNL     1       0.002  -0.004   0.002  0.00  0.00    -0.050 A 
ATOM     16  C   UNL     1       0.006  -0.687  -1.200  0.00  0.00    +0.005 A 
ATOM     17  C   UNL     1       0.024  -2.068  -1.211  0.00  0.00    +0.024 A 
ATOM     18  C   UNL     1       0.040  -2.771  -0.013  0.00  0.00    +0.042 A 
ATOM     19  C   UNL     1       0.036  -2.082   1.192  0.00  0.00    +0.024 A 
ATOM     20  C   UNL     1       0.023  -0.700   1.197  0.00  0.00    +0.005 A 
ENDBRANCH   1  18
BRANCH   5  21
ATOM     21  N   UNL     1      -3.419  -8.343   1.603  0.00  0.00    +0.057 N 
ATOM     22  O   UNL     1      -4.498  -8.138   2.107  0.00  0.00    -0.126 OA
ATOM     23  O   UNL     1      -3.040  -9.478   1.426  0.00  0.00    -0.126 OA
ENDBRANCH   5  21
TORSDOF 2
