REMARK  Name = ZINC12632048
REMARK  11 active torsions:
REMARK  status: ('A' for Active; 'I' for Inactive)
REMARK    1  A    between atoms: C_1  and  C_2
REMARK    2  A    between atoms: C_2  and  N_3
REMARK    3  A    between atoms: N_3  and  C_4
REMARK    4  A    between atoms: N_3  and  S_6
REMARK    5  A    between atoms: C_4  and  C_5
REMARK    6  A    between atoms: S_6  and  C_9
REMARK    7  A    between atoms: C_12  and  S_15
REMARK    8  A    between atoms: S_15  and  C_16
REMARK    9  A    between atoms: C_16  and  C_18
REMARK   10  A    between atoms: C_16  and  C_19
REMARK   11  A    between atoms: N_24  and  C_25
REMARK                            x       y       z     vdW  Elec       q    Type
REMARK                         _______ _______ _______ _____ _____    ______ ____
ROOT
ATOM      1  C   UNL     1       7.303   0.012  -5.206  0.00  0.00    +0.233 C 
ATOM      2  O   UNL     1       7.931  -1.016  -5.336  0.00  0.00    -0.274 OA
ATOM      3  N   UNL     1       7.867   1.193  -5.528  0.00  0.00    -0.239 N 
ATOM      4  C   UNL     1       9.131   1.230  -5.995  0.00  0.00    +0.306 C 
ATOM      5  O   UNL     1       9.761   0.199  -6.125  0.00  0.00    -0.252 OA
ATOM      6  N   UNL     1       9.696   2.410  -6.316  0.00  0.00    -0.294 N 
ATOM      7  H   UNL     1       7.365   2.016  -5.424  0.00  0.00    +0.159 HD
ATOM      8  H   UNL     1       9.194   3.233  -6.212  0.00  0.00    +0.151 HD
ENDROOT
BRANCH   6   9
ATOM      9  C   UNL     1      11.070   2.451  -6.824  0.00  0.00    +0.037 C 
ATOM     10  C   UNL     1      12.018   1.860  -5.778  0.00  0.00    +0.029 C 
ATOM     11  C   UNL     1      13.452   1.903  -6.308  0.00  0.00    -0.008 C 
ATOM     12  C   UNL     1      13.848   3.353  -6.594  0.00  0.00    +0.007 C 
ATOM     13  C   UNL     1      12.900   3.943  -7.640  0.00  0.00    -0.008 C 
ATOM     14  C   UNL     1      11.466   3.901  -7.110  0.00  0.00    +0.029 C 
ATOM     15  C   UNL     1      12.992   3.125  -8.930  0.00  0.00    +0.007 C 
ATOM     16  C   UNL     1      12.596   1.675  -8.644  0.00  0.00    -0.008 C 
ATOM     17  C   UNL     1      13.544   1.085  -7.598  0.00  0.00    +0.007 C 
ATOM     18  C   UNL     1      11.162   1.633  -8.114  0.00  0.00    +0.029 C 
ENDBRANCH   6   9
BRANCH   1  19
ATOM     19  C   UNL     1       5.889  -0.029  -4.684  0.00  0.00    +0.136 C 
ATOM     20  C   UNL     1       4.912  -0.049  -5.860  0.00  0.00    +0.029 C 
BRANCH  19  21
ATOM     21  S   UNL     1       5.659  -1.523  -3.681  0.00  0.00    -0.093 S 
BRANCH  21  25
ATOM     22  C   UNL     1       1.510  -1.061  -2.043  0.00  0.00    +0.124 A 
ATOM     23  C   UNL     1       2.233  -2.195  -1.696  0.00  0.00    +0.032 A 
ATOM     24  C   UNL     1       3.512  -2.342  -2.199  0.00  0.00    +0.037 A 
ATOM     25  C   UNL     1       4.030  -1.353  -3.031  0.00  0.00    +0.098 A 
ATOM     26  N   UNL     1       3.309  -0.285  -3.338  0.00  0.00    -0.247 NA
ATOM     27  C   UNL     1       2.083  -0.123  -2.877  0.00  0.00    +0.140 A 
BRANCH  22  28
ATOM     28  S   UNL     1      -0.125  -0.826  -1.430  0.00  0.00    +0.062 S 
ATOM     29  O   UNL     1      -0.630  -2.116  -1.114  0.00  0.00    -0.153 OA
ATOM     30  O   UNL     1      -0.780   0.046  -2.342  0.00  0.00    -0.153 OA
BRANCH  28  31
ATOM     31  N   UNL     1       0.002  -0.004   0.002  0.00  0.00    -0.177 NA
BRANCH  31  33
ATOM     32  C   UNL     1       1.418   1.990  -0.001  0.00  0.00    +0.022 C 
ATOM     33  C   UNL     1      -0.018   1.461   0.010  0.00  0.00    +0.106 C 
ENDBRANCH  31  33
BRANCH  31  34
ATOM     34  C   UNL     1       0.135  -0.742   1.261  0.00  0.00    +0.106 C 
ATOM     35  C   UNL     1      -1.245  -0.910   1.901  0.00  0.00    +0.022 C 
ENDBRANCH  31  34
ENDBRANCH  28  31
ENDBRANCH  22  28
ENDBRANCH  21  25
ENDBRANCH  19  21
ENDBRANCH   1  19
TORSDOF 8
