REMARK  Name = ZINC08961515
REMARK  10 active torsions:
REMARK  status: ('A' for Active; 'I' for Inactive)
REMARK    1  A    between atoms: C_1  and  C_2
REMARK    2  A    between atoms: C_2  and  O_3
REMARK    3  A    between atoms: O_3  and  C_4
REMARK    4  A    between atoms: C_5  and  C_33
REMARK    5  A    between atoms: C_7  and  S_11
REMARK    6  A    between atoms: C_9  and  C_10
REMARK    7  A    between atoms: S_11  and  N_14
REMARK    8  A    between atoms: N_14  and  C_15
REMARK    9  A    between atoms: N_23  and  C_32
REMARK   10  A    between atoms: C_26  and  C_31
REMARK                            x       y       z     vdW  Elec       q    Type
REMARK                         _______ _______ _______ _____ _____    ______ ____
ROOT
ATOM      1  C   UNL     1       4.183   4.531  -3.452  0.00  0.00    +0.049 A 
ATOM      2  C   UNL     1       4.931   3.454  -2.989  0.00  0.00    +0.028 A 
ATOM      3  C   UNL     1       4.556   2.791  -1.837  0.00  0.00    +0.049 A 
ATOM      4  C   UNL     1       3.430   3.196  -1.133  0.00  0.00    +0.141 A 
ATOM      5  C   UNL     1       2.687   4.293  -1.580  0.00  0.00    +0.081 A 
ATOM      6  C   UNL     1       3.065   4.952  -2.754  0.00  0.00    +0.041 A 
ATOM      7  C   UNL     1       1.536   4.782  -0.808  0.00  0.00    +0.254 C 
ATOM      8  O   UNL     1       1.370   5.985  -0.747  0.00  0.00    -0.270 OA
ATOM      9  N   UNL     1       0.664   4.010  -0.174  0.00  0.00    -0.267 N 
ATOM     10  C   UNL     1       0.670   2.617  -0.139  0.00  0.00    +0.079 A 
ATOM     11  C   UNL     1      -0.544   1.938  -0.187  0.00  0.00    +0.030 A 
ATOM     12  C   UNL     1      -0.576   0.561  -0.092  0.00  0.00    -0.048 A 
ATOM     13  C   UNL     1       0.600  -0.152   0.048  0.00  0.00    +0.007 A 
ATOM     14  C   UNL     1       1.811   0.513   0.080  0.00  0.00    +0.048 A 
ATOM     15  C   UNL     1       1.852   1.896  -0.020  0.00  0.00    +0.150 A 
ATOM     16  O   UNL     1       3.057   2.519  -0.022  0.00  0.00    -0.453 OA
ATOM     17  C   UNL     1      -1.895  -0.166  -0.141  0.00  0.00    +0.044 C 
ATOM     18  C   UNL     1      -0.408   4.687   0.560  0.00  0.00    +0.139 C 
ENDROOT
BRANCH   1  19
ATOM     19  N   UNL     1       4.562   5.190  -4.627  0.00  0.00    -0.216 N 
ATOM     20  H   UNL     1       4.982   6.063  -4.580  0.00  0.00    +0.174 HD
BRANCH  19  21
ATOM     21  S   UNL     1       4.294   4.479  -6.099  0.00  0.00    +0.072 S 
ATOM     22  O   UNL     1       4.730   5.407  -7.083  0.00  0.00    -0.150 OA
ATOM     23  O   UNL     1       4.813   3.159  -6.013  0.00  0.00    -0.150 OA
BRANCH  21  27
ATOM     24  C   UNL     1      -0.189   4.079  -6.595  0.00  0.00    +0.126 A 
ATOM     25  C   UNL     1       0.467   5.198  -7.086  0.00  0.00    -0.007 A 
ATOM     26  C   UNL     1       1.834   5.318  -6.933  0.00  0.00    +0.035 A 
ATOM     27  C   UNL     1       2.549   4.323  -6.292  0.00  0.00    +0.109 A 
ATOM     28  C   UNL     1       1.899   3.204  -5.807  0.00  0.00    +0.035 A 
ATOM     29  C   UNL     1       0.530   3.082  -5.952  0.00  0.00    -0.007 A 
ATOM     30  C   UNL     1      -0.179   1.865  -5.417  0.00  0.00    +0.047 C 
ATOM     31  C   UNL     1      -0.312   6.282  -7.785  0.00  0.00    +0.047 C 
BRANCH  24  32
ATOM     32  O   UNL     1      -1.535   3.958  -6.743  0.00  0.00    -0.492 OA
BRANCH  32  34
ATOM     33  C   UNL     1      -3.531   3.269  -7.918  0.00  0.00    +0.048 C 
ATOM     34  C   UNL     1      -2.002   3.310  -7.928  0.00  0.00    +0.226 C 
ENDBRANCH  32  34
ENDBRANCH  24  32
ENDBRANCH  21  27
ENDBRANCH  19  21
ENDBRANCH   1  19
TORSDOF 5
