REMARK  Name = ZINC02091284
REMARK  8 active torsions:
REMARK  status: ('A' for Active; 'I' for Inactive)
REMARK    1  A    between atoms: C_1  and  C_2
REMARK    2  A    between atoms: C_2  and  C_3
REMARK    3  A    between atoms: C_2  and  O_4
REMARK    4  A    between atoms: O_4  and  C_5
REMARK    5  A    between atoms: C_5  and  C_7
REMARK    6  A    between atoms: C_11  and  N_12
REMARK    7  A    between atoms: C_13  and  C_15
REMARK    8  A    between atoms: C_15  and  C_20
REMARK                            x       y       z     vdW  Elec       q    Type
REMARK                         _______ _______ _______ _____ _____    ______ ____
ROOT
ATOM      1  C   UNL     1      -0.124   0.393   4.774  0.00  0.00    +0.091 A 
ATOM      2  C   UNL     1       0.011  -1.034   5.039  0.00  0.00    -0.021 A 
ATOM      3  C   UNL     1       0.615  -1.341   6.206  0.00  0.00    -0.004 A 
ATOM      4  S   UNL     1       1.010   0.222   6.941  0.00  0.00    -0.077 S 
ATOM      5  C   UNL     1       0.381   1.274   5.718  0.00  0.00    +0.086 A 
ATOM      6  C   UNL     1       0.885  -2.702   6.768  0.00  0.00    +0.043 C 
ATOM      7  C   UNL     1       1.538  -3.574   5.687  0.00  0.00    +0.005 C 
ATOM      8  C   UNL     1       0.435  -4.277   4.902  0.00  0.00    +0.001 C 
ATOM      9  C   UNL     1      -0.801  -3.384   4.817  0.00  0.00    +0.005 C 
ATOM     10  C   UNL     1      -0.480  -2.097   4.064  0.00  0.00    +0.037 C 
ENDROOT
BRANCH   5  11
ATOM     11  N   UNL     1       0.381   2.660   5.689  0.00  0.00    -0.279 N 
ATOM     12  C   UNL     1       0.924   3.355   6.708  0.00  0.00    +0.226 C 
ATOM     13  O   UNL     1       1.413   2.768   7.650  0.00  0.00    -0.275 OA
ATOM     14  H   UNL     1      -0.010   3.130   4.936  0.00  0.00    +0.155 HD
BRANCH  12  15
ATOM     15  C   UNL     1       0.924   4.862   6.678  0.00  0.00    +0.080 C 
ATOM     16  C   UNL     1       2.272   5.565   6.510  0.00  0.00    +0.058 C 
ATOM     17  C   UNL     1       1.557   5.593   7.863  0.00  0.00    +0.133 C 
ATOM     18 CL   UNL     1       0.808   7.150   8.377  0.00  0.00    -0.100 Cl
ATOM     19 CL   UNL     1       2.245   4.585   9.191  0.00  0.00    -0.100 Cl
ATOM     20  C   UNL     1      -0.296   5.508   6.019  0.00  0.00    +0.024 C 
ENDBRANCH  12  15
ENDBRANCH   5  11
BRANCH   1  21
ATOM     21  C   UNL     1      -0.765   0.878   3.550  0.00  0.00    +0.342 C 
ATOM     22  O   UNL     1      -1.964   1.083   3.532  0.00  0.00    -0.245 OA
BRANCH  21  23
ATOM     23  O   UNL     1      -0.027   1.098   2.443  0.00  0.00    -0.458 OA
BRANCH  23  25
ATOM     24  C   UNL     1      -0.013   1.086   0.008  0.00  0.00    +0.052 C 
ATOM     25  C   UNL     1      -0.729   1.579   1.267  0.00  0.00    +0.171 C 
ATOM     26  C   UNL     1      -0.750   3.109   1.275  0.00  0.00    +0.052 C 
ENDBRANCH  23  25
ENDBRANCH  21  23
ENDBRANCH   1  21
TORSDOF 5
