REMARK  Name = ZINC64798320
REMARK  6 active torsions:
REMARK  status: ('A' for Active; 'I' for Inactive)
REMARK    1  A    between atoms: C_1  and  C_2
REMARK    2  A    between atoms: C_5  and  S_8
REMARK    3  A    between atoms: S_8  and  C_11
REMARK    4  A    between atoms: C_20  and  C_22
REMARK    5  A    between atoms: C_24  and  C_29
REMARK    6  A    between atoms: C_27  and  C_28
REMARK                            x       y       z     vdW  Elec       q    Type
REMARK                         _______ _______ _______ _____ _____    ______ ____
ROOT
ATOM      1  C   UNL     1       1.701  -5.203   0.104  0.00  0.00    +0.122 A 
ATOM      2  C   UNL     1       2.102  -5.973   1.145  0.00  0.00    +0.074 A 
ATOM      3  S   UNL     1       3.812  -6.292   0.736  0.00  0.00    -0.097 S 
ATOM      4  C   UNL     1       3.871  -5.378  -0.778  0.00  0.00    +0.021 A 
ATOM      5  C   UNL     1       2.600  -4.889  -0.911  0.00  0.00    +0.070 A 
ATOM      6  N   UNL     1       2.305  -4.091  -2.055  0.00  0.00    -0.283 N 
ATOM      7  C   UNL     1       3.202  -4.034  -3.054  0.00  0.00    +0.218 C 
ATOM      8  O   UNL     1       3.034  -3.217  -3.935  0.00  0.00    -0.275 OA
ATOM      9  C   UNL     1       4.404  -4.932  -3.131  0.00  0.00    +0.109 C 
ATOM     10  C   UNL     1       4.999  -5.154  -1.728  0.00  0.00    +0.067 C 
ATOM     11  H   UNL     1       1.472  -3.598  -2.111  0.00  0.00    +0.155 HD
ENDROOT
BRANCH  10  12
ATOM     12  C   UNL     1       5.893  -6.367  -1.752  0.00  0.00    -0.036 A 
ATOM     13  C   UNL     1       5.402  -7.578  -2.204  0.00  0.00    +0.008 A 
ATOM     14  C   UNL     1       6.222  -8.690  -2.226  0.00  0.00    -0.050 A 
ATOM     15  C   UNL     1       7.533  -8.592  -1.797  0.00  0.00    +0.003 A 
ATOM     16  C   UNL     1       8.023  -7.381  -1.346  0.00  0.00    +0.004 A 
ATOM     17  C   UNL     1       7.204  -6.267  -1.328  0.00  0.00    -0.047 A 
ATOM     18  C   UNL     1       7.741  -4.946  -0.841  0.00  0.00    +0.044 C 
ATOM     19  C   UNL     1       5.688 -10.011  -2.718  0.00  0.00    +0.044 C 
ENDBRANCH  10  12
BRANCH   1  20
ATOM     20  S   UNL     1       0.044  -4.606   0.033  0.00  0.00    +0.027 S 
ATOM     21  O   UNL     1       0.124  -3.220  -0.266  0.00  0.00    -0.164 OA
ATOM     22  O   UNL     1      -0.615  -5.099   1.191  0.00  0.00    -0.164 OA
BRANCH  20  27
ATOM     23  C   UNL     1      -2.601  -7.240  -4.708  0.00  0.00    +0.044 C 
ATOM     24  C   UNL     1      -1.940  -6.583  -3.524  0.00  0.00    -0.050 A 
ATOM     25  C   UNL     1      -1.875  -7.245  -2.312  0.00  0.00    +0.005 A 
ATOM     26  C   UNL     1      -1.269  -6.641  -1.226  0.00  0.00    +0.027 A 
ATOM     27  C   UNL     1      -0.727  -5.376  -1.352  0.00  0.00    +0.094 A 
ATOM     28  C   UNL     1      -0.791  -4.714  -2.564  0.00  0.00    +0.027 A 
ATOM     29  C   UNL     1      -1.393  -5.319  -3.651  0.00  0.00    +0.005 A 
ENDBRANCH  20  27
ENDBRANCH   1  20
TORSDOF 3
