REMARK  Name = ZINC01077323
REMARK  4 active torsions:
REMARK  status: ('A' for Active; 'I' for Inactive)
REMARK    1  A    between atoms: C_4  and  C_7
REMARK    2  A    between atoms: C_18  and  C_19
REMARK    3  A    between atoms: C_22  and  C_25
REMARK    4  A    between atoms: C_30  and  C_32
REMARK                            x       y       z     vdW  Elec       q    Type
REMARK                         _______ _______ _______ _____ _____    ______ ____
ROOT
ATOM      1  C   UNL     1       3.650  -0.770  -0.072  0.00  0.00    +0.005 A 
ATOM      2  C   UNL     1       4.511  -0.744  -1.262  0.00  0.00    +0.008 A 
ATOM      3  C   UNL     1       4.077  -0.125  -2.439  0.00  0.00    +0.030 A 
ATOM      4  C   UNL     1       4.898  -0.109  -3.545  0.00  0.00    +0.042 A 
ATOM      5  C   UNL     1       6.152  -0.705  -3.496  0.00  0.00    +0.022 A 
ATOM      6  C   UNL     1       6.593  -1.319  -2.345  0.00  0.00    +0.028 A 
ATOM      7  C   UNL     1       5.780  -1.346  -1.214  0.00  0.00    +0.050 A 
ATOM      8  N   UNL     1       6.222  -1.960  -0.058  0.00  0.00    -0.322 N 
ATOM      9  H   UNL     1       7.101  -2.369  -0.048  0.00  0.00    +0.169 HD
ATOM     10  C   UNL     1       5.466  -2.006   1.051  0.00  0.00    +0.259 A 
ATOM     11  O   UNL     1       5.895  -2.558   2.049  0.00  0.00    -0.267 OA
ATOM     12  C   UNL     1       4.134  -1.396   1.080  0.00  0.00    +0.070 A 
ATOM     13 CL   UNL     1       4.362   0.658  -5.008  0.00  0.00    -0.084 Cl
ENDROOT
BRANCH  12  14
ATOM     14  C   UNL     1       3.317  -1.445   2.299  0.00  0.00    +0.075 C 
ATOM     15  N   UNL     1       3.110  -0.452   3.098  0.00  0.00    -0.180 NA
ATOM     16  N   UNL     1       2.296  -0.760   4.187  0.00  0.00    -0.175 N 
ATOM     17  C   UNL     1       1.902  -2.175   4.102  0.00  0.00    +0.173 C 
ATOM     18  C   UNL     1       2.585  -2.665   2.810  0.00  0.00    +0.090 C 
ATOM     19  C   UNL     1       1.932   0.098   5.160  0.00  0.00    +0.302 C 
ATOM     20  O   UNL     1       1.215  -0.280   6.069  0.00  0.00    -0.265 OA
BRANCH  17  21
ATOM     21  C   UNL     1       0.404  -2.301   3.988  0.00  0.00    +0.128 A 
ATOM     22  C   UNL     1      -0.353  -3.241   4.582  0.00  0.00    +0.046 A 
ATOM     23  C   UNL     1      -1.692  -2.986   4.205  0.00  0.00    +0.041 A 
ATOM     24  C   UNL     1      -1.673  -1.905   3.404  0.00  0.00    +0.195 A 
ATOM     25  O   UNL     1      -0.401  -1.492   3.280  0.00  0.00    -0.466 OA
ENDBRANCH  17  21
BRANCH  19  26
ATOM     26  C   UNL     1       2.398   1.488   5.125  0.00  0.00    +0.191 A 
ATOM     27  C   UNL     1       2.110   2.455   6.045  0.00  0.00    +0.054 A 
ATOM     28  C   UNL     1       2.760   3.624   5.619  0.00  0.00    +0.042 A 
ATOM     29  C   UNL     1       3.408   3.323   4.472  0.00  0.00    +0.196 A 
ATOM     30  O   UNL     1       3.192   2.033   4.181  0.00  0.00    -0.458 OA
ENDBRANCH  19  26
ENDBRANCH  12  14
BRANCH   1  34
ATOM     31  C   UNL     1      -0.199   1.022  -0.127  0.00  0.00    +0.000 A 
ATOM     32  C   UNL     1       0.931   1.815  -0.222  0.00  0.00    +0.001 A 
ATOM     33  C   UNL     1       2.185   1.240  -0.205  0.00  0.00    +0.008 A 
ATOM     34  C   UNL     1       2.312  -0.147  -0.090  0.00  0.00    -0.016 A 
ATOM     35  C   UNL     1       1.166  -0.941   0.006  0.00  0.00    +0.008 A 
ATOM     36  C   UNL     1      -0.081  -0.352  -0.013  0.00  0.00    +0.001 A 
ENDBRANCH   1  34
TORSDOF 4
