REMARK  Name = ZINC02217282
REMARK  14 active torsions:
REMARK  status: ('A' for Active; 'I' for Inactive)
REMARK    1  A    between atoms: C_1  and  C_2
REMARK    2  A    between atoms: C_2  and  C_3
REMARK    3  A    between atoms: C_2  and  C_4
REMARK    4  A    between atoms: C_4  and  C_6
REMARK    5  A    between atoms: C_4  and  C_18
REMARK    6  A    between atoms: C_6  and  C_7
REMARK    7  A    between atoms: C_7  and  N_62
REMARK    8  A    between atoms: C_8  and  C_9
REMARK    9  A    between atoms: C_8  and  N_62
REMARK   10  A    between atoms: C_12  and  N_15
REMARK   11  A    between atoms: N_15  and  C_16
REMARK   12  A    between atoms: N_15  and  C_17
REMARK   13  A    between atoms: C_23  and  C_25
REMARK   14  A    between atoms: C_23  and  C_26
REMARK                            x       y       z     vdW  Elec       q    Type
REMARK                         _______ _______ _______ _____ _____    ______ ____
ROOT
ATOM      1  C   UNL     1       1.389  -2.702  -0.264  0.00  0.00    -0.082 C 
ENDROOT
BRANCH   1   2
ATOM      2  N   UNL     1       1.495  -4.134  -0.599  0.00  0.00    +0.382 N 
ATOM      3  H   UNL     1       2.045  -4.241  -1.460  0.00  0.00    -0.085 HD
ATOM      4  H   UNL     1       0.554  -4.519  -0.745  0.00  0.00    -0.085 HD
BRANCH   2   5
ATOM      5  C   UNL     1       2.156  -4.870   0.495  0.00  0.00    -0.047 C 
BRANCH   5   6
ATOM      6  C   UNL     1       2.250  -6.327   0.125  0.00  0.00    -0.064 A 
ATOM      7  C   UNL     1       1.230  -7.194   0.471  0.00  0.00    +0.003 A 
ATOM      8  C   UNL     1       1.310  -8.530   0.129  0.00  0.00    +0.023 A 
ATOM      9  C   UNL     1       2.422  -9.004  -0.555  0.00  0.00    +0.029 A 
ATOM     10  C   UNL     1       3.448  -8.132  -0.896  0.00  0.00    +0.023 A 
ATOM     11  C   UNL     1       3.359  -6.796  -0.555  0.00  0.00    +0.003 A 
BRANCH   9  12
ATOM     12  N   UNL     1       2.509 -10.355  -0.898  0.00  0.00    -0.336 N 
ATOM     13  C   UNL     1       3.737 -10.881  -1.499  0.00  0.00    +0.129 C 
ATOM     14  C   UNL     1       1.372 -11.247  -0.657  0.00  0.00    +0.129 C 
ENDBRANCH   9  12
ENDBRANCH   5   6
ENDBRANCH   2   5
ENDBRANCH   1   2
BRANCH   1  15
ATOM     15  C   UNL     1       0.701  -1.967  -1.415  0.00  0.00    -0.015 C 
BRANCH  15  16
ATOM     16  C   UNL     1       0.738  -0.460  -1.153  0.00  0.00    -0.007 C 
BRANCH  16  17
ATOM     17  C   UNL     1       0.179   0.283  -2.368  0.00  0.00    -0.003 C 
ATOM     18  C   UNL     1       1.064   0.010  -3.587  0.00  0.00    +0.032 C 
ATOM     19  C   UNL     1       0.544   0.819  -4.778  0.00  0.00    +0.161 C 
ATOM     20  O   UNL     1       0.530   2.207  -4.439  0.00  0.00    -0.374 OA
ATOM     21  C   UNL     1      -0.318   2.530  -3.335  0.00  0.00    +0.064 C 
ATOM     22  C   UNL     1       0.168   1.789  -2.087  0.00  0.00    +0.038 C 
ATOM     23  C   UNL     1      -0.276   4.038  -3.083  0.00  0.00    +0.041 C 
ATOM     24  C   UNL     1      -1.754   2.106  -3.654  0.00  0.00    +0.041 C 
ENDBRANCH  16  17
BRANCH  16  26
ATOM     25  C   UNL     1       0.721  -0.356   1.344  0.00  0.00    +0.007 C 
ATOM     26  C   UNL     1      -0.111  -0.135   0.078  0.00  0.00    -0.014 C 
ATOM     27  C   UNL     1      -1.337  -1.049   0.108  0.00  0.00    +0.007 C 
ENDBRANCH  16  26
ENDBRANCH  15  16
ENDBRANCH   1  15
TORSDOF 8
