REMARK  Name = ZINC28057544
REMARK  3 active torsions:
REMARK  status: ('A' for Active; 'I' for Inactive)
REMARK    1  A    between atoms: C_1  and  C_2
REMARK    2  A    between atoms: C_10  and  C_13
REMARK    3  A    between atoms: C_20  and  C_28
REMARK                            x       y       z     vdW  Elec       q    Type
REMARK                         _______ _______ _______ _____ _____    ______ ____
ROOT
ATOM      1  C   UNL     1       0.133   3.307   0.134  0.00  0.00    +0.044 C 
ATOM      2  C   UNL     1       0.412   1.827   0.090  0.00  0.00    -0.050 A 
ATOM      3  C   UNL     1      -0.641   0.929   0.054  0.00  0.00    +0.007 A 
ATOM      4  C   UNL     1      -0.401  -0.433   0.013  0.00  0.00    +0.046 A 
ATOM      5  C   UNL     1       0.900  -0.901   0.008  0.00  0.00    +0.131 A 
ATOM      6  C   UNL     1       1.966   0.007   0.046  0.00  0.00    +0.038 A 
ATOM      7  C   UNL     1       1.717   1.373   0.087  0.00  0.00    +0.016 A 
ATOM      8  C   UNL     1       3.349  -0.529   0.040  0.00  0.00    +0.050 C 
ATOM      9  C   UNL     1       3.537  -1.796  -0.334  0.00  0.00    +0.026 C 
ATOM     10  C   UNL     1       2.345  -2.625  -0.754  0.00  0.00    +0.234 C 
ATOM     11  O   UNL     1       1.178  -2.229  -0.035  0.00  0.00    -0.479 OA
ATOM     12  C   UNL     1       4.902  -2.438  -0.351  0.00  0.00    +0.177 C 
ATOM     13  N   UNL     1       5.936  -1.421  -0.224  0.00  0.00    -0.201 N 
ATOM     14  C   UNL     1       5.692  -0.136   0.145  0.00  0.00    +0.240 A 
ATOM     15  N   UNL     1       6.836   0.486   0.162  0.00  0.00    -0.092 NA
ATOM     16  N   UNL     1       7.786  -0.317  -0.176  0.00  0.00    -0.021 NA
ATOM     17  N   UNL     1       7.313  -1.495  -0.427  0.00  0.00    -0.042 NA
ATOM     18  N   UNL     1       4.408   0.305   0.418  0.00  0.00    -0.282 N 
ATOM     19  H   UNL     1       4.202   1.266   0.912  0.00  0.00    +0.155 HD
ENDROOT
BRANCH  10  20
ATOM     20  C   UNL     1       2.105  -2.438  -2.230  0.00  0.00    -0.003 A 
ATOM     21  C   UNL     1       1.519  -1.275  -2.693  0.00  0.00    +0.008 A 
ATOM     22  C   UNL     1       1.303  -1.100  -4.047  0.00  0.00    +0.015 A 
ATOM     23  C   UNL     1       1.663  -2.095  -4.938  0.00  0.00    +0.018 A 
ATOM     24  C   UNL     1       2.245  -3.261  -4.474  0.00  0.00    +0.015 A 
ATOM     25  C   UNL     1       2.465  -3.432  -3.121  0.00  0.00    +0.008 A 
ATOM     26 BR   UNL     1       1.362  -1.860  -6.790  0.00  0.00    -0.050 Br
ENDBRANCH  10  20
BRANCH  12  27
ATOM     27  C   UNL     1       5.012  -3.408   0.797  0.00  0.00    +0.017 A 
ATOM     28  C   UNL     1       4.868  -2.961   2.096  0.00  0.00    +0.009 A 
ATOM     29  C   UNL     1       4.969  -3.850   3.149  0.00  0.00    +0.001 A 
ATOM     30  C   UNL     1       5.213  -5.189   2.904  0.00  0.00    +0.003 A 
ATOM     31  C   UNL     1       5.357  -5.639   1.605  0.00  0.00    +0.039 A 
ATOM     32  C   UNL     1       5.252  -4.749   0.549  0.00  0.00    +0.129 A 
ATOM     33  F   UNL     1       5.387  -5.189  -0.721  0.00  0.00    -0.205 F 
ENDBRANCH  12  27
TORSDOF 2
