REMARK  Name = ZINC35644637
REMARK  14 active torsions:
REMARK  status: ('A' for Active; 'I' for Inactive)
REMARK    1  A    between atoms: C_1  and  C_2
REMARK    2  A    between atoms: C_2  and  O_3
REMARK    3  A    between atoms: O_3  and  C_4
REMARK    4  A    between atoms: C_6  and  C_13
REMARK    5  A    between atoms: C_9  and  C_10
REMARK    6  A    between atoms: C_13  and  C_14
REMARK    7  A    between atoms: N_16  and  C_17
REMARK    8  A    between atoms: C_17  and  C_19
REMARK    9  A    between atoms: C_17  and  C_23
REMARK   10  A    between atoms: C_19  and  C_20
REMARK   11  A    between atoms: C_20  and  C_21
REMARK   12  A    between atoms: C_20  and  C_22
REMARK   13  A    between atoms: C_28  and  N_29
REMARK   14  A    between atoms: C_33  and  O_36
REMARK                            x       y       z     vdW  Elec       q    Type
REMARK                         _______ _______ _______ _____ _____    ______ ____
ROOT
ATOM      1  C   UNL     1      -3.762  -5.921   0.378  0.00  0.00    +0.105 C 
ENDROOT
BRANCH   1   2
ATOM      2  C   UNL     1      -3.782  -7.284   1.022  0.00  0.00    -0.006 A 
ATOM      3  C   UNL     1      -2.786  -7.644   1.908  0.00  0.00    +0.007 A 
ATOM      4  C   UNL     1      -2.803  -8.894   2.499  0.00  0.00    +0.000 A 
ATOM      5  C   UNL     1      -3.818  -9.787   2.206  0.00  0.00    +0.002 A 
ATOM      6  C   UNL     1      -4.818  -9.433   1.322  0.00  0.00    +0.023 A 
ATOM      7  C   UNL     1      -4.806  -8.175   0.730  0.00  0.00    +0.035 A 
BRANCH   7   8
ATOM      8  N   UNL     1      -5.819  -7.812  -0.160  0.00  0.00    -0.327 N 
ATOM      9  C   UNL     1      -5.686  -8.086  -1.598  0.00  0.00    +0.105 C 
ATOM     10  C   UNL     1      -6.920  -8.863  -2.067  0.00  0.00    +0.021 C 
ATOM     11  C   UNL     1      -8.182  -8.084  -1.690  0.00  0.00    +0.034 C 
ATOM     12  C   UNL     1      -8.256  -7.934  -0.169  0.00  0.00    +0.132 C 
ATOM     13  C   UNL     1      -7.040  -7.152   0.323  0.00  0.00    +0.136 C 
BRANCH  12  14
ATOM     14  O   UNL     1      -9.450  -7.234   0.183  0.00  0.00    -0.390 OA
ATOM     15  H   UNL     1     -10.263  -7.676  -0.099  0.00  0.00    +0.210 HD
ENDBRANCH  12  14
ENDBRANCH   7   8
ENDBRANCH   1   2
BRANCH   1  18
ATOM     16  C   UNL     1      -2.029  -4.373  -0.353  0.00  0.00    +0.218 C 
ATOM     17  O   UNL     1      -2.753  -4.035  -1.265  0.00  0.00    -0.275 OA
ATOM     18  N   UNL     1      -2.419  -5.347   0.493  0.00  0.00    -0.308 N 
ATOM     19  H   UNL     1      -1.811  -5.668   1.177  0.00  0.00    +0.149 HD
BRANCH  16  20
ATOM     20  C   UNL     1      -0.691  -3.704  -0.166  0.00  0.00    +0.131 C 
BRANCH  20  23
ATOM     21  C   UNL     1      -0.745  -0.398  -1.992  0.00  0.00    +0.135 A 
ATOM     22  C   UNL     1      -0.920  -1.364  -1.012  0.00  0.00    +0.050 A 
ATOM     23  C   UNL     1      -0.498  -2.659  -1.235  0.00  0.00    -0.035 A 
ATOM     24  C   UNL     1       0.102  -3.006  -2.435  0.00  0.00    +0.005 A 
ATOM     25  C   UNL     1       0.285  -2.060  -3.420  0.00  0.00    +0.019 A 
ATOM     26  C   UNL     1      -0.143  -0.745  -3.211  0.00  0.00    +0.105 A 
BRANCH  26  27
ATOM     27  C   UNL     1       0.043   0.270  -4.260  0.00  0.00    +0.390 C 
ATOM     28  O   UNL     1       0.569  -0.037  -5.321  0.00  0.00    -0.240 OA
ATOM     29  O   UNL     1      -0.328   1.420  -4.071  0.00  0.00    -0.240 OA
ENDBRANCH  26  27
BRANCH  21  30
ATOM     30  O   UNL     1      -1.159   0.875  -1.775  0.00  0.00    -0.491 OA
BRANCH  30  32
ATOM     31  C   UNL     1      -2.163   2.630  -0.450  0.00  0.00    +0.048 C 
ATOM     32  C   UNL     1      -1.764   1.154  -0.510  0.00  0.00    +0.226 C 
ENDBRANCH  30  32
ENDBRANCH  21  30
ENDBRANCH  20  23
ENDBRANCH  16  20
ENDBRANCH   1  18
BRANCH   1  33
ATOM     33  C   UNL     1      -4.769  -5.009   1.082  0.00  0.00    +0.030 C 
BRANCH  33  34
ATOM     34  C   UNL     1      -4.338  -4.801   2.536  0.00  0.00    -0.015 C 
ATOM     35  C   UNL     1      -4.988  -3.528   3.082  0.00  0.00    +0.007 C 
ATOM     36  C   UNL     1      -4.781  -6.000   3.376  0.00  0.00    +0.007 C 
ENDBRANCH  33  34
ENDBRANCH   1  33
TORSDOF 11
