REMARK  Name = ZINC12500088
REMARK  9 active torsions:
REMARK  status: ('A' for Active; 'I' for Inactive)
REMARK    1  A    between atoms: C_1  and  C_2
REMARK    2  A    between atoms: C_2  and  C_3
REMARK    3  A    between atoms: C_4  and  C_34
REMARK    4  A    between atoms: C_8  and  S_22
REMARK    5  A    between atoms: C_10  and  C_12
REMARK    6  A    between atoms: S_22  and  C_23
REMARK    7  A    between atoms: C_23  and  C_24
REMARK    8  A    between atoms: C_30  and  C_32
REMARK    9  A    between atoms: C_32  and  C_33
REMARK                            x       y       z     vdW  Elec       q    Type
REMARK                         _______ _______ _______ _____ _____    ______ ____
ROOT
ATOM      1  C   UNL     1       0.000   1.080   2.488  0.00  0.00    -0.026 A 
ATOM      2  C   UNL     1      -0.395  -0.046   3.101  0.00  0.00    -0.007 A 
ATOM      3  S   UNL     1       0.755  -0.209   4.454  0.00  0.00    -0.074 S 
ATOM      4  C   UNL     1       1.730   1.244   4.164  0.00  0.00    +0.113 A 
ATOM      5  C   UNL     1       1.135   1.815   3.018  0.00  0.00    +0.043 A 
ATOM      6  C   UNL     1       1.734   3.021   2.557  0.00  0.00    +0.109 A 
ATOM      7  N   UNL     1       2.775   3.514   3.208  0.00  0.00    -0.225 NA
ATOM      8  C   UNL     1       3.280   2.924   4.276  0.00  0.00    +0.138 A 
ATOM      9  N   UNL     1       2.768   1.805   4.752  0.00  0.00    -0.224 NA
ATOM     10  C   UNL     1      -1.538  -0.956   2.733  0.00  0.00    +0.052 C 
ENDROOT
BRANCH   8  11
ATOM     11  C   UNL     1       4.468   3.542   4.968  0.00  0.00    +0.031 C 
ATOM     12  C   UNL     1       4.103   4.949   5.448  0.00  0.00    +0.018 C 
ATOM     13  C   UNL     1       5.308   5.577   6.150  0.00  0.00    -0.010 C 
ATOM     14  C   UNL     1       5.705   4.715   7.351  0.00  0.00    +0.007 C 
ATOM     15  C   UNL     1       6.070   3.309   6.871  0.00  0.00    -0.010 C 
ATOM     16  C   UNL     1       4.865   2.681   6.168  0.00  0.00    +0.018 C 
ATOM     17  C   UNL     1       7.244   3.393   5.893  0.00  0.00    +0.007 C 
ATOM     18  C   UNL     1       6.847   4.254   4.692  0.00  0.00    -0.010 C 
ATOM     19  C   UNL     1       6.481   5.660   5.172  0.00  0.00    +0.007 C 
ATOM     20  C   UNL     1       5.641   3.626   3.990  0.00  0.00    +0.018 C 
ENDBRANCH   8  11
BRANCH   1  22
ATOM     21  C   UNL     1      -1.772   2.618   1.685  0.00  0.00    +0.009 C 
ATOM     22  C   UNL     1      -0.729   1.579   1.267  0.00  0.00    +0.033 C 
ENDBRANCH   1  22
BRANCH   6  23
ATOM     23  S   UNL     1       1.098   3.846   1.136  0.00  0.00    -0.096 S 
BRANCH  23  24
ATOM     24  C   UNL     1       2.232   5.254   1.056  0.00  0.00    +0.172 C 
BRANCH  24  25
ATOM     25  C   UNL     1       1.869   6.126  -0.118  0.00  0.00    +0.229 C 
ATOM     26  O   UNL     1       0.936   5.825  -0.831  0.00  0.00    -0.275 OA
ATOM     27  N   UNL     1       2.583   7.240  -0.376  0.00  0.00    -0.263 N 
ATOM     28  C   UNL     1       2.248   8.045  -1.460  0.00  0.00    +0.188 A 
ATOM     29  N   UNL     1       1.280   7.900  -2.349  0.00  0.00    -0.126 NA
ATOM     30  N   UNL     1       1.106   8.729  -3.285  0.00  0.00    -0.145 NA
ATOM     31  C   UNL     1       1.893   9.779  -3.408  0.00  0.00    +0.103 A 
ATOM     32  S   UNL     1       2.982   9.522  -2.012  0.00  0.00    -0.035 S 
ATOM     33  H   UNL     1       3.329   7.481   0.194  0.00  0.00    +0.157 HD
BRANCH  31  34
ATOM     34  C   UNL     1       1.876  10.886  -4.431  0.00  0.00    +0.061 C 
ATOM     35  C   UNL     1       0.983  12.025  -3.935  0.00  0.00    +0.011 C 
ENDBRANCH  31  34
ENDBRANCH  24  25
ENDBRANCH  23  24
ENDBRANCH   6  23
TORSDOF 6
