REMARK  Name = ZINC15208471
REMARK  5 active torsions:
REMARK  status: ('A' for Active; 'I' for Inactive)
REMARK    1  A    between atoms: C_3  and  C_7
REMARK    2  A    between atoms: N_20  and  C_21
REMARK    3  A    between atoms: C_21  and  C_22
REMARK    4  A    between atoms: C_25  and  S_28
REMARK    5  A    between atoms: S_28  and  N_31
REMARK                            x       y       z     vdW  Elec       q    Type
REMARK                         _______ _______ _______ _____ _____    ______ ____
ROOT
ATOM      1  C   UNL     1       1.378  -6.206  -0.886  0.00  0.00    +0.164 A 
ATOM      2  N   UNL     1       1.364  -4.894  -0.676  0.00  0.00    -0.212 NA
ATOM      3  C   UNL     1       1.238  -4.026  -1.664  0.00  0.00    +0.131 A 
ATOM      4  C   UNL     1       1.124  -4.505  -3.001  0.00  0.00    +0.051 A 
ATOM      5  C   UNL     1       0.982  -3.737  -4.238  0.00  0.00    -0.025 A 
ATOM      6  C   UNL     1       0.894  -4.439  -5.387  0.00  0.00    -0.004 A 
ATOM      7  S   UNL     1       0.993  -6.140  -4.899  0.00  0.00    -0.073 S 
ATOM      8  C   UNL     1       1.153  -5.907  -3.148  0.00  0.00    +0.114 A 
ATOM      9  N   UNL     1       1.277  -6.708  -2.110  0.00  0.00    -0.220 NA
ATOM     10  C   UNL     1       0.743  -3.893  -6.774  0.00  0.00    +0.043 C 
ATOM     11  C   UNL     1       0.328  -2.418  -6.673  0.00  0.00    +0.005 C 
ATOM     12  C   UNL     1       1.245  -1.719  -5.665  0.00  0.00    +0.005 C 
ATOM     13  C   UNL     1       0.934  -2.212  -4.251  0.00  0.00    +0.037 C 
ATOM     14  N   UNL     1       1.222  -2.667  -1.405  0.00  0.00    -0.324 N 
ATOM     15  H   UNL     1       1.050  -2.038  -2.123  0.00  0.00    +0.148 HD
ENDROOT
BRANCH   1  18
ATOM     16  C   UNL     1       1.671  -9.326   1.186  0.00  0.00    +0.020 A 
ATOM     17  C   UNL     1       1.535  -8.511   0.075  0.00  0.00    +0.014 A 
ATOM     18  C   UNL     1       1.517  -7.126   0.268  0.00  0.00    +0.037 A 
ATOM     19  C   UNL     1       1.626  -6.625   1.565  0.00  0.00    +0.122 A 
ATOM     20  N   UNL     1       1.748  -7.441   2.591  0.00  0.00    -0.263 NA
ATOM     21  C   UNL     1       1.773  -8.751   2.439  0.00  0.00    +0.111 A 
ENDBRANCH   1  18
BRANCH  14  22
ATOM     22  C   UNL     1       1.464  -2.178  -0.045  0.00  0.00    +0.138 C 
BRANCH  22  23
ATOM     23  C   UNL     1       1.393  -0.673  -0.032  0.00  0.00    -0.030 A 
ATOM     24  C   UNL     1       0.186  -0.041   0.204  0.00  0.00    +0.007 A 
ATOM     25  C   UNL     1       0.121   1.340   0.216  0.00  0.00    +0.029 A 
ATOM     26  C   UNL     1       1.262   2.088  -0.007  0.00  0.00    +0.105 A 
ATOM     27  C   UNL     1       2.468   1.456  -0.244  0.00  0.00    +0.029 A 
ATOM     28  C   UNL     1       2.533   0.075  -0.256  0.00  0.00    +0.007 A 
BRANCH  26  29
ATOM     29  S   UNL     1       1.178   3.848   0.008  0.00  0.00    +0.056 S 
ATOM     30  O   UNL     1       2.274   4.314  -0.768  0.00  0.00    -0.153 OA
ATOM     31  O   UNL     1      -0.168   4.194  -0.290  0.00  0.00    -0.153 OA
BRANCH  29  32
ATOM     32  N   UNL     1       1.458   4.338   1.565  0.00  0.00    -0.204 NA
ATOM     33  H   UNL     1       1.626   3.680   2.258  0.00  0.00    +0.144 HD
ATOM     34  H   UNL     1       1.455   5.283   1.784  0.00  0.00    +0.144 HD
ENDBRANCH  29  32
ENDBRANCH  26  29
ENDBRANCH  22  23
ENDBRANCH  14  22
TORSDOF 5
