REMARK  Name = ZINC12592833
REMARK  7 active torsions:
REMARK  status: ('A' for Active; 'I' for Inactive)
REMARK    1  A    between atoms: C_1  and  C_2
REMARK    2  A    between atoms: C_2  and  C_3
REMARK    3  A    between atoms: C_6  and  C_9
REMARK    4  A    between atoms: C_24  and  C_26
REMARK    5  A    between atoms: C_26  and  C_27
REMARK    6  A    between atoms: C_27  and  N_28
REMARK    7  A    between atoms: C_29  and  C_31
REMARK                            x       y       z     vdW  Elec       q    Type
REMARK                         _______ _______ _______ _____ _____    ______ ____
ROOT
ATOM      1  C   UNL     1      -0.781   3.028  -1.414  0.00  0.00    +0.153 C 
ATOM      2  C   UNL     1      -1.120   3.718  -0.112  0.00  0.00    +0.046 A 
ATOM      3  C   UNL     1      -1.098   3.098   1.088  0.00  0.00    -0.015 A 
ATOM      4  C   UNL     1      -1.474   4.084   2.081  0.00  0.00    +0.003 A 
ATOM      5  C   UNL     1      -1.619   4.023   3.470  0.00  0.00    +0.010 A 
ATOM      6  C   UNL     1      -2.000   5.179   4.106  0.00  0.00    +0.001 A 
ATOM      7  C   UNL     1      -2.233   6.356   3.415  0.00  0.00    +0.002 A 
ATOM      8  C   UNL     1      -2.098   6.445   2.040  0.00  0.00    +0.026 A 
ATOM      9  C   UNL     1      -1.711   5.288   1.368  0.00  0.00    +0.047 A 
ATOM     10  N   UNL     1      -1.488   5.028   0.047  0.00  0.00    -0.356 N 
ATOM     11  H   UNL     1      -1.577   5.673  -0.672  0.00  0.00    +0.166 HD
ATOM     12  C   UNL     1      -0.745   1.647   1.300  0.00  0.00    +0.056 C 
ATOM     13  C   UNL     1      -0.008   1.127   0.061  0.00  0.00    +0.113 C 
ATOM     14  N   UNL     1      -0.717   1.581  -1.145  0.00  0.00    -0.289 N 
ATOM     15  C   UNL     1      -1.294   0.697  -1.982  0.00  0.00    +0.218 C 
ATOM     16  O   UNL     1      -1.875   1.088  -2.972  0.00  0.00    -0.276 OA
ENDROOT
BRANCH   1  20
ATOM     17  C   UNL     1       3.000   4.408  -2.844  0.00  0.00    -0.048 A 
ATOM     18  C   UNL     1       1.885   4.480  -3.658  0.00  0.00    +0.004 A 
ATOM     19  C   UNL     1       0.662   4.033  -3.195  0.00  0.00    +0.006 A 
ATOM     20  C   UNL     1       0.553   3.515  -1.919  0.00  0.00    -0.021 A 
ATOM     21  C   UNL     1       1.667   3.447  -1.103  0.00  0.00    +0.006 A 
ATOM     22  C   UNL     1       2.892   3.889  -1.567  0.00  0.00    +0.004 A 
BRANCH  17  24
ATOM     23  C   UNL     1       4.498   6.378  -3.008  0.00  0.00    +0.009 C 
ATOM     24  C   UNL     1       4.334   4.895  -3.349  0.00  0.00    +0.032 C 
ENDBRANCH  17  24
ENDBRANCH   1  20
BRANCH  15  25
ATOM     25  C   UNL     1      -1.217  -0.779  -1.688  0.00  0.00    +0.114 C 
BRANCH  25  26
ATOM     26  C   UNL     1      -1.946  -1.557  -2.785  0.00  0.00    +0.113 C 
BRANCH  26  27
ATOM     27  N   UNL     1      -1.871  -2.992  -2.499  0.00  0.00    -0.315 N 
ATOM     28  C   UNL     1      -2.448  -3.877  -3.337  0.00  0.00    +0.210 C 
ATOM     29  O   UNL     1      -3.029  -3.485  -4.327  0.00  0.00    -0.276 OA
ATOM     30  C   UNL     1      -2.371  -5.353  -3.042  0.00  0.00    +0.109 C 
ATOM     31  H   UNL     1      -1.407  -3.305  -1.708  0.00  0.00    +0.149 HD
ENDBRANCH  26  27
ENDBRANCH  25  26
ENDBRANCH  15  25
TORSDOF 5
