REMARK  Name = ZINC00959888
REMARK  11 active torsions:
REMARK  status: ('A' for Active; 'I' for Inactive)
REMARK    1  A    between atoms: C_1  and  C_2
REMARK    2  A    between atoms: C_4  and  C_33
REMARK    3  A    between atoms: C_6  and  N_8
REMARK    4  A    between atoms: N_8  and  C_9
REMARK    5  A    between atoms: C_10  and  S_24
REMARK    6  A    between atoms: N_13  and  C_16
REMARK    7  A    between atoms: C_16  and  C_17
REMARK    8  A    between atoms: C_17  and  C_18
REMARK    9  A    between atoms: S_24  and  C_25
REMARK   10  A    between atoms: C_27  and  C_32
REMARK   11  A    between atoms: C_29  and  C_31
REMARK                            x       y       z     vdW  Elec       q    Type
REMARK                         _______ _______ _______ _____ _____    ______ ____
ROOT
ATOM      1  C   UNL     1       0.378   3.430   0.233  0.00  0.00    +0.114 C 
ATOM      2  C   UNL     1       0.764   2.123   0.177  0.00  0.00    +0.104 C 
ATOM      3  C   UNL     1      -0.403   1.322   0.596  0.00  0.00    +0.262 C 
ATOM      4  O   UNL     1      -0.442   0.110   0.672  0.00  0.00    -0.269 OA
ATOM      5  N   UNL     1      -1.417   2.159   0.874  0.00  0.00    -0.232 N 
ATOM      6  C   UNL     1      -1.027   3.432   0.687  0.00  0.00    +0.268 C 
ATOM      7  O   UNL     1      -1.716   4.418   0.857  0.00  0.00    -0.268 OA
ENDROOT
BRANCH   1   8
ATOM      8  N   UNL     1       1.154   4.541  -0.077  0.00  0.00    -0.309 N 
ATOM      9  H   UNL     1       1.992   4.693   0.388  0.00  0.00    +0.152 HD
BRANCH   8  15
ATOM     10  C   UNL     1      -2.030   5.731  -3.626  0.00  0.00    +0.044 C 
ATOM     11  C   UNL     1      -0.813   6.042  -2.793  0.00  0.00    -0.048 A 
ATOM     12  C   UNL     1      -0.117   7.219  -2.999  0.00  0.00    +0.006 A 
ATOM     13  C   UNL     1       1.000   7.509  -2.237  0.00  0.00    -0.048 A 
ATOM     14  C   UNL     1       1.424   6.623  -1.266  0.00  0.00    +0.026 A 
ATOM     15  C   UNL     1       0.728   5.439  -1.056  0.00  0.00    +0.032 A 
ATOM     16  C   UNL     1      -0.391   5.149  -1.828  0.00  0.00    +0.026 A 
ATOM     17  C   UNL     1       1.754   8.793  -2.465  0.00  0.00    +0.044 C 
ENDBRANCH   8  15
ENDBRANCH   1   8
BRANCH   5  18
ATOM     18  C   UNL     1      -2.751   1.746   1.319  0.00  0.00    +0.122 C 
BRANCH  18  19
ATOM     19  C   UNL     1      -2.779   1.675   2.847  0.00  0.00    +0.054 C 
BRANCH  19  20
ATOM     20  C   UNL     1      -4.151   1.250   3.304  0.00  0.00    -0.046 A 
ATOM     21  C   UNL     1      -5.118   2.202   3.567  0.00  0.00    +0.004 A 
ATOM     22  C   UNL     1      -6.377   1.812   3.981  0.00  0.00    +0.000 A 
ATOM     23  C   UNL     1      -6.666   0.470   4.144  0.00  0.00    +0.000 A 
ATOM     24  C   UNL     1      -5.697  -0.482   3.888  0.00  0.00    +0.000 A 
ATOM     25  C   UNL     1      -4.440  -0.092   3.467  0.00  0.00    +0.004 A 
ENDBRANCH  19  20
ENDBRANCH  18  19
ENDBRANCH   5  18
BRANCH   2  26
ATOM     26  S   UNL     1       2.346   1.511  -0.302  0.00  0.00    -0.043 S 
BRANCH  26  27
ATOM     27  C   UNL     1       1.909   0.655  -1.779  0.00  0.00    +0.194 A 
ATOM     28  N   UNL     1       0.663   0.731  -2.226  0.00  0.00    -0.227 NA
ATOM     29  C   UNL     1       0.304   0.105  -3.334  0.00  0.00    +0.043 A 
ATOM     30  C   UNL     1       1.244  -0.646  -4.022  0.00  0.00    +0.046 A 
ATOM     31  C   UNL     1       2.536  -0.709  -3.523  0.00  0.00    +0.043 A 
ATOM     32  N   UNL     1       2.832  -0.054  -2.413  0.00  0.00    -0.227 NA
ATOM     33  C   UNL     1       3.592  -1.512  -4.239  0.00  0.00    +0.066 C 
ATOM     34  C   UNL     1      -1.113   0.201  -3.839  0.00  0.00    +0.066 C 
ENDBRANCH  26  27
ENDBRANCH   2  26
TORSDOF 7
