REMARK  Name = ZINC34966943
REMARK  7 active torsions:
REMARK  status: ('A' for Active; 'I' for Inactive)
REMARK    1  A    between atoms: C_1  and  C_2
REMARK    2  A    between atoms: N_4  and  C_5
REMARK    3  A    between atoms: C_6  and  C_14
REMARK    4  A    between atoms: C_14  and  C_16
REMARK    5  A    between atoms: C_14  and  N_22
REMARK    6  A    between atoms: C_25  and  C_28
REMARK    7  A    between atoms: C_28  and  C_29
REMARK                            x       y       z     vdW  Elec       q    Type
REMARK                         _______ _______ _______ _____ _____    ______ ____
ROOT
ATOM      1  C   UNL     1      -3.590  -2.450  -0.203  0.00  0.00    +0.015 C 
ENDROOT
BRANCH   1   3
ATOM      2  C   UNL     1      -2.211  -4.513  -0.097  0.00  0.00    +0.074 A 
ATOM      3  C   UNL     1      -2.264  -3.164  -0.254  0.00  0.00    -0.023 A 
ATOM      4  C   UNL     1      -1.088  -2.442  -0.461  0.00  0.00    -0.033 A 
ATOM      5  C   UNL     1       0.068  -3.158  -0.495  0.00  0.00    -0.005 A 
ATOM      6  S   UNL     1      -0.458  -4.830  -0.232  0.00  0.00    -0.078 S 
ATOM      7  C   UNL     1       1.454  -2.639  -0.702  0.00  0.00    +0.043 C 
ATOM      8  C   UNL     1       1.358  -1.204  -1.240  0.00  0.00    +0.005 C 
ATOM      9  C   UNL     1       0.358  -0.424  -0.381  0.00  0.00    +0.005 C 
ATOM     10  C   UNL     1      -1.062  -0.927  -0.644  0.00  0.00    +0.036 C 
BRANCH   2  14
ATOM     11  C   UNL     1      -4.133  -7.715   0.374  0.00  0.00    +0.109 C 
ATOM     12  C   UNL     1      -3.007  -6.741   0.141  0.00  0.00    +0.214 C 
ATOM     13  O   UNL     1      -1.877  -7.149  -0.028  0.00  0.00    -0.276 OA
ATOM     14  N   UNL     1      -3.255  -5.417   0.119  0.00  0.00    -0.280 N 
ATOM     15  H   UNL     1      -4.159  -5.090   0.254  0.00  0.00    +0.155 HD
ENDBRANCH   2  14
ENDBRANCH   1   3
BRANCH   1  16
ATOM     16  N   UNL     1      -3.678  -1.502  -1.322  0.00  0.00    +0.388 N 
ATOM     17  C   UNL     1      -3.411  -2.207  -2.581  0.00  0.00    -0.077 C 
ATOM     18  C   UNL     1      -3.421  -1.209  -3.741  0.00  0.00    -0.015 C 
ATOM     19  C   UNL     1      -4.793  -0.533  -3.814  0.00  0.00    -0.010 C 
ATOM     20  C   UNL     1      -5.093   0.137  -2.470  0.00  0.00    -0.015 C 
ATOM     21  C   UNL     1      -5.021  -0.911  -1.357  0.00  0.00    -0.077 C 
ATOM     22  H   UNL     1      -2.994  -0.771  -1.196  0.00  0.00    -0.080 HD
BRANCH  19  23
ATOM     23  C   UNL     1      -4.786   0.523  -4.921  0.00  0.00    +0.038 C 
BRANCH  23  24
ATOM     24  C   UNL     1      -6.169   1.101  -5.074  0.00  0.00    -0.047 A 
ATOM     25  C   UNL     1      -7.069   0.518  -5.947  0.00  0.00    +0.003 A 
ATOM     26  C   UNL     1      -8.338   1.048  -6.087  0.00  0.00    +0.000 A 
ATOM     27  C   UNL     1      -8.707   2.160  -5.354  0.00  0.00    +0.000 A 
ATOM     28  C   UNL     1      -7.808   2.743  -4.480  0.00  0.00    +0.000 A 
ATOM     29  C   UNL     1      -6.540   2.210  -4.337  0.00  0.00    +0.003 A 
ENDBRANCH  23  24
ENDBRANCH  19  23
ENDBRANCH   1  16
BRANCH   1  30
ATOM     30  C   UNL     1      -3.709  -1.702   1.100  0.00  0.00    +0.032 A 
ATOM     31  C   UNL     1      -4.162  -2.361   2.227  0.00  0.00    +0.022 A 
ATOM     32  C   UNL     1      -4.267  -1.664   3.420  0.00  0.00    +0.003 A 
ATOM     33  C   UNL     1      -3.911  -0.324   3.436  0.00  0.00    +0.020 A 
ATOM     34  C   UNL     1      -3.467   0.268   2.269  0.00  0.00    +0.111 A 
ATOM     35  N   UNL     1      -3.374  -0.427   1.152  0.00  0.00    -0.261 NA
ENDBRANCH   1  30
TORSDOF 6
