REMARK  Name = ZINC64002270
REMARK  7 active torsions:
REMARK  status: ('A' for Active; 'I' for Inactive)
REMARK    1  A    between atoms: C_1  and  C_2
REMARK    2  A    between atoms: C_7  and  S_12
REMARK    3  A    between atoms: S_12  and  C_13
REMARK    4  A    between atoms: C_13  and  C_14
REMARK    5  A    between atoms: N_16  and  C_17
REMARK    6  A    between atoms: C_17  and  C_18
REMARK    7  A    between atoms: C_23  and  C_29
REMARK                            x       y       z     vdW  Elec       q    Type
REMARK                         _______ _______ _______ _____ _____    ______ ____
ROOT
ATOM      1  C   UNL     1      -4.091  -4.910   1.844  0.00  0.00    +0.223 C 
ATOM      2  O   UNL     1      -4.084  -5.978   2.419  0.00  0.00    -0.275 OA
ATOM      3  N   UNL     1      -5.261  -4.324   1.526  0.00  0.00    -0.311 N 
ATOM      4  H   UNL     1      -5.267  -3.470   1.066  0.00  0.00    +0.149 HD
ENDROOT
BRANCH   1   5
ATOM      5  C   UNL     1      -2.790  -4.240   1.485  0.00  0.00    +0.168 C 
BRANCH   5   6
ATOM      6  S   UNL     1      -1.405  -5.270   2.043  0.00  0.00    -0.106 S 
BRANCH   6  13
ATOM      7  C   UNL     1      -0.018   1.503   0.010  0.00  0.00    +0.044 C 
ATOM      8  C   UNL     1       0.002  -0.004   0.002  0.00  0.00    -0.048 A 
ATOM      9  C   UNL     1       0.005  -0.672  -1.235  0.00  0.00    +0.005 A 
ATOM     10  C   UNL     1       0.022  -2.017  -1.335  0.00  0.00    +0.028 A 
ATOM     11  C   UNL     1       0.040  -2.834  -0.114  0.00  0.00    +0.061 A 
ATOM     12  N   UNL     1       0.057  -4.120   0.090  0.00  0.00    -0.355 N 
ATOM     13  C   UNL     1       0.067  -4.335   1.542  0.00  0.00    +0.236 C 
ATOM     14  N   UNL     1       0.053  -3.002   2.159  0.00  0.00    -0.355 N 
ATOM     15  C   UNL     1       0.037  -2.127   1.195  0.00  0.00    +0.061 A 
ATOM     16  C   UNL     1       0.022  -0.657   1.181  0.00  0.00    +0.030 A 
ATOM     17  H   UNL     1       0.062  -4.809  -0.593  0.00  0.00    +0.162 HD
ATOM     18  H   UNL     1       0.055  -2.810   3.109  0.00  0.00    +0.162 HD
ENDBRANCH   6  13
ENDBRANCH   5   6
ENDBRANCH   1   5
BRANCH   3  19
ATOM     19  C   UNL     1      -6.526  -4.976   1.875  0.00  0.00    +0.149 C 
BRANCH  19  20
ATOM     20  C   UNL     1      -7.694  -4.107   1.404  0.00  0.00    +0.195 C 
ATOM     21  C   UNL     1      -9.046  -4.738   1.813  0.00  0.00    +0.085 C 
ATOM     22  C   UNL     1      -9.877  -3.513   2.143  0.00  0.00    -0.000 A 
ATOM     23  C   UNL     1     -11.231  -3.334   2.306  0.00  0.00    +0.016 A 
ATOM     24  C   UNL     1     -11.735  -2.069   2.606  0.00  0.00    -0.013 A 
ATOM     25  C   UNL     1     -10.857  -0.994   2.737  0.00  0.00    +0.032 A 
ATOM     26  C   UNL     1      -9.502  -1.182   2.575  0.00  0.00    +0.083 A 
ATOM     27  C   UNL     1      -8.995  -2.447   2.279  0.00  0.00    +0.143 A 
ATOM     28  O   UNL     1      -7.704  -2.847   2.097  0.00  0.00    -0.485 OA
ATOM     29 CL   UNL     1      -8.418   0.165   2.741  0.00  0.00    -0.080 Cl
BRANCH  24  30
ATOM     30  C   UNL     1     -13.194  -1.868   2.783  0.00  0.00    +0.018 A 
ATOM     31  C   UNL     1     -14.086  -2.937   2.660  0.00  0.00    +0.122 A 
ATOM     32  N   UNL     1     -15.378  -2.714   2.826  0.00  0.00    -0.243 NA
ATOM     33  C   UNL     1     -15.828  -1.506   3.103  0.00  0.00    +0.221 A 
ATOM     34  N   UNL     1     -15.021  -0.471   3.227  0.00  0.00    -0.243 NA
ATOM     35  C   UNL     1     -13.714  -0.607   3.083  0.00  0.00    +0.122 A 
ENDBRANCH  24  30
ENDBRANCH  19  20
ENDBRANCH   3  19
TORSDOF 6
