REMARK  Name = ZINC00798160
REMARK  6 active torsions:
REMARK  status: ('A' for Active; 'I' for Inactive)
REMARK    1  A    between atoms: C_1  and  C_2
REMARK    2  A    between atoms: C_2  and  N_3
REMARK    3  A    between atoms: C_6  and  C_20
REMARK    4  A    between atoms: C_11  and  C_19
REMARK    5  A    between atoms: N_22  and  C_23
REMARK    6  A    between atoms: C_27  and  C_29
REMARK                            x       y       z     vdW  Elec       q    Type
REMARK                         _______ _______ _______ _____ _____    ______ ____
ROOT
ATOM      1  N   UNL     1       0.511   1.486   8.627  0.00  0.00    -0.263 N 
ATOM      2  C   UNL     1       0.941   2.152   7.554  0.00  0.00    +0.231 C 
ATOM      3  O   UNL     1       1.929   1.743   6.981  0.00  0.00    -0.275 OA
ATOM      4  C   UNL     1       0.265   3.382   7.018  0.00  0.00    +0.169 C 
ATOM      5  C   UNL     1      -0.668   3.961   8.089  0.00  0.00    +0.049 C 
ATOM      6  C   UNL     1      -1.548   2.820   8.616  0.00  0.00    +0.078 C 
ATOM      7  C   UNL     1      -0.644   1.881   9.425  0.00  0.00    +0.178 C 
ATOM      8  O   UNL     1      -0.201   2.590  10.587  0.00  0.00    -0.468 OA
ATOM      9  C   UNL     1       0.352   3.816  10.393  0.00  0.00    +0.127 A 
ATOM     10  C   UNL     1       0.162   4.533   9.210  0.00  0.00    -0.001 A 
ATOM     11  C   UNL     1       0.743   5.768   9.060  0.00  0.00    +0.007 A 
ATOM     12  C   UNL     1       1.510   6.311  10.072  0.00  0.00    +0.001 A 
ATOM     13  C   UNL     1       1.701   5.610  11.248  0.00  0.00    +0.004 A 
ATOM     14  C   UNL     1       1.125   4.366  11.409  0.00  0.00    +0.046 A 
ATOM     15  C   UNL     1      -1.438   0.643   9.850  0.00  0.00    +0.078 C 
ENDROOT
BRANCH   4  16
ATOM     16  C   UNL     1      -0.538   3.021   5.795  0.00  0.00    +0.230 C 
ATOM     17  O   UNL     1      -1.736   3.208   5.779  0.00  0.00    -0.275 OA
ATOM     18  N   UNL     1       0.076   2.491   4.718  0.00  0.00    -0.285 N 
ATOM     19  H   UNL     1       1.020   2.271   4.758  0.00  0.00    +0.155 HD
BRANCH  18  20
ATOM     20  C   UNL     1      -0.648   2.259   3.544  0.00  0.00    +0.034 A 
ATOM     21  C   UNL     1      -1.687   3.109   3.187  0.00  0.00    +0.023 A 
ATOM     22  C   UNL     1      -2.399   2.877   2.027  0.00  0.00    +0.002 A 
ATOM     23  C   UNL     1      -2.076   1.802   1.219  0.00  0.00    +0.003 A 
ATOM     24  C   UNL     1      -1.047   0.951   1.574  0.00  0.00    -0.049 A 
ATOM     25  C   UNL     1      -0.330   1.177   2.733  0.00  0.00    +0.026 A 
ATOM     26  C   UNL     1      -0.702  -0.223   0.693  0.00  0.00    +0.044 C 
ENDBRANCH  18  20
ENDBRANCH   4  16
BRANCH   1  28
ATOM     27  C   UNL     1       0.645  -0.937   8.328  0.00  0.00    +0.024 C 
ATOM     28  C   UNL     1       1.245   0.284   9.029  0.00  0.00    +0.108 C 
ENDBRANCH   1  28
TORSDOF 3
