REMARK  Name = ZINC08362609
REMARK  7 active torsions:
REMARK  status: ('A' for Active; 'I' for Inactive)
REMARK    1  A    between atoms: C_1  and  C_2
REMARK    2  A    between atoms: C_2  and  N_3
REMARK    3  A    between atoms: C_7  and  C_25
REMARK    4  A    between atoms: C_8  and  C_24
REMARK    5  A    between atoms: C_12  and  S_13
REMARK    6  A    between atoms: S_13  and  C_14
REMARK    7  A    between atoms: C_14  and  C_15
REMARK                            x       y       z     vdW  Elec       q    Type
REMARK                         _______ _______ _______ _____ _____    ______ ____
ROOT
ATOM      1  N   UNL     1       2.471   6.321   2.488  0.00  0.00    -0.288 N 
ATOM      2  C   UNL     1       2.821   7.608   2.309  0.00  0.00    +0.263 A 
ATOM      3  O   UNL     1       3.028   8.331   3.268  0.00  0.00    -0.267 OA
ATOM      4  C   UNL     1       2.946   8.117   0.978  0.00  0.00    +0.075 A 
ATOM      5  C   UNL     1       3.306   9.453   0.534  0.00  0.00    -0.026 A 
ATOM      6  C   UNL     1       3.363   9.713  -0.780  0.00  0.00    -0.008 A 
ATOM      7  S   UNL     1       2.930   8.155  -1.530  0.00  0.00    -0.073 S 
ATOM      8  C   UNL     1       2.685   7.198  -0.056  0.00  0.00    +0.117 A 
ATOM      9  N   UNL     1       2.348   5.938   0.189  0.00  0.00    -0.216 NA
ATOM     10  C   UNL     1       2.235   5.497   1.426  0.00  0.00    +0.173 A 
ATOM     11  C   UNL     1       3.710  11.013  -1.460  0.00  0.00    +0.052 C 
ATOM     12  C   UNL     1       3.612  10.533   1.540  0.00  0.00    +0.045 C 
ENDROOT
BRANCH   1  14
ATOM     13  C   UNL     1       3.688   5.230   4.308  0.00  0.00    +0.027 C 
ATOM     14  C   UNL     1       2.342   5.794   3.849  0.00  0.00    +0.124 C 
ENDBRANCH   1  14
BRANCH  10  15
ATOM     15  S   UNL     1       1.780   3.819   1.712  0.00  0.00    -0.078 S 
BRANCH  15  16
ATOM     16  C   UNL     1       1.605   3.245   0.004  0.00  0.00    +0.173 C 
BRANCH  16  17
ATOM     17  C   UNL     1       1.208   1.792   0.000  0.00  0.00    +0.207 A 
ATOM     18  N   UNL     1      -0.016   1.356   0.009  0.00  0.00    -0.213 NA
ATOM     19  C   UNL     1       0.002  -0.004   0.002  0.00  0.00    +0.110 A 
ATOM     20  C   UNL     1      -0.992  -0.984   0.006  0.00  0.00    +0.031 A 
ATOM     21  C   UNL     1      -0.639  -2.315  -0.004  0.00  0.00    +0.002 A 
ATOM     22  C   UNL     1       0.697  -2.687  -0.019  0.00  0.00    +0.004 A 
ATOM     23  C   UNL     1       1.690  -1.730  -0.023  0.00  0.00    +0.048 A 
ATOM     24  C   UNL     1       1.353  -0.385  -0.013  0.00  0.00    +0.155 A 
ATOM     25  O   UNL     1       2.068   0.761  -0.014  0.00  0.00    -0.439 OA
ENDBRANCH  16  17
ENDBRANCH  15  16
ENDBRANCH  10  15
TORSDOF 4
