REMARK  Name = ZINC09474911
REMARK  12 active torsions:
REMARK  status: ('A' for Active; 'I' for Inactive)
REMARK    1  A    between atoms: C_1  and  C_2
REMARK    2  A    between atoms: C_2  and  C_3
REMARK    3  A    between atoms: C_3  and  N_57
REMARK    4  A    between atoms: C_9  and  N_15
REMARK    5  A    between atoms: C_10  and  C_11
REMARK    6  A    between atoms: C_11  and  O_13
REMARK    7  A    between atoms: O_13  and  C_14
REMARK    8  A    between atoms: C_16  and  C_18
REMARK    9  A    between atoms: C_18  and  C_19
REMARK   10  A    between atoms: C_19  and  C_20
REMARK   11  A    between atoms: C_20  and  S_21
REMARK   12  A    between atoms: S_21  and  C_22
REMARK                            x       y       z     vdW  Elec       q    Type
REMARK                         _______ _______ _______ _____ _____    ______ ____
ROOT
ATOM      1  C   UNL     1       7.594  14.245  -0.437  0.00  0.00    -0.074 C 
ATOM      2  C   UNL     1       8.142  12.880  -0.010  0.00  0.00    +0.018 C 
ATOM      3  C   UNL     1       6.987  11.886  -0.003  0.00  0.00    -0.025 A 
ATOM      4  C   UNL     1       5.710  12.329   0.012  0.00  0.00    -0.021 A 
ATOM      5  S   UNL     1       4.723  10.861   0.014  0.00  0.00    -0.079 S 
ATOM      6  C   UNL     1       5.986   9.674  -0.005  0.00  0.00    +0.086 A 
ATOM      7  C   UNL     1       7.143  10.443  -0.006  0.00  0.00    +0.091 A 
ATOM      8  C   UNL     1       5.266  13.758   0.026  0.00  0.00    -0.035 C 
ATOM      9  N   UNL     1       6.431  14.592   0.407  0.00  0.00    +0.383 N 
ATOM     10  H   UNL     1       6.666  14.409   1.390  0.00  0.00    -0.081 HD
ENDROOT
BRANCH   6  11
ATOM     11  N   UNL     1       5.869   8.293  -0.011  0.00  0.00    -0.279 N 
ATOM     12  C   UNL     1       4.649   7.720  -0.002  0.00  0.00    +0.218 C 
ATOM     13  O   UNL     1       3.654   8.412   0.011  0.00  0.00    -0.275 OA
ATOM     14  H   UNL     1       6.665   7.739  -0.021  0.00  0.00    +0.155 HD
BRANCH  12  15
ATOM     15  C   UNL     1       4.522   6.218  -0.008  0.00  0.00    +0.097 C 
BRANCH  15  16
ATOM     16  C   UNL     1       3.042   5.831   0.004  0.00  0.00    +0.020 C 
BRANCH  16  17
ATOM     17  C   UNL     1       2.913   4.307  -0.003  0.00  0.00    +0.075 C 
BRANCH  17  18
ATOM     18  S   UNL     1       1.158   3.848   0.011  0.00  0.00    -0.125 S 
BRANCH  18  19
ATOM     19  C   UNL     1       1.178   2.086   0.002  0.00  0.00    +0.008 A 
ATOM     20  C   UNL     1      -0.017   1.377   0.010  0.00  0.00    +0.016 A 
ATOM     21  C   UNL     1       0.002  -0.004   0.002  0.00  0.00    +0.021 A 
ATOM     22  C   UNL     1       1.209  -0.681  -0.013  0.00  0.00    +0.041 A 
ATOM     23  C   UNL     1       2.401   0.023  -0.020  0.00  0.00    +0.021 A 
ATOM     24  C   UNL     1       2.388   1.404  -0.013  0.00  0.00    +0.016 A 
ATOM     25 CL   UNL     1       1.228  -2.417  -0.021  0.00  0.00    -0.084 Cl
ENDBRANCH  18  19
ENDBRANCH  17  18
ENDBRANCH  16  17
ENDBRANCH  15  16
ENDBRANCH  12  15
ENDBRANCH   6  11
BRANCH   7  26
ATOM     26  C   UNL     1       8.469   9.821  -0.014  0.00  0.00    +0.342 C 
ATOM     27  O   UNL     1       9.016   9.568  -1.071  0.00  0.00    -0.245 OA
BRANCH  26  28
ATOM     28  O   UNL     1       9.084   9.529   1.151  0.00  0.00    -0.464 OA
ATOM     29  C   UNL     1      10.397   8.914   1.067  0.00  0.00    +0.280 C 
ENDBRANCH  26  28
ENDBRANCH   7  26
BRANCH   9  30
ATOM     30  C   UNL     1       6.101  16.025   0.250  0.00  0.00    -0.079 C 
BRANCH  30  32
ATOM     31  C   UNL     1       5.512  17.843  -1.359  0.00  0.00    +0.002 C 
ATOM     32  C   UNL     1       5.849  16.357  -1.222  0.00  0.00    -0.022 C 
ENDBRANCH  30  32
ENDBRANCH   9  30
TORSDOF 10
