REMARK  Name = ZINC59309424
REMARK  10 active torsions:
REMARK  status: ('A' for Active; 'I' for Inactive)
REMARK    1  A    between atoms: C_1  and  C_2
REMARK    2  A    between atoms: C_2  and  C_22
REMARK    3  A    between atoms: N_3  and  N_4
REMARK    4  A    between atoms: C_7  and  S_10
REMARK    5  A    between atoms: S_10  and  C_11
REMARK    6  A    between atoms: C_11  and  C_12
REMARK    7  A    between atoms: C_12  and  C_14
REMARK    8  A    between atoms: C_17  and  O_20
REMARK    9  A    between atoms: O_20  and  C_21
REMARK   10  A    between atoms: C_25  and  N_28
REMARK                            x       y       z     vdW  Elec       q    Type
REMARK                         _______ _______ _______ _____ _____    ______ ____
ROOT
ATOM      1  N   UNL     1      -1.026  -1.643   1.344  0.00  0.00    -0.205 N 
ATOM      2  C   UNL     1      -1.531  -2.009   2.579  0.00  0.00    +0.232 A 
ATOM      3  N   UNL     1      -1.481  -1.289   3.680  0.00  0.00    -0.186 NA
ATOM      4  C   UNL     1      -2.067  -1.956   4.680  0.00  0.00    +0.210 A 
ATOM      5  N   UNL     1      -2.496  -3.110   4.229  0.00  0.00    -0.144 NA
ATOM      6  N   UNL     1      -2.165  -3.166   2.865  0.00  0.00    -0.245 N 
ATOM      7  H   UNL     1      -1.115  -2.242   0.587  0.00  0.00    +0.177 HD
ATOM      8  H   UNL     1      -2.354  -3.892   2.251  0.00  0.00    +0.192 HD
ENDROOT
BRANCH   1  11
ATOM      9  C   UNL     1       0.814   1.238  -0.141  0.00  0.00    +0.068 C 
ATOM     10  C   UNL     1      -0.009  -0.015   0.009  0.00  0.00    +0.063 C 
ATOM     11  N   UNL     1      -0.387  -0.406   1.188  0.00  0.00    -0.184 NA
BRANCH  10  12
ATOM     12  C   UNL     1      -0.386  -0.796  -1.183  0.00  0.00    -0.002 A 
ATOM     13  C   UNL     1      -1.655  -1.376  -1.268  0.00  0.00    +0.011 A 
ATOM     14  C   UNL     1      -2.004  -2.105  -2.383  0.00  0.00    +0.023 A 
ATOM     15  C   UNL     1      -1.095  -2.265  -3.424  0.00  0.00    +0.025 A 
ATOM     16  C   UNL     1       0.169  -1.691  -3.342  0.00  0.00    +0.023 A 
ATOM     17  C   UNL     1       0.523  -0.955  -2.232  0.00  0.00    +0.011 A 
BRANCH  15  18
ATOM     18  N   UNL     1      -1.452  -3.005  -4.552  0.00  0.00    -0.358 N 
ATOM     19  H   UNL     1      -2.333  -3.407  -4.610  0.00  0.00    +0.142 HD
ATOM     20  H   UNL     1      -0.819  -3.118  -5.278  0.00  0.00    +0.142 HD
ENDBRANCH  15  18
ENDBRANCH  10  12
ENDBRANCH   1  11
BRANCH   4  21
ATOM     21  S   UNL     1      -2.232  -1.379   6.337  0.00  0.00    -0.076 S 
BRANCH  21  22
ATOM     22  C   UNL     1      -3.102  -2.725   7.186  0.00  0.00    +0.157 C 
BRANCH  22  23
ATOM     23  C   UNL     1      -3.311  -2.356   8.632  0.00  0.00    +0.173 C 
ATOM     24  O   UNL     1      -2.912  -1.288   9.048  0.00  0.00    -0.291 OA
BRANCH  23  25
ATOM     25  C   UNL     1      -3.997  -3.287   9.536  0.00  0.00    +0.018 A 
ATOM     26  C   UNL     1      -4.452  -4.522   9.059  0.00  0.00    +0.015 A 
ATOM     27  C   UNL     1      -5.092  -5.389   9.908  0.00  0.00    +0.046 A 
ATOM     28  C   UNL     1      -5.289  -5.043  11.240  0.00  0.00    +0.120 A 
ATOM     29  C   UNL     1      -4.838  -3.817  11.719  0.00  0.00    +0.046 A 
ATOM     30  C   UNL     1      -4.192  -2.946  10.880  0.00  0.00    +0.015 A 
BRANCH  28  31
ATOM     31  O   UNL     1      -5.922  -5.903  12.076  0.00  0.00    -0.495 OA
ATOM     32  C   UNL     1      -6.091  -5.485  13.432  0.00  0.00    +0.277 C 
ENDBRANCH  28  31
ENDBRANCH  23  25
ENDBRANCH  22  23
ENDBRANCH  21  22
ENDBRANCH   4  21
TORSDOF 8
