REMARK  Name = ZINC63491606
REMARK  3 active torsions:
REMARK  status: ('A' for Active; 'I' for Inactive)
REMARK    1  A    between atoms: C_6  and  S_10
REMARK    2  A    between atoms: S_10  and  C_11
REMARK    3  A    between atoms: C_11  and  C_12
REMARK                            x       y       z     vdW  Elec       q    Type
REMARK                         _______ _______ _______ _____ _____    ______ ____
ROOT
ATOM      1  C   UNL     1       3.313  -2.560  -4.211  0.00  0.00    +0.021 C 
ATOM      2  N   UNL     1       4.595  -2.412  -4.686  0.00  0.00    -0.319 N 
ATOM      3  C   UNL     1       4.776  -2.398  -6.144  0.00  0.00    +0.231 C 
ATOM      4  N   UNL     1       3.993  -3.546  -6.680  0.00  0.00    -0.242 N 
ATOM      5  C   UNL     1       4.646  -4.293  -7.665  0.00  0.00    +0.026 C 
ATOM      6  C   UNL     1       5.970  -4.168  -7.802  0.00  0.00    +0.006 C 
ATOM      7  S   UNL     1       6.476  -2.969  -6.553  0.00  0.00    -0.086 S 
ATOM      8  C   UNL     1       6.859  -4.860  -8.788  0.00  0.00    +0.044 C 
ATOM      9  C   UNL     1       6.103  -6.057  -9.379  0.00  0.00    +0.006 C 
ATOM     10  C   UNL     1       4.702  -5.592  -9.790  0.00  0.00    +0.006 C 
ATOM     11  C   UNL     1       3.876  -5.278  -8.544  0.00  0.00    +0.052 C 
ATOM     12  C   UNL     1       2.768  -3.840  -6.168  0.00  0.00    +0.247 C 
ATOM     13  O   UNL     1       2.003  -4.583  -6.758  0.00  0.00    -0.270 OA
ATOM     14  C   UNL     1       2.408  -3.261  -4.926  0.00  0.00    +0.087 C 
ATOM     15  H   UNL     1       5.349  -2.321  -4.083  0.00  0.00    +0.148 HD
ENDROOT
BRANCH   1  16
ATOM     16  C   UNL     1       2.921  -1.946  -2.892  0.00  0.00    +0.123 C 
BRANCH  16  17
ATOM     17  S   UNL     1       3.629  -2.921  -1.536  0.00  0.00    -0.109 S 
BRANCH  17  23
ATOM     18  C   UNL     1      -0.016   1.344   0.009  0.00  0.00    +0.002 A 
ATOM     19  C   UNL     1       1.158   2.118   0.002  0.00  0.00    +0.002 A 
ATOM     20  C   UNL     1       2.389   1.570  -0.013  0.00  0.00    +0.027 A 
ATOM     21  C   UNL     1       2.533   0.108  -0.022  0.00  0.00    +0.061 A 
ATOM     22  N   UNL     1       3.569  -0.680  -0.036  0.00  0.00    -0.355 N 
ATOM     23  C   UNL     1       3.071  -2.062  -0.039  0.00  0.00    +0.236 C 
ATOM     24  N   UNL     1       1.606  -1.974  -0.024  0.00  0.00    -0.355 N 
ATOM     25  C   UNL     1       1.290  -0.712  -0.014  0.00  0.00    +0.061 A 
ATOM     26  C   UNL     1       0.002  -0.004   0.002  0.00  0.00    +0.027 A 
ATOM     27  H   UNL     1       4.499  -0.405  -0.045  0.00  0.00    +0.162 HD
ATOM     28  H   UNL     1       0.987  -2.721  -0.022  0.00  0.00    +0.162 HD
ENDBRANCH  17  23
ENDBRANCH  16  17
ENDBRANCH   1  16
TORSDOF 3
