REMARK  Name = ZINC32943100
REMARK  5 active torsions:
REMARK  status: ('A' for Active; 'I' for Inactive)
REMARK    1  A    between atoms: C_4  and  N_7
REMARK    2  A    between atoms: N_9  and  C_10
REMARK    3  A    between atoms: C_10  and  C_11
REMARK    4  A    between atoms: C_11  and  C_12
REMARK    5  A    between atoms: C_23  and  C_25
REMARK                            x       y       z     vdW  Elec       q    Type
REMARK                         _______ _______ _______ _____ _____    ______ ____
ROOT
ATOM      1  N   UNL     1       2.265   4.051   0.149  0.00  0.00    -0.217 NA
ATOM      2  C   UNL     1       2.498   4.869  -0.849  0.00  0.00    +0.196 C 
ATOM      3  N   UNL     1       1.479   5.224  -1.697  0.00  0.00    -0.357 N 
ATOM      4  N   UNL     1       3.765   5.372  -1.046  0.00  0.00    -0.252 N 
ATOM      5  C   UNL     1       4.766   5.023  -0.214  0.00  0.00    +0.257 C 
ATOM      6  O   UNL     1       4.550   4.264   0.712  0.00  0.00    -0.269 OA
ATOM      7  H   UNL     1       0.490   4.755  -1.595  0.00  0.00    +0.162 HD
ATOM      8  H   UNL     1       3.960   6.059  -1.884  0.00  0.00    +0.158 HD
ENDROOT
BRANCH   1  12
ATOM      9  C   UNL     1      -1.606   2.832   0.962  0.00  0.00    +0.000 A 
ATOM     10  C   UNL     1      -0.618   1.888   0.744  0.00  0.00    +0.002 A 
ATOM     11  C   UNL     1       0.674   2.287   0.470  0.00  0.00    +0.028 A 
ATOM     12  C   UNL     1       0.984   3.647   0.419  0.00  0.00    +0.067 A 
ATOM     13  C   UNL     1      -0.016   4.594   0.646  0.00  0.00    +0.028 A 
ATOM     14  C   UNL     1      -1.304   4.181   0.918  0.00  0.00    +0.002 A 
ENDBRANCH   1  12
BRANCH   5  15
ATOM     15  C   UNL     1       6.113   5.558  -0.423  0.00  0.00    +0.074 A 
ATOM     16  C   UNL     1       7.267   5.333   0.312  0.00  0.00    +0.021 A 
ATOM     17  C   UNL     1       8.410   5.964  -0.111  0.00  0.00    +0.008 A 
ATOM     18  C   UNL     1       8.357   6.773  -1.201  0.00  0.00    +0.046 A 
ATOM     19  S   UNL     1       6.696   6.675  -1.687  0.00  0.00    -0.092 S 
ENDBRANCH   5  15
BRANCH   3  20
ATOM     20  C   UNL     1       1.710   6.229  -2.739  0.00  0.00    +0.120 C 
BRANCH  20  21
ATOM     21  C   UNL     1       0.451   6.371  -3.597  0.00  0.00    +0.058 C 
BRANCH  21  22
ATOM     22  C   UNL     1       0.688   7.404  -4.668  0.00  0.00    -0.021 A 
ATOM     23  C   UNL     1       0.358   8.704  -4.611  0.00  0.00    +0.087 A 
ATOM     24  N   UNL     1       0.731   9.332  -5.768  0.00  0.00    -0.360 N 
ATOM     25  H   UNL     1       0.543  10.408  -5.896  0.00  0.00    +0.165 HD
ATOM     26  C   UNL     1       1.317   8.426  -6.624  0.00  0.00    +0.047 A 
ATOM     27  C   UNL     1       1.316   7.179  -5.972  0.00  0.00    +0.003 A 
ATOM     28  C   UNL     1       1.856   6.060  -6.609  0.00  0.00    +0.010 A 
ATOM     29  C   UNL     1       2.383   6.182  -7.864  0.00  0.00    +0.001 A 
ATOM     30  C   UNL     1       2.386   7.410  -8.511  0.00  0.00    +0.002 A 
ATOM     31  C   UNL     1       1.859   8.527  -7.901  0.00  0.00    +0.026 A 
ENDBRANCH  21  22
ENDBRANCH  20  21
ENDBRANCH   3  20
TORSDOF 5
