REMARK  Name = ZINC58997013
REMARK  10 active torsions:
REMARK  status: ('A' for Active; 'I' for Inactive)
REMARK    1  A    between atoms: C_4  and  O_35
REMARK    2  A    between atoms: C_5  and  C_7
REMARK    3  A    between atoms: N_8  and  N_9
REMARK    4  A    between atoms: C_12  and  S_15
REMARK    5  A    between atoms: S_15  and  C_16
REMARK    6  A    between atoms: C_16  and  C_17
REMARK    7  A    between atoms: N_19  and  C_20
REMARK    8  A    between atoms: C_25  and  S_26
REMARK    9  A    between atoms: S_26  and  C_27
REMARK   10  A    between atoms: C_27  and  C_28
REMARK                            x       y       z     vdW  Elec       q    Type
REMARK                         _______ _______ _______ _____ _____    ______ ____
ROOT
ATOM      1  C   UNL     1       8.210  -6.632  -0.096  0.00  0.00    +0.173 C 
ENDROOT
BRANCH   1   2
ATOM      2  C   UNL     1       9.713  -6.535  -0.118  0.00  0.00    +0.228 C 
ATOM      3  O   UNL     1      10.251  -5.447  -0.115  0.00  0.00    -0.275 OA
ATOM      4  N   UNL     1      10.461  -7.656  -0.142  0.00  0.00    -0.284 N 
ATOM      5  H   UNL     1      10.035  -8.525  -0.079  0.00  0.00    +0.155 HD
BRANCH   4   6
ATOM      6  C   UNL     1      11.855  -7.566  -0.257  0.00  0.00    +0.047 A 
ATOM      7  C   UNL     1      12.536  -6.516   0.339  0.00  0.00    +0.024 A 
ATOM      8  C   UNL     1      13.911  -6.429   0.224  0.00  0.00    +0.002 A 
ATOM      9  C   UNL     1      14.612  -7.388  -0.484  0.00  0.00    +0.001 A 
ATOM     10  C   UNL     1      13.942  -8.439  -1.082  0.00  0.00    +0.016 A 
ATOM     11  C   UNL     1      12.562  -8.537  -0.967  0.00  0.00    +0.029 A 
BRANCH  11  12
ATOM     12  S   UNL     1      11.706  -9.880  -1.721  0.00  0.00    -0.119 S 
BRANCH  12  13
ATOM     13  C   UNL     1      13.020 -10.852  -2.507  0.00  0.00    +0.109 C 
BRANCH  13  14
ATOM     14  C   UNL     1      12.415 -12.047  -3.199  0.00  0.00    -0.037 A 
ATOM     15  C   UNL     1      12.257 -13.236  -2.511  0.00  0.00    +0.007 A 
ATOM     16  C   UNL     1      11.702 -14.332  -3.144  0.00  0.00    +0.038 A 
ATOM     17  C   UNL     1      11.305 -14.240  -4.467  0.00  0.00    +0.123 A 
ATOM     18  C   UNL     1      11.464 -13.048  -5.154  0.00  0.00    +0.038 A 
ATOM     19  C   UNL     1      12.014 -11.952  -4.518  0.00  0.00    +0.007 A 
ATOM     20  F   UNL     1      10.763 -15.311  -5.087  0.00  0.00    -0.205 F 
ENDBRANCH  13  14
ENDBRANCH  12  13
ENDBRANCH  11  12
ENDBRANCH   4   6
ENDBRANCH   1   2
BRANCH   1  21
ATOM     21  S   UNL     1       7.496  -4.965  -0.067  0.00  0.00    -0.075 S 
BRANCH  21  25
ATOM     22  N   UNL     1       2.414  -4.183   0.019  0.00  0.00    -0.205 N 
ATOM     23  C   UNL     1       3.624  -4.853  -0.007  0.00  0.00    +0.232 A 
ATOM     24  N   UNL     1       4.817  -4.295  -0.019  0.00  0.00    -0.186 NA
ATOM     25  C   UNL     1       5.757  -5.246  -0.043  0.00  0.00    +0.211 A 
ATOM     26  N   UNL     1       5.175  -6.421  -0.048  0.00  0.00    -0.144 NA
ATOM     27  N   UNL     1       3.790  -6.192  -0.019  0.00  0.00    -0.245 N 
ATOM     28  H   UNL     1       1.583  -4.684   0.031  0.00  0.00    +0.177 HD
ATOM     29  H   UNL     1       3.090  -6.864  -0.010  0.00  0.00    +0.192 HD
BRANCH  22  31
ATOM     30  C   UNL     1       1.253  -2.154   0.054  0.00  0.00    +0.142 C 
ATOM     31  N   UNL     1       2.389  -2.783   0.029  0.00  0.00    -0.187 NA
BRANCH  30  36
ATOM     32  C   UNL     1      -0.012   1.378   0.099  0.00  0.00    +0.001 A 
ATOM     33  C   UNL     1       1.174   2.092   0.082  0.00  0.00    +0.004 A 
ATOM     34  C   UNL     1       2.388   1.431   0.057  0.00  0.00    +0.046 A 
ATOM     35  C   UNL     1       2.424   0.046   0.047  0.00  0.00    +0.125 A 
ATOM     36  C   UNL     1       1.226  -0.681   0.064  0.00  0.00    +0.036 A 
ATOM     37  C   UNL     1       0.006  -0.001   0.090  0.00  0.00    +0.013 A 
BRANCH  35  38
ATOM     38  O   UNL     1       3.616  -0.605   0.022  0.00  0.00    -0.506 OA
ATOM     39  H   UNL     1       3.977  -0.798   0.897  0.00  0.00    +0.292 HD
ENDBRANCH  35  38
ENDBRANCH  30  36
ENDBRANCH  22  31
ENDBRANCH  21  25
ENDBRANCH   1  21
TORSDOF 10
