REMARK  Name = ZINC21371526
REMARK  11 active torsions:
REMARK  status: ('A' for Active; 'I' for Inactive)
REMARK    1  A    between atoms: C_1  and  C_2
REMARK    2  A    between atoms: C_2  and  C_3
REMARK    3  A    between atoms: C_2  and  N_4
REMARK    4  A    between atoms: C_14  and  S_15
REMARK    5  A    between atoms: S_15  and  C_16
REMARK    6  A    between atoms: C_16  and  C_17
REMARK    7  A    between atoms: C_17  and  C_19
REMARK    8  A    between atoms: C_20  and  N_35
REMARK    9  A    between atoms: N_21  and  C_28
REMARK   10  A    between atoms: N_24  and  C_27
REMARK   11  A    between atoms: C_28  and  C_29
REMARK                            x       y       z     vdW  Elec       q    Type
REMARK                         _______ _______ _______ _____ _____    ______ ____
ROOT
ATOM      1  C   UNL     1      -2.355  -4.050   4.163  0.00  0.00    +0.120 A 
ATOM      2  C   UNL     1      -2.401  -5.452   4.071  0.00  0.00    +0.116 A 
ATOM      3  N   UNL     1      -2.958  -6.163   5.095  0.00  0.00    -0.277 N 
ATOM      4  C   UNL     1      -3.458  -5.550   6.179  0.00  0.00    +0.333 A 
ATOM      5  O   UNL     1      -3.942  -6.228   7.064  0.00  0.00    -0.246 OA
ATOM      6  N   UNL     1      -3.442  -4.214   6.323  0.00  0.00    -0.263 N 
ATOM      7  C   UNL     1      -2.909  -3.422   5.369  0.00  0.00    +0.269 A 
ATOM      8  O   UNL     1      -2.892  -2.213   5.505  0.00  0.00    -0.267 OA
ATOM      9  C   UNL     1      -4.005  -3.610   7.533  0.00  0.00    +0.157 C 
ENDROOT
BRANCH   2  10
ATOM     10  N   UNL     1      -1.899  -6.090   2.979  0.00  0.00    -0.344 N 
ATOM     11  H   UNL     1      -1.940  -7.187   2.917  0.00  0.00    +0.144 HD
ATOM     12  H   UNL     1      -1.453  -5.508   2.159  0.00  0.00    +0.144 HD
ENDBRANCH   2  10
BRANCH   1  13
ATOM     13  C   UNL     1      -1.790  -3.271   3.131  0.00  0.00    +0.182 C 
ATOM     14  O   UNL     1      -1.237  -3.812   2.194  0.00  0.00    -0.291 OA
BRANCH  13  15
ATOM     15  C   UNL     1      -1.872  -1.767   3.191  0.00  0.00    +0.157 C 
BRANCH  15  16
ATOM     16  S   UNL     1      -1.062  -1.060   1.734  0.00  0.00    -0.080 S 
BRANCH  16  27
ATOM     17  N   UNL     1      -0.814   1.560   1.154  0.00  0.00    -0.285 N 
ATOM     18  C   UNL     1      -0.979   2.888   1.358  0.00  0.00    +0.263 A 
ATOM     19  O   UNL     1      -0.555   3.706   0.562  0.00  0.00    -0.267 OA
ATOM     20  C   UNL     1      -1.689   3.305   2.575  0.00  0.00    +0.065 A 
ATOM     21  C   UNL     1      -1.910   4.648   2.875  0.00  0.00    +0.015 A 
ATOM     22  C   UNL     1      -2.577   4.981   4.022  0.00  0.00    +0.001 A 
ATOM     23  C   UNL     1      -3.035   3.997   4.888  0.00  0.00    +0.002 A 
ATOM     24  C   UNL     1      -2.831   2.673   4.618  0.00  0.00    +0.028 A 
ATOM     25  C   UNL     1      -2.153   2.300   3.454  0.00  0.00    +0.079 A 
ATOM     26  N   UNL     1      -1.931   1.006   3.149  0.00  0.00    -0.223 NA
ATOM     27  C   UNL     1      -1.300   0.656   2.055  0.00  0.00    +0.173 A 
BRANCH  17  29
ATOM     28  C   UNL     1       1.310   1.648  -0.055  0.00  0.00    +0.031 C 
ATOM     29  C   UNL     1      -0.114   1.089  -0.044  0.00  0.00    +0.087 C 
ATOM     30  C   UNL     1      -0.860   1.568  -1.291  0.00  0.00    +0.031 C 
ENDBRANCH  17  29
ENDBRANCH  16  27
ENDBRANCH  15  16
ENDBRANCH  13  15
ENDBRANCH   1  13
BRANCH   3  31
ATOM     31  C   UNL     1      -3.010  -7.624   5.009  0.00  0.00    +0.163 C 
BRANCH  31  32
ATOM     32  C   UNL     1      -1.759  -8.209   5.612  0.00  0.00    -0.028 A 
ATOM     33  C   UNL     1      -0.651  -8.438   4.817  0.00  0.00    +0.005 A 
ATOM     34  C   UNL     1       0.499  -8.970   5.371  0.00  0.00    +0.000 A 
ATOM     35  C   UNL     1       0.537  -9.281   6.717  0.00  0.00    +0.000 A 
ATOM     36  C   UNL     1      -0.572  -9.057   7.511  0.00  0.00    +0.000 A 
ATOM     37  C   UNL     1      -1.720  -8.520   6.958  0.00  0.00    +0.005 A 
ENDBRANCH  31  32
ENDBRANCH   3  31
TORSDOF 8
