REMARK  Name = ZINC20881755
REMARK  7 active torsions:
REMARK  status: ('A' for Active; 'I' for Inactive)
REMARK    1  A    between atoms: C_1  and  C_2
REMARK    2  A    between atoms: C_2  and  O_3
REMARK    3  A    between atoms: O_3  and  C_4
REMARK    4  A    between atoms: C_7  and  C_10
REMARK    5  A    between atoms: C_15  and  C_25
REMARK    6  A    between atoms: C_28  and  O_32
REMARK    7  A    between atoms: O_32  and  C_33
REMARK                            x       y       z     vdW  Elec       q    Type
REMARK                         _______ _______ _______ _____ _____    ______ ____
ROOT
ATOM      1  C   UNL     1      -2.963   0.608   4.279  0.00  0.00    +0.032 C 
ATOM      2  C   UNL     1      -4.258   0.936   3.538  0.00  0.00    +0.059 C 
ATOM      3  C   UNL     1      -3.954   1.292   2.092  0.00  0.00    +0.017 C 
ATOM      4  C   UNL     1      -2.916   0.723   1.452  0.00  0.00    +0.036 C 
ATOM      5  C   UNL     1      -2.513   0.977   0.019  0.00  0.00    +0.136 C 
ATOM      6  N   UNL     1      -3.487   1.711  -0.760  0.00  0.00    -0.331 N 
ATOM      7  C   UNL     1      -3.810   3.030  -0.445  0.00  0.00    +0.049 A 
ATOM      8  C   UNL     1      -3.524   4.073  -1.310  0.00  0.00    +0.025 A 
ATOM      9  C   UNL     1      -3.821   5.371  -0.933  0.00  0.00    +0.002 A 
ATOM     10  C   UNL     1      -4.395   5.628   0.299  0.00  0.00    +0.002 A 
ATOM     11  C   UNL     1      -4.699   4.586   1.159  0.00  0.00    +0.025 A 
ATOM     12  C   UNL     1      -4.423   3.286   0.772  0.00  0.00    +0.052 A 
ATOM     13  N   UNL     1      -4.807   2.188   1.534  0.00  0.00    -0.316 N 
ATOM     14  C   UNL     1      -2.087  -0.204   2.126  0.00  0.00    +0.163 C 
ATOM     15  O   UNL     1      -1.168  -0.718   1.519  0.00  0.00    -0.292 OA
ATOM     16  C   UNL     1      -2.302  -0.576   3.563  0.00  0.00    +0.088 C 
ATOM     17  H   UNL     1      -3.985   1.229  -1.614  0.00  0.00    +0.147 HD
ATOM     18  H   UNL     1      -5.892   2.073   1.670  0.00  0.00    +0.152 HD
ENDROOT
BRANCH   5  19
ATOM     19  C   UNL     1      -1.220   1.750   0.017  0.00  0.00    -0.021 A 
ATOM     20  C   UNL     1      -0.069   1.170  -0.484  0.00  0.00    +0.009 A 
ATOM     21  C   UNL     1       1.117   1.878  -0.493  0.00  0.00    +0.047 A 
ATOM     22  C   UNL     1       1.155   3.171   0.008  0.00  0.00    +0.138 A 
ATOM     23  C   UNL     1      -0.000   3.750   0.516  0.00  0.00    +0.083 A 
ATOM     24  C   UNL     1      -1.185   3.037   0.522  0.00  0.00    +0.029 A 
ATOM     25 CL   UNL     1       0.042   5.369   1.142  0.00  0.00    -0.080 Cl
BRANCH  22  26
ATOM     26  O   UNL     1       2.320   3.870  -0.000  0.00  0.00    -0.494 OA
ATOM     27  C   UNL     1       3.468   3.212  -0.538  0.00  0.00    +0.277 C 
ENDBRANCH  22  26
ENDBRANCH   5  19
BRANCH   1  31
ATOM     28  C   UNL     1      -3.839  -0.452   8.325  0.00  0.00    +0.121 A 
ATOM     29  C   UNL     1      -3.019   0.634   8.053  0.00  0.00    +0.046 A 
ATOM     30  C   UNL     1      -2.738   0.975   6.744  0.00  0.00    +0.007 A 
ATOM     31  C   UNL     1      -3.272   0.235   5.705  0.00  0.00    -0.043 A 
ATOM     32  C   UNL     1      -4.093  -0.845   5.974  0.00  0.00    +0.007 A 
ATOM     33  C   UNL     1      -4.374  -1.193   7.281  0.00  0.00    +0.046 A 
BRANCH  28  34
ATOM     34  O   UNL     1      -4.117  -0.789   9.611  0.00  0.00    -0.492 OA
BRANCH  34  36
ATOM     35  C   UNL     1      -5.166  -2.142  11.317  0.00  0.00    +0.048 C 
ATOM     36  C   UNL     1      -4.968  -1.918   9.817  0.00  0.00    +0.225 C 
ENDBRANCH  34  36
ENDBRANCH  28  34
ENDBRANCH   1  31
TORSDOF 5
