REMARK  Name = ZINC49157574
REMARK  6 active torsions:
REMARK  status: ('A' for Active; 'I' for Inactive)
REMARK    1  A    between atoms: C_6  and  C_7
REMARK    2  A    between atoms: N_9  and  N_10
REMARK    3  A    between atoms: C_11  and  C_13
REMARK    4  A    between atoms: C_13  and  C_14
REMARK    5  A    between atoms: C_14  and  C_15
REMARK    6  A    between atoms: C_14  and  C_18
REMARK                            x       y       z     vdW  Elec       q    Type
REMARK                         _______ _______ _______ _____ _____    ______ ____
ROOT
ATOM      1  N   UNL     1      -2.123  -3.080   0.212  0.00  0.00    -0.234 N 
ATOM      2  C   UNL     1      -1.961  -4.414   0.113  0.00  0.00    +0.229 C 
ATOM      3  O   UNL     1      -0.845  -4.889   0.091  0.00  0.00    -0.274 OA
ATOM      4  H   UNL     1      -3.015  -2.700   0.230  0.00  0.00    +0.173 HD
ENDROOT
BRANCH   1   7
ATOM      5  C   UNL     1      -1.165  -0.908   0.388  0.00  0.00    +0.276 C 
ATOM      6  O   UNL     1      -2.285  -0.431   0.410  0.00  0.00    -0.267 OA
ATOM      7  N   UNL     1      -1.003  -2.242   0.290  0.00  0.00    -0.229 N 
ATOM      8  H   UNL     1      -0.111  -2.622   0.272  0.00  0.00    +0.173 HD
BRANCH   5  14
ATOM      9  C   UNL     1      -0.010   1.345   0.573  0.00  0.00    +0.047 A 
ATOM     10  C   UNL     1       1.322   1.770   0.623  0.00  0.00    +0.036 A 
ATOM     11  C   UNL     1       2.111   0.671   0.550  0.00  0.00    +0.098 A 
ATOM     12  N   UNL     1       1.324  -0.429   0.457  0.00  0.00    -0.356 N 
ATOM     13  H   UNL     1       1.637  -1.345   0.391  0.00  0.00    +0.166 HD
ATOM     14  C   UNL     1       0.007  -0.030   0.470  0.00  0.00    +0.104 A 
ATOM     15 BR   UNL     1       1.915   3.559   0.766  0.00  0.00    -0.049 Br
ENDBRANCH   5  14
ENDBRANCH   1   7
BRANCH   2  16
ATOM     16  C   UNL     1      -3.165  -5.316   0.030  0.00  0.00    +0.101 C 
BRANCH  16  17
ATOM     17  C   UNL     1      -2.707  -6.766  -0.133  0.00  0.00    +0.004 C 
BRANCH  17  18
ATOM     18  C   UNL     1      -1.986  -7.219   1.138  0.00  0.00    -0.007 C 
ATOM     19  C   UNL     1      -0.480  -7.473   1.044  0.00  0.00    +0.004 C 
ATOM     20  C   UNL     1      -1.447  -8.651   1.173  0.00  0.00    +0.004 C 
ENDBRANCH  17  18
BRANCH  17  21
ATOM     21  C   UNL     1      -3.923  -7.662  -0.376  0.00  0.00    -0.007 C 
ATOM     22  C   UNL     1      -3.823  -8.701  -1.494  0.00  0.00    +0.004 C 
ATOM     23  C   UNL     1      -4.700  -7.460  -1.679  0.00  0.00    +0.004 C 
ENDBRANCH  17  21
ENDBRANCH  16  17
ENDBRANCH   2  16
TORSDOF 6
