REMARK  Name = ZINC39591761
REMARK  3 active torsions:
REMARK  status: ('A' for Active; 'I' for Inactive)
REMARK    1  A    between atoms: C_1  and  C_2
REMARK    2  A    between atoms: C_4  and  C_8
REMARK    3  A    between atoms: C_16  and  C_18
REMARK                            x       y       z     vdW  Elec       q    Type
REMARK                         _______ _______ _______ _____ _____    ______ ____
ROOT
ATOM      1  C   UNL     1      -0.976  -2.937  -1.266  0.00  0.00    +0.206 C 
ATOM      2  N   UNL     1      -0.342  -2.341  -2.467  0.00  0.00    -0.231 NA
ATOM      3  N   UNL     1       0.385  -3.430  -3.141  0.00  0.00    -0.224 NA
ATOM      4  C   UNL     1      -0.328  -4.639  -2.681  0.00  0.00    +0.240 C 
ATOM      5  N   UNL     1      -0.506  -4.340  -1.222  0.00  0.00    -0.206 N 
ATOM      6  N   UNL     1      -0.117  -5.371  -0.395  0.00  0.00    -0.173 NA
ATOM      7  C   UNL     1       0.624  -6.362  -0.799  0.00  0.00    +0.125 C 
ATOM      8  S   UNL     1       0.792  -6.085  -2.590  0.00  0.00    -0.063 S 
ATOM      9  H   UNL     1      -1.035  -1.936  -3.078  0.00  0.00    +0.143 HD
ATOM     10  H   UNL     1       0.327  -3.336  -4.144  0.00  0.00    +0.144 HD
ENDROOT
BRANCH   7  11
ATOM     11  C   UNL     1       1.192  -7.463   0.007  0.00  0.00    +0.009 A 
ATOM     12  C   UNL     1       1.977  -8.444  -0.602  0.00  0.00    +0.012 A 
ATOM     13  C   UNL     1       2.505  -9.469   0.156  0.00  0.00    +0.020 A 
ATOM     14  C   UNL     1       2.257  -9.527   1.517  0.00  0.00    +0.041 A 
ATOM     15  C   UNL     1       1.479  -8.557   2.126  0.00  0.00    +0.020 A 
ATOM     16  C   UNL     1       0.951  -7.523   1.380  0.00  0.00    +0.012 A 
ATOM     17 CL   UNL     1       2.924 -10.820   2.463  0.00  0.00    -0.084 Cl
ENDBRANCH   7  11
BRANCH   1  21
ATOM     18  C   UNL     1      -0.018   1.503   0.010  0.00  0.00    +0.067 C 
ATOM     19  C   UNL     1       0.002  -0.004   0.002  0.00  0.00    +0.058 C 
ATOM     20  C   UNL     1      -1.086  -0.777   0.003  0.00  0.00    +0.029 C 
ATOM     21  C   UNL     1      -0.531  -2.190  -0.007  0.00  0.00    +0.190 C 
ATOM     22  N   UNL     1       0.926  -1.973  -0.013  0.00  0.00    -0.177 NA
ATOM     23  N   UNL     1       1.125  -0.756  -0.013  0.00  0.00    -0.159 NA
ENDBRANCH   1  21
TORSDOF 2
