REMARK  Name = ZINC50362335
REMARK  7 active torsions:
REMARK  status: ('A' for Active; 'I' for Inactive)
REMARK    1  A    between atoms: C_1  and  C_2
REMARK    2  A    between atoms: C_8  and  N_10
REMARK    3  A    between atoms: N_10  and  C_11
REMARK    4  A    between atoms: N_10  and  C_12
REMARK    5  A    between atoms: C_12  and  C_14
REMARK    6  A    between atoms: C_12  and  C_16
REMARK    7  A    between atoms: C_14  and  N_15
REMARK                            x       y       z     vdW  Elec       q    Type
REMARK                         _______ _______ _______ _____ _____    ______ ____
ROOT
ATOM      1  C   UNL     1       0.846  -0.715   3.993  0.00  0.00    +0.105 C 
ENDROOT
BRANCH   1   2
ATOM      2  C   UNL     1       1.887  -1.755   3.668  0.00  0.00    +0.123 A 
ATOM      3  C   UNL     1       3.111  -1.841   4.219  0.00  0.00    +0.062 A 
ATOM      4  C   UNL     1       3.750  -2.956   3.629  0.00  0.00    +0.070 A 
ATOM      5  C   UNL     1       2.876  -3.485   2.750  0.00  0.00    +0.184 A 
ATOM      6  O   UNL     1       1.748  -2.756   2.783  0.00  0.00    -0.450 OA
ATOM      7 BR   UNL     1       3.183  -5.001   1.662  0.00  0.00    -0.007 Br
ATOM      8 BR   UNL     1       5.494  -3.583   4.000  0.00  0.00    -0.046 Br
ENDBRANCH   1   2
BRANCH   1   9
ATOM      9  N   UNL     1       0.266  -0.197   2.747  0.00  0.00    -0.294 NA
ATOM     10  C   UNL     1      -0.350   1.119   2.961  0.00  0.00    +0.105 C 
BRANCH   9  17
ATOM     11  C   UNL     1       2.769   1.203   3.170  0.00  0.00    +0.009 C 
ATOM     12  C   UNL     1       2.075   1.161   1.807  0.00  0.00    +0.003 C 
ATOM     13  C   UNL     1       3.127   1.222   0.697  0.00  0.00    +0.005 C 
ATOM     14  C   UNL     1       2.433   1.180  -0.666  0.00  0.00    +0.000 C 
ATOM     15  C   UNL     1       1.633  -0.118  -0.792  0.00  0.00    +0.002 C 
ATOM     16  C   UNL     1       0.582  -0.180   0.318  0.00  0.00    +0.019 C 
ATOM     17  C   UNL     1       1.276  -0.138   1.681  0.00  0.00    +0.060 C 
ENDBRANCH   9  17
ENDBRANCH   1   9
BRANCH   1  18
ATOM     18  C   UNL     1      -0.258  -1.347   4.844  0.00  0.00    -0.059 C 
BRANCH  18  19
ATOM     19  N   UNL     1      -1.317  -0.359   5.085  0.00  0.00    +0.379 N 
ATOM     20  H   UNL     1      -1.935  -0.698   5.807  0.00  0.00    -0.090 HD
ATOM     21  H   UNL     1      -0.903   0.513   5.380  0.00  0.00    -0.090 HD
ATOM     22  H   UNL     1      -1.840  -0.212   4.235  0.00  0.00    -0.090 HD
ENDBRANCH  18  19
ENDBRANCH   1  18
TORSDOF 5
