REMARK  Name = ZINC15276966
REMARK  8 active torsions:
REMARK  status: ('A' for Active; 'I' for Inactive)
REMARK    1  A    between atoms: C_1  and  C_2
REMARK    2  A    between atoms: C_2  and  C_3
REMARK    3  A    between atoms: C_3  and  C_4
REMARK    4  A    between atoms: C_4  and  C_5
REMARK    5  A    between atoms: C_9  and  N_27
REMARK    6  A    between atoms: C_10  and  C_14
REMARK    7  A    between atoms: N_16  and  C_17
REMARK    8  A    between atoms: C_20  and  N_24
REMARK                            x       y       z     vdW  Elec       q    Type
REMARK                         _______ _______ _______ _____ _____    ______ ____
ROOT
ATOM      1  C   UNL     1      -0.642  -2.209  -0.057  0.00  0.00    +0.043 A 
ATOM      2  C   UNL     1       0.680  -2.627  -0.071  0.00  0.00    +0.024 A 
ATOM      3  C   UNL     1       1.701  -1.705  -0.066  0.00  0.00    +0.014 A 
ATOM      4  C   UNL     1       1.380  -0.325  -0.046  0.00  0.00    +0.029 A 
ATOM      5  C   UNL     1       2.281   0.817  -0.038  0.00  0.00    +0.053 A 
ATOM      6  C   UNL     1       1.734   2.081  -0.019  0.00  0.00    +0.097 A 
ATOM      7  S   UNL     1      -0.021   1.771  -0.012  0.00  0.00    -0.062 S 
ATOM      8  C   UNL     1       0.003  -0.004  -0.034  0.00  0.00    +0.111 A 
ATOM      9  N   UNL     1      -0.937  -0.924  -0.039  0.00  0.00    -0.244 NA
ENDROOT
BRANCH   6  10
ATOM     10  C   UNL     1       2.405   3.329  -0.009  0.00  0.00    +0.257 C 
ATOM     11  O   UNL     1       3.623   3.365  -0.017  0.00  0.00    -0.269 OA
ATOM     12  N   UNL     1       1.697   4.475   0.009  0.00  0.00    -0.280 N 
ATOM     13  H   UNL     1       0.729   4.448  -0.050  0.00  0.00    +0.155 HD
BRANCH  12  14
ATOM     14  C   UNL     1       2.357   5.704   0.115  0.00  0.00    +0.048 A 
ATOM     15  C   UNL     1       3.596   5.882  -0.488  0.00  0.00    +0.026 A 
ATOM     16  C   UNL     1       4.245   7.096  -0.382  0.00  0.00    +0.034 A 
ATOM     17  C   UNL     1       3.664   8.134   0.324  0.00  0.00    +0.127 A 
ATOM     18  C   UNL     1       2.431   7.961   0.925  0.00  0.00    +0.049 A 
ATOM     19  C   UNL     1       1.773   6.750   0.818  0.00  0.00    +0.041 A 
ATOM     20 BR   UNL     1       0.083   6.516   1.634  0.00  0.00    -0.048 Br
BRANCH  17  21
ATOM     21  N   UNL     1       4.363   9.434   0.435  0.00  0.00    +0.056 N 
ATOM     22  O   UNL     1       5.449   9.589  -0.094  0.00  0.00    -0.126 OA
ATOM     23  O   UNL     1       3.853  10.349   1.056  0.00  0.00    -0.126 OA
ENDBRANCH  17  21
ENDBRANCH  12  14
ENDBRANCH   6  10
BRANCH   5  24
ATOM     24  N   UNL     1       3.657   0.637  -0.049  0.00  0.00    -0.356 N 
ATOM     25  H   UNL     1       4.029  -0.258  -0.062  0.00  0.00    +0.142 HD
ATOM     26  H   UNL     1       4.247   1.408  -0.043  0.00  0.00    +0.142 HD
ENDBRANCH   5  24
BRANCH   1  27
ATOM     27  C   UNL     1      -1.750  -3.232  -0.063  0.00  0.00    +0.055 C 
BRANCH  27  28
ATOM     28  C   UNL     1      -2.678  -2.984   1.128  0.00  0.00    +0.006 C 
BRANCH  28  30
ATOM     29  C   UNL     1      -4.731  -3.774   2.313  0.00  0.00    +0.004 C 
ATOM     30  C   UNL     1      -3.803  -4.021   1.123  0.00  0.00    -0.003 C 
ENDBRANCH  28  30
ENDBRANCH  27  28
ENDBRANCH   1  27
TORSDOF 7
