REMARK  Name = ZINC50441467
REMARK  7 active torsions:
REMARK  status: ('A' for Active; 'I' for Inactive)
REMARK    1  A    between atoms: C_1  and  C_2
REMARK    2  A    between atoms: C_2  and  C_3
REMARK    3  A    between atoms: C_2  and  C_16
REMARK    4  A    between atoms: C_2  and  N_18
REMARK    5  A    between atoms: C_3  and  O_4
REMARK    6  A    between atoms: O_4  and  C_5
REMARK    7  A    between atoms: C_8  and  N_12
REMARK                            x       y       z     vdW  Elec       q    Type
REMARK                         _______ _______ _______ _____ _____    ______ ____
ROOT
ATOM      1  C   UNL     1       2.881  -0.377   2.271  0.00  0.00    +0.149 A 
ATOM      2  C   UNL     1       2.931   0.409   3.414  0.00  0.00    +0.063 A 
ATOM      3  C   UNL     1       3.744   0.040   4.470  0.00  0.00    +0.051 A 
ATOM      4  C   UNL     1       4.507  -1.110   4.387  0.00  0.00    +0.129 A 
ATOM      5  C   UNL     1       4.459  -1.894   3.250  0.00  0.00    +0.051 A 
ATOM      6  C   UNL     1       3.644  -1.533   2.193  0.00  0.00    +0.063 A 
ATOM      7 BR   UNL     1       3.573  -2.611   0.641  0.00  0.00    -0.046 Br
ATOM      8 BR   UNL     1       1.889   1.983   3.527  0.00  0.00    -0.046 Br
ENDROOT
BRANCH   4   9
ATOM      9  N   UNL     1       5.377  -1.502   5.519  0.00  0.00    +0.056 N 
ATOM     10  O   UNL     1       5.419  -0.817   6.514  0.00  0.00    -0.126 OA
ATOM     11  O   UNL     1       6.044  -2.507   5.448  0.00  0.00    -0.126 OA
ENDBRANCH   4   9
BRANCH   1  12
ATOM     12  O   UNL     1       2.083  -0.016   1.231  0.00  0.00    -0.487 OA
BRANCH  12  13
ATOM     13  C   UNL     1       0.742  -0.511   1.242  0.00  0.00    +0.266 C 
BRANCH  13  15
ATOM     14  C   UNL     1      -0.019   1.526   0.010  0.00  0.00    +0.047 C 
ATOM     15  C   UNL     1       0.002  -0.004   0.002  0.00  0.00    +0.136 C 
BRANCH  15  16
ATOM     16  N   UNL     1       0.690  -0.478  -1.207  0.00  0.00    -0.311 NA
ATOM     17  H   UNL     1       1.619  -0.089  -1.270  0.00  0.00    +0.120 HD
ATOM     18  H   UNL     1       0.717  -1.486  -1.236  0.00  0.00    +0.120 HD
ENDBRANCH  15  16
BRANCH  15  19
ATOM     19  C   UNL     1      -1.379  -0.514   0.013  0.00  0.00    +0.088 C 
ATOM     20  N   UNL     1      -2.445  -0.907   0.021  0.00  0.00    -0.195 NA
ENDBRANCH  15  19
ENDBRANCH  13  15
ENDBRANCH  12  13
ENDBRANCH   1  12
TORSDOF 6
