REMARK  Name = ZINC06632496
REMARK  12 active torsions:
REMARK  status: ('A' for Active; 'I' for Inactive)
REMARK    1  A    between atoms: C_1  and  C_2
REMARK    2  A    between atoms: C_6  and  C_29
REMARK    3  A    between atoms: C_7  and  N_8
REMARK    4  A    between atoms: N_8  and  C_9
REMARK    5  A    between atoms: C_9  and  N_11
REMARK    6  A    between atoms: N_11  and  C_12
REMARK    7  A    between atoms: N_11  and  C_20
REMARK    8  A    between atoms: C_12  and  C_13
REMARK    9  A    between atoms: C_20  and  C_22
REMARK   10  A    between atoms: C_20  and  C_23
REMARK   11  A    between atoms: C_29  and  C_30
REMARK   12  A    between atoms: C_29  and  C_31
REMARK                            x       y       z     vdW  Elec       q    Type
REMARK                         _______ _______ _______ _____ _____    ______ ____
ROOT
ATOM      1  N   UNL     1      -0.129   2.278   3.502  0.00  0.00    -0.305 N 
ENDROOT
BRANCH   1   2
ATOM      2  C   UNL     1      -0.699   1.661   2.448  0.00  0.00    +0.138 C 
ATOM      3  S   UNL     1      -1.550   2.576   1.278  0.00  0.00    -0.018 S 
BRANCH   2   4
ATOM      4  N   UNL     1      -0.599   0.323   2.315  0.00  0.00    -0.296 N 
ATOM      5  H   UNL     1      -0.138  -0.198   2.991  0.00  0.00    +0.154 HD
BRANCH   4  12
ATOM      6  C   UNL     1      -3.416   0.487   1.952  0.00  0.00    +0.045 C 
ATOM      7  C   UNL     1      -2.530  -0.258   0.987  0.00  0.00    -0.029 A 
ATOM      8  C   UNL     1      -3.080  -0.882  -0.116  0.00  0.00    +0.005 A 
ATOM      9  C   UNL     1      -2.268  -1.566  -1.001  0.00  0.00    +0.001 A 
ATOM     10  C   UNL     1      -0.903  -1.628  -0.786  0.00  0.00    +0.006 A 
ATOM     11  C   UNL     1      -0.347  -1.006   0.315  0.00  0.00    -0.023 A 
ATOM     12  C   UNL     1      -1.160  -0.313   1.203  0.00  0.00    +0.039 A 
BRANCH  11  13
ATOM     13  C   UNL     1       1.140  -1.074   0.548  0.00  0.00    +0.015 C 
ATOM     14  C   UNL     1       1.567  -2.536   0.695  0.00  0.00    +0.012 C 
ATOM     15  C   UNL     1       1.872  -0.446  -0.640  0.00  0.00    +0.012 C 
ENDBRANCH  11  13
ENDBRANCH   4  12
ENDBRANCH   2   4
ENDBRANCH   1   2
BRANCH   1  16
ATOM     16  C   UNL     1      -0.238   3.731   3.646  0.00  0.00    +0.102 C 
ATOM     17  C   UNL     1       0.425   4.165   4.955  0.00  0.00    +0.033 C 
BRANCH  16  18
ATOM     18  C   UNL     1       0.452   4.404   2.487  0.00  0.00    -0.027 A 
ATOM     19  C   UNL     1       1.635   3.888   1.993  0.00  0.00    +0.005 A 
ATOM     20  C   UNL     1       2.267   4.505   0.930  0.00  0.00    +0.000 A 
ATOM     21  C   UNL     1       1.716   5.638   0.361  0.00  0.00    +0.000 A 
ATOM     22  C   UNL     1       0.532   6.154   0.855  0.00  0.00    +0.000 A 
ATOM     23  C   UNL     1      -0.102   5.534   1.915  0.00  0.00    +0.005 A 
ENDBRANCH  16  18
ENDBRANCH   1  16
BRANCH   1  24
ATOM     24  C   UNL     1       0.599   1.494   4.503  0.00  0.00    +0.111 C 
BRANCH  24  25
ATOM     25  C   UNL     1       2.096   1.532   4.190  0.00  0.00    +0.010 C 
ATOM     26  C   UNL     1       2.875   0.834   5.313  0.00  0.00    +0.009 C 
ATOM     27  C   UNL     1       4.371   1.042   5.065  0.00  0.00    +0.027 C 
ATOM     28  C   UNL     1       4.713   0.693   3.646  0.00  0.00    -0.031 C 
ATOM     29  C   UNL     1       3.841   0.587   2.695  0.00  0.00    -0.031 C 
ATOM     30  C   UNL     1       2.365   0.793   2.877  0.00  0.00    +0.032 C 
ENDBRANCH  24  25
ENDBRANCH   1  24
TORSDOF 8
