REMARK  Name = ZINC01222195
REMARK  7 active torsions:
REMARK  status: ('A' for Active; 'I' for Inactive)
REMARK    1  A    between atoms: C_4  and  S_11
REMARK    2  A    between atoms: C_6  and  C_7
REMARK    3  A    between atoms: S_11  and  N_14
REMARK    4  A    between atoms: N_14  and  C_15
REMARK    5  A    between atoms: N_14  and  C_32
REMARK    6  A    between atoms: C_15  and  C_16
REMARK    7  A    between atoms: C_32  and  C_33
REMARK                            x       y       z     vdW  Elec       q    Type
REMARK                         _______ _______ _______ _____ _____    ______ ____
ROOT
ATOM      1  N   UNL     1      -1.824   2.330  -1.458  0.00  0.00    -0.170 NA
ENDROOT
BRANCH   1   2
ATOM      2  S   UNL     1      -2.798   1.108  -2.007  0.00  0.00    +0.063 S 
ATOM      3  O   UNL     1      -2.593   1.025  -3.411  0.00  0.00    -0.153 OA
ATOM      4  O   UNL     1      -2.588   0.001  -1.141  0.00  0.00    -0.153 OA
BRANCH   2   8
ATOM      5  C   UNL     1      -7.084   2.434  -1.399  0.00  0.00    +0.014 A 
ATOM      6  C   UNL     1      -6.805   1.347  -2.207  0.00  0.00    +0.022 A 
ATOM      7  C   UNL     1      -5.496   0.942  -2.394  0.00  0.00    +0.067 A 
ATOM      8  C   UNL     1      -4.466   1.624  -1.771  0.00  0.00    +0.124 A 
ATOM      9  C   UNL     1      -4.746   2.706  -0.959  0.00  0.00    +0.042 A 
ATOM     10  C   UNL     1      -6.054   3.115  -0.777  0.00  0.00    +0.057 A 
ATOM     11 CL   UNL     1      -5.146  -0.422  -3.409  0.00  0.00    -0.082 Cl
BRANCH  10  12
ATOM     12  C   UNL     1      -6.358   4.299   0.103  0.00  0.00    +0.417 C 
ATOM     13  F   UNL     1      -7.740   4.514   0.136  0.00  0.00    -0.166 F 
ATOM     14  F   UNL     1      -5.895   4.048   1.399  0.00  0.00    -0.166 F 
ATOM     15  F   UNL     1      -5.722   5.436  -0.408  0.00  0.00    -0.166 F 
ENDBRANCH  10  12
ENDBRANCH   2   8
ENDBRANCH   1   2
BRANCH   1  16
ATOM     16  C   UNL     1      -1.348   2.321  -0.073  0.00  0.00    +0.150 C 
BRANCH  16  17
ATOM     17  C   UNL     1       0.129   2.022  -0.051  0.00  0.00    +0.033 A 
ATOM     18  C   UNL     1       1.024   3.041  -0.018  0.00  0.00    +0.020 A 
ATOM     19  C   UNL     1       2.451   2.718  -0.003  0.00  0.00    +0.003 A 
ATOM     20  C   UNL     1       3.420   3.728   0.030  0.00  0.00    +0.059 A 
ATOM     21  C   UNL     1       4.758   3.393   0.043  0.00  0.00    +0.163 A 
ATOM     22  C   UNL     1       5.147   2.051   0.023  0.00  0.00    +0.164 A 
ATOM     23  C   UNL     1       4.196   1.046  -0.010  0.00  0.00    +0.075 A 
ATOM     24  C   UNL     1       2.845   1.366  -0.025  0.00  0.00    +0.053 A 
ATOM     25  N   UNL     1       1.883   0.377  -0.059  0.00  0.00    -0.322 N 
ATOM     26  H   UNL     1       2.163  -0.583  -0.075  0.00  0.00    +0.169 HD
ATOM     27  C   UNL     1       0.574   0.685  -0.072  0.00  0.00    +0.254 A 
ATOM     28  O   UNL     1      -0.247  -0.215  -0.102  0.00  0.00    -0.268 OA
ATOM     29  O   UNL     1       6.465   1.712   0.040  0.00  0.00    -0.485 OA
ATOM     30  C   UNL     1       7.399   2.741  -0.304  0.00  0.00    +0.270 C 
ATOM     31  C   UNL     1       7.015   4.014   0.461  0.00  0.00    +0.270 C 
ATOM     32  O   UNL     1       5.688   4.387   0.073  0.00  0.00    -0.485 OA
ENDBRANCH  16  17
ENDBRANCH   1  16
BRANCH   1  33
ATOM     33  C   UNL     1      -1.440   3.420  -2.358  0.00  0.00    +0.141 C 
BRANCH  33  34
ATOM     34  C   UNL     1      -0.078   3.109  -2.983  0.00  0.00    +0.134 C 
ATOM     35  C   UNL     1       0.406   4.301  -3.838  0.00  0.00    +0.035 C 
ATOM     36  C   UNL     1       1.105   3.638  -5.045  0.00  0.00    +0.031 C 
ATOM     37  C   UNL     1       0.961   2.123  -4.777  0.00  0.00    +0.160 C 
ATOM     38  O   UNL     1      -0.190   2.010  -3.912  0.00  0.00    -0.375 OA
ENDBRANCH  33  34
ENDBRANCH   1  33
TORSDOF 7
