REMARK  Name = ZINC36309421
REMARK  15 active torsions:
REMARK  status: ('A' for Active; 'I' for Inactive)
REMARK    1  A    between atoms: C_1  and  C_2
REMARK    2  A    between atoms: C_2  and  C_3
REMARK    3  A    between atoms: C_3  and  C_4
REMARK    4  A    between atoms: C_4  and  C_6
REMARK    5  A    between atoms: C_4  and  O_34
REMARK    6  A    between atoms: C_6  and  N_7
REMARK    7  A    between atoms: N_7  and  C_8
REMARK    8  A    between atoms: N_7  and  C_11
REMARK    9  A    between atoms: C_8  and  C_9
REMARK   10  A    between atoms: C_11  and  C_12
REMARK   11  A    between atoms: C_22  and  C_24
REMARK   12  A    between atoms: C_24  and  O_25
REMARK   13  A    between atoms: O_25  and  C_26
REMARK   14  A    between atoms: C_29  and  C_33
REMARK   15  A    between atoms: C_31  and  C_32
REMARK                            x       y       z     vdW  Elec       q    Type
REMARK                         _______ _______ _______ _____ _____    ______ ____
ROOT
ATOM      1  C   UNL     1       1.194  -6.259  -3.623  0.00  0.00    +0.200 C 
ATOM      2  O   UNL     1       0.704  -6.689  -2.600  0.00  0.00    -0.278 OA
ATOM      3  N   UNL     1       1.484  -7.099  -4.636  0.00  0.00    -0.292 N 
ATOM      4  C   UNL     1       2.084  -6.590  -5.878  0.00  0.00    +0.113 C 
ATOM      5  C   UNL     1       3.491  -7.191  -6.016  0.00  0.00    +0.061 C 
ATOM      6  C   UNL     1       3.431  -8.640  -5.657  0.00  0.00    -0.004 A 
ATOM      7  C   UNL     1       2.445  -9.294  -4.985  0.00  0.00    -0.014 A 
ATOM      8  C   UNL     1       2.634 -10.658  -4.768  0.00  0.00    +0.013 A 
ATOM      9  C   UNL     1       3.754 -11.266  -5.222  0.00  0.00    +0.046 A 
ATOM     10  S   UNL     1       4.620  -9.911  -5.999  0.00  0.00    -0.101 S 
ATOM     11  C   UNL     1       1.210  -8.537  -4.512  0.00  0.00    +0.144 C 
ENDROOT
BRANCH   1  12
ATOM     12  C   UNL     1       1.479  -4.786  -3.761  0.00  0.00    +0.019 C 
BRANCH  12  13
ATOM     13  N   UNL     1       1.077  -4.092  -2.530  0.00  0.00    +0.389 N 
ATOM     14  H   UNL     1       0.110  -4.297  -2.329  0.00  0.00    -0.081 HD
BRANCH  13  15
ATOM     15  C   UNL     1       1.243  -2.643  -2.708  0.00  0.00    -0.046 C 
BRANCH  15  16
ATOM     16  C   UNL     1       0.261  -2.144  -3.770  0.00  0.00    +0.098 C 
BRANCH  16  17
ATOM     17  O   UNL     1      -1.077  -2.417  -3.347  0.00  0.00    -0.394 OA
ATOM     18  H   UNL     1      -1.344  -1.935  -2.553  0.00  0.00    +0.210 HD
ENDBRANCH  16  17
BRANCH  16  19
ATOM     19  C   UNL     1       0.437  -0.636  -3.960  0.00  0.00    +0.029 C 
BRANCH  19  21
ATOM     20  C   UNL     1      -0.279   1.350  -5.296  0.00  0.00    +0.004 C 
ATOM     21  C   UNL     1      -0.456  -0.158  -5.106  0.00  0.00    -0.001 C 
ENDBRANCH  19  21
ENDBRANCH  16  19
ENDBRANCH  15  16
ENDBRANCH  13  15
BRANCH  13  22
ATOM     22  C   UNL     1       1.917  -4.547  -1.414  0.00  0.00    -0.051 C 
BRANCH  22  23
ATOM     23  C   UNL     1       1.411  -3.947  -0.128  0.00  0.00    -0.053 C 
ATOM     24  C   UNL     1       1.089  -4.726   0.875  0.00  0.00    +0.002 C 
ENDBRANCH  22  23
ENDBRANCH  13  22
ENDBRANCH  12  13
ENDBRANCH   1  12
BRANCH  11  25
ATOM     25  C   UNL     1       0.011  -8.914  -5.385  0.00  0.00    +0.256 C 
BRANCH  25  26
ATOM     26  O   UNL     1       0.342  -8.712  -6.761  0.00  0.00    -0.490 OA
BRANCH  26  27
ATOM     27  C   UNL     1      -0.621  -9.001  -7.675  0.00  0.00    +0.124 A 
ATOM     28  C   UNL     1      -1.861  -9.464  -7.257  0.00  0.00    +0.046 A 
ATOM     29  C   UNL     1      -2.838  -9.757  -8.188  0.00  0.00    +0.007 A 
ATOM     30  C   UNL     1      -2.582  -9.589  -9.537  0.00  0.00    -0.050 A 
ATOM     31  C   UNL     1      -1.347  -9.129  -9.956  0.00  0.00    +0.010 A 
ATOM     32  C   UNL     1      -0.369  -8.829  -9.028  0.00  0.00    -0.009 A 
ATOM     33  C   UNL     1       0.975  -8.321  -9.486  0.00  0.00    +0.047 C 
ATOM     34  C   UNL     1      -3.650  -9.909 -10.551  0.00  0.00    +0.044 C 
ENDBRANCH  26  27
ENDBRANCH  25  26
ENDBRANCH  11  25
TORSDOF 12
