REMARK  Name = ZINC24892798
REMARK  11 active torsions:
REMARK  status: ('A' for Active; 'I' for Inactive)
REMARK    1  A    between atoms: C_1  and  C_2
REMARK    2  A    between atoms: C_15  and  C_17
REMARK    3  A    between atoms: C_17  and  N_18
REMARK    4  A    between atoms: N_18  and  C_19
REMARK    5  A    between atoms: N_18  and  C_28
REMARK    6  A    between atoms: C_19  and  C_20
REMARK    7  A    between atoms: C_23  and  O_26
REMARK    8  A    between atoms: O_26  and  C_27
REMARK    9  A    between atoms: C_28  and  C_30
REMARK   10  A    between atoms: C_28  and  C_31
REMARK   11  A    between atoms: C_31  and  C_32
REMARK                            x       y       z     vdW  Elec       q    Type
REMARK                         _______ _______ _______ _____ _____    ______ ____
ROOT
ATOM      1  N   UNL     1      -0.638   1.448  -1.085  0.00  0.00    +0.390 N 
ATOM      2  H   UNL     1      -1.549   0.874  -0.862  0.00  0.00    -0.080 HD
ENDROOT
BRANCH   1   3
ATOM      3  C   UNL     1      -0.911   2.861  -0.788  0.00  0.00    -0.066 C 
ATOM      4  C   UNL     1       0.043   3.745  -1.594  0.00  0.00    -0.013 C 
BRANCH   3   5
ATOM      5  C   UNL     1      -2.356   3.192  -1.167  0.00  0.00    +0.027 C 
BRANCH   5   6
ATOM      6  C   UNL     1      -3.298   2.439  -0.263  0.00  0.00    -0.012 A 
ATOM      7  C   UNL     1      -3.889   2.849   0.885  0.00  0.00    +0.011 A 
ATOM      8  C   UNL     1      -4.727   1.978   1.557  0.00  0.00    +0.008 A 
ATOM      9  C   UNL     1      -4.932   0.739   1.046  0.00  0.00    +0.045 A 
ATOM     10  S   UNL     1      -3.929   0.777  -0.430  0.00  0.00    -0.102 S 
ENDBRANCH   5   6
ENDBRANCH   3   5
ENDBRANCH   1   3
BRANCH   1  11
ATOM     11  C   UNL     1       0.442   0.930  -0.235  0.00  0.00    +0.020 C 
BRANCH  11  25
ATOM     12  C   UNL     1       0.222  -1.309   3.774  0.00  0.00    +0.029 C 
ATOM     13  C   UNL     1       0.308   0.198   3.522  0.00  0.00    +0.087 C 
ATOM     14  C   UNL     1       1.260   0.823   4.537  0.00  0.00    +0.118 C 
ATOM     15  C   UNL     1       1.662   2.201   4.083  0.00  0.00    +0.219 C 
ATOM     16  O   UNL     1       1.176   3.177   4.615  0.00  0.00    -0.275 OA
ATOM     17  N   UNL     1       2.561   2.358   3.087  0.00  0.00    -0.284 N 
ATOM     18  C   UNL     1       3.060   1.246   2.399  0.00  0.00    +0.055 A 
ATOM     19  C   UNL     1       4.419   1.099   2.177  0.00  0.00    +0.025 A 
ATOM     20  C   UNL     1       4.883   0.021   1.446  0.00  0.00    +0.002 A 
ATOM     21  C   UNL     1       3.996  -0.911   0.938  0.00  0.00    +0.002 A 
ATOM     22  C   UNL     1       2.639  -0.776   1.165  0.00  0.00    +0.025 A 
ATOM     23  C   UNL     1       2.166   0.296   1.903  0.00  0.00    +0.058 A 
ATOM     24  N   UNL     1       0.796   0.437   2.163  0.00  0.00    -0.268 N 
ATOM     25  C   UNL     1      -0.056   0.791   1.180  0.00  0.00    +0.204 C 
ATOM     26  O   UNL     1      -1.224   0.997   1.435  0.00  0.00    -0.277 OA
ATOM     27  H   UNL     1       2.907   3.366   2.812  0.00  0.00    +0.155 HD
ENDBRANCH  11  25
ENDBRANCH   1  11
BRANCH   1  28
ATOM     28  C   UNL     1      -0.324   1.261  -2.508  0.00  0.00    -0.042 C 
BRANCH  28  29
ATOM     29  C   UNL     1      -1.580   1.421  -3.325  0.00  0.00    -0.064 A 
ATOM     30  C   UNL     1      -2.539   0.424  -3.320  0.00  0.00    +0.005 A 
ATOM     31  C   UNL     1      -3.694   0.571  -4.064  0.00  0.00    +0.046 A 
ATOM     32  C   UNL     1      -3.886   1.715  -4.826  0.00  0.00    +0.120 A 
ATOM     33  C   UNL     1      -2.920   2.711  -4.834  0.00  0.00    +0.046 A 
ATOM     34  C   UNL     1      -1.769   2.561  -4.084  0.00  0.00    +0.005 A 
BRANCH  32  35
ATOM     35  O   UNL     1      -5.019   1.859  -5.562  0.00  0.00    -0.495 OA
ATOM     36  C   UNL     1      -5.970   0.794  -5.506  0.00  0.00    +0.277 C 
ENDBRANCH  32  35
ENDBRANCH  28  29
ENDBRANCH   1  28
TORSDOF 8
