REMARK  Name = ZINC37054429
REMARK  4 active torsions:
REMARK  status: ('A' for Active; 'I' for Inactive)
REMARK    1  A    between atoms: C_1  and  C_2
REMARK    2  A    between atoms: N_8  and  S_9
REMARK    3  A    between atoms: S_9  and  C_12
REMARK    4  A    between atoms: C_17  and  N_18
REMARK                            x       y       z     vdW  Elec       q    Type
REMARK                         _______ _______ _______ _____ _____    ______ ____
ROOT
ATOM      1  S   UNL     1       1.391   0.557   2.220  0.00  0.00    +0.063 S 
ATOM      2  O   UNL     1       0.319   1.224   2.873  0.00  0.00    -0.153 OA
ATOM      3  O   UNL     1       2.333  -0.241   2.924  0.00  0.00    -0.153 OA
ENDROOT
BRANCH   1  10
ATOM      4  C   UNL     1      -0.757   1.494   0.633  0.00  0.00    +0.026 C 
ATOM      5  C   UNL     1      -0.460   0.029   0.303  0.00  0.00    +0.077 C 
ATOM      6  C   UNL     1      -0.155  -0.108  -1.192  0.00  0.00    +0.020 C 
ATOM      7  C   UNL     1       0.277  -1.546  -1.490  0.00  0.00    +0.003 C 
ATOM      8  C   UNL     1       1.550  -1.871  -0.706  0.00  0.00    +0.017 C 
ATOM      9  C   UNL     1       1.265  -1.753   0.795  0.00  0.00    +0.110 C 
ATOM     10  N   UNL     1       0.709  -0.421   1.070  0.00  0.00    -0.174 NA
ENDBRANCH   1  10
BRANCH   1  11
ATOM     11  C   UNL     1       2.313   1.795   1.372  0.00  0.00    +0.126 A 
ATOM     12  C   UNL     1       1.945   3.122   1.473  0.00  0.00    +0.031 A 
ATOM     13  C   UNL     1       2.668   4.095   0.808  0.00  0.00    +0.017 A 
ATOM     14  C   UNL     1       3.763   3.743   0.039  0.00  0.00    +0.020 A 
ATOM     15  C   UNL     1       4.136   2.417  -0.067  0.00  0.00    +0.040 A 
ATOM     16  C   UNL     1       3.415   1.438   0.605  0.00  0.00    +0.052 A 
ATOM     17 BR   UNL     1       4.748   5.077  -0.870  0.00  0.00    -0.050 Br
BRANCH  16  18
ATOM     18  N   UNL     1       3.793   0.097   0.505  0.00  0.00    -0.356 N 
ATOM     19  H   UNL     1       3.340  -0.576   1.037  0.00  0.00    +0.142 HD
ATOM     20  H   UNL     1       4.509  -0.161  -0.097  0.00  0.00    +0.142 HD
ENDBRANCH  16  18
ENDBRANCH   1  11
TORSDOF 3
