REMARK  Name = ZINC35747080
REMARK  15 active torsions:
REMARK  status: ('A' for Active; 'I' for Inactive)
REMARK    1  A    between atoms: C_1  and  C_2
REMARK    2  A    between atoms: C_7  and  O_8
REMARK    3  A    between atoms: O_8  and  C_9
REMARK    4  A    between atoms: C_9  and  C_10
REMARK    5  A    between atoms: C_10  and  C_12
REMARK    6  A    between atoms: C_10  and  O_36
REMARK    7  A    between atoms: C_12  and  N_13
REMARK    8  A    between atoms: N_13  and  C_14
REMARK    9  A    between atoms: N_13  and  C_33
REMARK   10  A    between atoms: C_14  and  C_15
REMARK   11  A    between atoms: C_21  and  C_32
REMARK   12  A    between atoms: C_22  and  C_26
REMARK   13  A    between atoms: C_26  and  O_28
REMARK   14  A    between atoms: O_28  and  C_29
REMARK   15  A    between atoms: C_29  and  C_30
REMARK                            x       y       z     vdW  Elec       q    Type
REMARK                         _______ _______ _______ _____ _____    ______ ____
ROOT
ATOM      1  C   UNL     1       0.343  -0.961   8.323  0.00  0.00    -0.003 C 
ENDROOT
BRANCH   1   2
ATOM      2  C   UNL     1       0.299  -0.325   9.689  0.00  0.00    +0.094 A 
ATOM      3  N   UNL     1       0.475  -1.104  10.784  0.00  0.00    -0.312 N 
ATOM      4  H   UNL     1       0.625  -2.056  10.671  0.00  0.00    +0.170 HD
ATOM      5  C   UNL     1       0.445  -0.584  12.027  0.00  0.00    +0.260 A 
ATOM      6  O   UNL     1       0.605  -1.293  13.005  0.00  0.00    -0.267 OA
ATOM      7  C   UNL     1       0.214   0.871  12.173  0.00  0.00    +0.076 A 
ATOM      8  C   UNL     1       0.141   1.640  13.336  0.00  0.00    -0.015 A 
ATOM      9  C   UNL     1      -0.083   2.984  13.248  0.00  0.00    +0.102 A 
ATOM     10  S   UNL     1      -0.205   3.249  11.488  0.00  0.00    -0.062 S 
ATOM     11  C   UNL     1       0.045   1.574  10.958  0.00  0.00    +0.116 A 
ATOM     12  N   UNL     1       0.098   0.962   9.782  0.00  0.00    -0.229 NA
ATOM     13  C   UNL     1       0.307   0.988  14.684  0.00  0.00    +0.046 C 
BRANCH   9  14
ATOM     14  C   UNL     1      -0.194   3.964  14.331  0.00  0.00    +0.347 C 
ATOM     15  O   UNL     1      -0.084   3.608  15.488  0.00  0.00    -0.244 OA
BRANCH  14  16
ATOM     16  O   UNL     1      -0.418   5.263  14.043  0.00  0.00    -0.457 OA
BRANCH  16  17
ATOM     17  C   UNL     1      -0.516   6.164  15.148  0.00  0.00    +0.259 C 
BRANCH  17  18
ATOM     18  C   UNL     1      -0.766   7.560  14.638  0.00  0.00    +0.006 C 
ATOM     19  C   UNL     1      -1.677   8.311  15.205  0.00  0.00    +0.007 C 
ENDBRANCH  17  18
ENDBRANCH  16  17
ENDBRANCH  14  16
ENDBRANCH   9  14
ENDBRANCH   1   2
BRANCH   1  20
ATOM     20  N   UNL     1       0.136   0.069   7.296  0.00  0.00    +0.388 N 
ATOM     21  H   UNL     1      -0.725   0.561   7.483  0.00  0.00    -0.081 HD
BRANCH  20  22
ATOM     22  C   UNL     1       1.258   1.016   7.320  0.00  0.00    -0.068 C 
ATOM     23  C   UNL     1       0.950   2.467   7.696  0.00  0.00    -0.017 C 
ATOM     24  C   UNL     1       1.284   2.107   6.247  0.00  0.00    -0.017 C 
ENDBRANCH  20  22
BRANCH  20  25
ATOM     25  C   UNL     1       0.059  -0.567   5.974  0.00  0.00    -0.043 C 
BRANCH  25  26
ATOM     26  C   UNL     1       1.306  -1.425   5.748  0.00  0.00    +0.135 C 
BRANCH  26  27
ATOM     27  O   UNL     1       2.458  -0.583   5.686  0.00  0.00    -0.390 OA
ATOM     28  H   UNL     1       2.429   0.072   4.975  0.00  0.00    +0.210 HD
ENDBRANCH  26  27
BRANCH  26  29
ATOM     29  C   UNL     1       1.164  -2.193   4.432  0.00  0.00    +0.258 C 
BRANCH  29  30
ATOM     30  O   UNL     1       2.273  -3.081   4.277  0.00  0.00    -0.489 OA
BRANCH  30  37
ATOM     31  C   UNL     1       4.457  -4.843   3.951  0.00  0.00    +0.047 C 
ATOM     32  C   UNL     1       3.348  -4.727   2.938  0.00  0.00    -0.009 A 
ATOM     33  C   UNL     1       3.370  -5.505   1.796  0.00  0.00    +0.007 A 
ATOM     34  C   UNL     1       2.353  -5.399   0.866  0.00  0.00    +0.000 A 
ATOM     35  C   UNL     1       1.311  -4.515   1.075  0.00  0.00    +0.004 A 
ATOM     36  C   UNL     1       1.284  -3.735   2.214  0.00  0.00    +0.046 A 
ATOM     37  C   UNL     1       2.300  -3.843   3.152  0.00  0.00    +0.124 A 
ENDBRANCH  30  37
ENDBRANCH  29  30
ENDBRANCH  26  29
ENDBRANCH  25  26
ENDBRANCH  20  25
ENDBRANCH   1  20
TORSDOF 13
