REMARK  Name = ZINC12894860
REMARK  7 active torsions:
REMARK  status: ('A' for Active; 'I' for Inactive)
REMARK    1  A    between atoms: C_1  and  C_2
REMARK    2  A    between atoms: C_2  and  C_4
REMARK    3  A    between atoms: C_14  and  C_37
REMARK    4  A    between atoms: C_25  and  C_35
REMARK    5  A    between atoms: C_28  and  O_31
REMARK    6  A    between atoms: O_31  and  C_32
REMARK    7  A    between atoms: C_32  and  C_34
REMARK                            x       y       z     vdW  Elec       q    Type
REMARK                         _______ _______ _______ _____ _____    ______ ____
ROOT
ATOM      1  C   UNL     1      -1.103   0.640   2.323  0.00  0.00    +0.037 C 
ATOM      2  C   UNL     1       0.113   0.155   3.067  0.00  0.00    +0.015 C 
ATOM      3  C   UNL     1      -0.024   0.218   4.582  0.00  0.00    +0.001 C 
ATOM      4  C   UNL     1      -0.448   1.635   4.982  0.00  0.00    +0.000 C 
ATOM      5  C   UNL     1      -1.881   1.846   4.514  0.00  0.00    +0.004 C 
ATOM      6  C   UNL     1      -2.146   1.409   3.116  0.00  0.00    +0.003 C 
ATOM      7  C   UNL     1      -2.724   2.518   2.210  0.00  0.00    +0.009 C 
ATOM      8  C   UNL     1      -2.106   2.212   0.832  0.00  0.00    -0.000 C 
ATOM      9  C   UNL     1      -0.722   1.644   1.215  0.00  0.00    -0.016 C 
ATOM     10  C   UNL     1      -0.013   1.083   0.008  0.00  0.00    +0.008 C 
ATOM     11  C   UNL     1      -0.721   1.606  -1.262  0.00  0.00    +0.005 C 
ATOM     12  C   UNL     1      -0.907   3.108  -1.103  0.00  0.00    +0.001 C 
ATOM     13  C   UNL     1      -1.971   3.435  -0.080  0.00  0.00    -0.001 C 
ATOM     14  C   UNL     1      -3.354   3.699  -0.651  0.00  0.00    +0.038 C 
ATOM     15  C   UNL     1      -3.401   4.238  -2.067  0.00  0.00    +0.152 C 
ATOM     16  C   UNL     1      -2.176   4.276  -2.951  0.00  0.00    +0.105 C 
ATOM     17  C   UNL     1      -0.832   3.928  -2.342  0.00  0.00    +0.003 C 
ATOM     18  C   UNL     1       0.092   3.366  -3.414  0.00  0.00    +0.013 C 
ATOM     19  C   UNL     1       0.194   4.323  -4.600  0.00  0.00    +0.045 C 
ATOM     20  C   UNL     1      -1.175   4.638  -5.193  0.00  0.00    +0.179 C 
ATOM     21  C   UNL     1      -2.105   5.247  -4.140  0.00  0.00    +0.082 C 
ATOM     22  C   UNL     1      -0.208   5.253  -1.889  0.00  0.00    +0.014 C 
ATOM     23  O   UNL     1      -3.164   3.247  -3.086  0.00  0.00    -0.364 OA
ATOM     24  C   UNL     1       0.127   2.766   1.834  0.00  0.00    +0.012 C 
ENDROOT
BRANCH   1  26
ATOM     25  C   UNL     1      -2.270  -1.685   2.591  0.00  0.00    +0.086 C 
ATOM     26  C   UNL     1      -1.796  -0.557   1.711  0.00  0.00    +0.137 C 
ATOM     27  O   UNL     1      -1.970  -0.609   0.517  0.00  0.00    -0.297 OA
ENDBRANCH   1  26
BRANCH  20  28
ATOM     28  O   UNL     1      -1.768   3.420  -5.718  0.00  0.00    -0.461 OA
BRANCH  28  29
ATOM     29  C   UNL     1      -1.474   3.097  -6.987  0.00  0.00    +0.304 C 
ATOM     30  O   UNL     1      -0.746   3.808  -7.638  0.00  0.00    -0.251 OA
ATOM     31  C   UNL     1      -2.052   1.848  -7.600  0.00  0.00    +0.136 C 
ENDBRANCH  28  29
ENDBRANCH  20  28
TORSDOF 3
