REMARK  Name = ZINC39336766
REMARK  6 active torsions:
REMARK  status: ('A' for Active; 'I' for Inactive)
REMARK    1  A    between atoms: C_4  and  N_7
REMARK    2  A    between atoms: C_9  and  C_22
REMARK    3  A    between atoms: C_10  and  C_13
REMARK    4  A    between atoms: C_16  and  N_19
REMARK    5  A    between atoms: N_23  and  N_24
REMARK    6  A    between atoms: C_25  and  C_31
REMARK                            x       y       z     vdW  Elec       q    Type
REMARK                         _______ _______ _______ _____ _____    ______ ____
ROOT
ATOM      1  N   UNL     1       3.672  -0.666  -0.665  0.00  0.00    -0.242 N 
ATOM      2  C   UNL     1       4.883  -0.048  -0.495  0.00  0.00    +0.100 C 
ATOM      3  C   UNL     1       5.861  -0.941  -0.268  0.00  0.00    +0.010 C 
ATOM      4  C   UNL     1       5.207  -2.306  -0.294  0.00  0.00    +0.136 C 
ATOM      5  N   UNL     1       3.782  -2.021  -0.553  0.00  0.00    -0.224 NA
ATOM      6  H   UNL     1       3.200  -2.371   0.193  0.00  0.00    +0.146 HD
ENDROOT
BRANCH   1  10
ATOM      7  C   UNL     1       0.101   1.340  -1.415  0.00  0.00    +0.000 A 
ATOM      8  C   UNL     1       1.275   2.055  -1.263  0.00  0.00    +0.002 A 
ATOM      9  C   UNL     1       2.461   1.393  -1.014  0.00  0.00    +0.025 A 
ATOM     10  C   UNL     1       2.474   0.007  -0.916  0.00  0.00    +0.049 A 
ATOM     11  C   UNL     1       1.292  -0.708  -1.069  0.00  0.00    +0.025 A 
ATOM     12  C   UNL     1       0.110  -0.040  -1.318  0.00  0.00    +0.002 A 
ENDBRANCH   1  10
BRANCH   4  13
ATOM     13  C   UNL     1       5.372  -2.995   1.037  0.00  0.00    -0.024 A 
ATOM     14  C   UNL     1       4.535  -2.672   2.090  0.00  0.00    +0.008 A 
ATOM     15  C   UNL     1       4.686  -3.304   3.310  0.00  0.00    +0.033 A 
ATOM     16  C   UNL     1       5.672  -4.258   3.478  0.00  0.00    +0.126 A 
ATOM     17  C   UNL     1       6.508  -4.581   2.425  0.00  0.00    +0.033 A 
ATOM     18  C   UNL     1       6.354  -3.952   1.203  0.00  0.00    +0.008 A 
BRANCH  16  19
ATOM     19  N   UNL     1       5.834  -4.933   4.785  0.00  0.00    +0.056 N 
ATOM     20  O   UNL     1       5.104  -4.650   5.706  0.00  0.00    -0.126 OA
ATOM     21  O   UNL     1       6.697  -5.767   4.931  0.00  0.00    -0.126 OA
ENDBRANCH  16  19
ENDBRANCH   4  13
BRANCH   3  22
ATOM     22  C   UNL     1       7.234  -0.660  -0.048  0.00  0.00    +0.137 C 
ATOM     23  N   UNL     1       7.655   0.573  -0.054  0.00  0.00    -0.184 NA
BRANCH  23  24
ATOM     24  N   UNL     1       9.026   0.845   0.044  0.00  0.00    -0.172 N 
ATOM     25  C   UNL     1      10.141  -0.120   0.036  0.00  0.00    +0.270 C 
ATOM     26  N   UNL     1      11.339   0.724   0.166  0.00  0.00    -0.189 NA
ATOM     27  N   UNL     1      10.973   1.900   0.231  0.00  0.00    -0.219 N 
ATOM     28  C   UNL     1       9.624   2.051   0.160  0.00  0.00    +0.174 C 
ATOM     29  S   UNL     1       8.802   3.552   0.213  0.00  0.00    -0.015 S 
ATOM     30  H   UNL     1      11.589   2.645   0.321  0.00  0.00    +0.176 HD
BRANCH  25  31
ATOM     31  C   UNL     1      10.168  -0.887  -1.261  0.00  0.00    +0.035 A 
ATOM     32  C   UNL     1      11.228  -1.425  -1.913  0.00  0.00    +0.015 A 
ATOM     33  C   UNL     1      11.014  -2.094  -3.103  0.00  0.00    +0.008 A 
ATOM     34  C   UNL     1       9.750  -2.194  -3.582  0.00  0.00    +0.045 A 
ATOM     35  S   UNL     1       8.811  -1.331  -2.333  0.00  0.00    -0.098 S 
ENDBRANCH  25  31
ENDBRANCH  23  24
ENDBRANCH   3  22
TORSDOF 6
