REMARK  Name = ZINC36639491
REMARK  8 active torsions:
REMARK  status: ('A' for Active; 'I' for Inactive)
REMARK    1  A    between atoms: C_1  and  C_2
REMARK    2  A    between atoms: C_3  and  C_19
REMARK    3  A    between atoms: C_8  and  C_10
REMARK    4  A    between atoms: C_10  and  O_11
REMARK    5  A    between atoms: O_11  and  C_12
REMARK    6  A    between atoms: C_19  and  C_20
REMARK    7  A    between atoms: C_23  and  S_26
REMARK    8  A    between atoms: S_26  and  N_29
REMARK                            x       y       z     vdW  Elec       q    Type
REMARK                         _______ _______ _______ _____ _____    ______ ____
ROOT
ATOM      1  C   UNL     1      -0.018   1.503   0.010  0.00  0.00    +0.066 C 
ATOM      2  C   UNL     1       0.002  -0.004   0.002  0.00  0.00    +0.051 A 
ATOM      3  C   UNL     1       0.006  -0.706  -1.158  0.00  0.00    +0.018 A 
ATOM      4  S   UNL     1       0.032  -2.379  -0.535  0.00  0.00    -0.056 S 
ATOM      5  C   UNL     1       0.036  -2.015   1.108  0.00  0.00    +0.165 A 
ATOM      6  N   UNL     1       0.023  -0.700   1.124  0.00  0.00    -0.230 NA
ATOM      7  N   UNL     1       0.053  -2.891   2.187  0.00  0.00    -0.262 N 
ATOM      8  C   UNL     1       0.053  -2.410   3.446  0.00  0.00    +0.256 C 
ATOM      9  O   UNL     1       0.038  -1.213   3.638  0.00  0.00    -0.272 OA
ATOM     10  H   UNL     1       0.065  -3.849   2.034  0.00  0.00    +0.157 HD
ENDROOT
BRANCH   8  11
ATOM     11  C   UNL     1       0.072  -3.361   4.616  0.00  0.00    +0.324 C 
BRANCH  11  12
ATOM     12  O   UNL     1       0.068  -2.615   5.835  0.00  0.00    -0.483 OA
BRANCH  12  13
ATOM     13  C   UNL     1       0.083  -3.327   6.993  0.00  0.00    +0.121 A 
ATOM     14  C   UNL     1       0.108  -4.713   6.956  0.00  0.00    +0.047 A 
ATOM     15  C   UNL     1       0.123  -5.435   8.134  0.00  0.00    +0.023 A 
ATOM     16  C   UNL     1       0.115  -4.775   9.351  0.00  0.00    +0.041 A 
ATOM     17  C   UNL     1       0.090  -3.392   9.389  0.00  0.00    +0.023 A 
ATOM     18  C   UNL     1       0.081  -2.667   8.213  0.00  0.00    +0.047 A 
ATOM     19 CL   UNL     1       0.134  -5.684  10.829  0.00  0.00    -0.084 Cl
ENDBRANCH  12  13
ENDBRANCH  11  12
ENDBRANCH   8  11
BRANCH   3  20
ATOM     20  C   UNL     1      -0.009  -0.210  -2.581  0.00  0.00    +0.079 C 
BRANCH  20  21
ATOM     21  C   UNL     1       1.407  -0.025  -3.063  0.00  0.00    -0.042 A 
ATOM     22  C   UNL     1       2.044   1.189  -2.885  0.00  0.00    +0.006 A 
ATOM     23  C   UNL     1       3.343   1.359  -3.327  0.00  0.00    +0.029 A 
ATOM     24  C   UNL     1       4.005   0.315  -3.947  0.00  0.00    +0.105 A 
ATOM     25  C   UNL     1       3.368  -0.899  -4.124  0.00  0.00    +0.029 A 
ATOM     26  C   UNL     1       2.070  -1.070  -3.678  0.00  0.00    +0.006 A 
BRANCH  24  27
ATOM     27  S   UNL     1       5.659   0.532  -4.511  0.00  0.00    +0.056 S 
ATOM     28  O   UNL     1       5.865  -0.422  -5.544  0.00  0.00    -0.153 OA
ATOM     29  O   UNL     1       5.839   1.927  -4.716  0.00  0.00    -0.153 OA
BRANCH  27  30
ATOM     30  N   UNL     1       6.662   0.104  -3.265  0.00  0.00    -0.204 NA
ATOM     31  H   UNL     1       7.539  -0.266  -3.453  0.00  0.00    +0.144 HD
ATOM     32  H   UNL     1       6.372   0.222  -2.347  0.00  0.00    +0.144 HD
ENDBRANCH  27  30
ENDBRANCH  24  27
ENDBRANCH  20  21
ENDBRANCH   3  20
TORSDOF 7
