REMARK  Name = ZINC29007850
REMARK  11 active torsions:
REMARK  status: ('A' for Active; 'I' for Inactive)
REMARK    1  A    between atoms: C_1  and  C_2
REMARK    2  A    between atoms: C_2  and  C_3
REMARK    3  A    between atoms: C_3  and  N_13
REMARK    4  A    between atoms: N_13  and  C_14
REMARK    5  A    between atoms: C_14  and  C_15
REMARK    6  A    between atoms: C_15  and  C_17
REMARK    7  A    between atoms: C_15  and  N_25
REMARK    8  A    between atoms: C_22  and  O_23
REMARK    9  A    between atoms: O_23  and  C_24
REMARK   10  A    between atoms: N_25  and  C_26
REMARK   11  A    between atoms: N_25  and  C_27
REMARK                            x       y       z     vdW  Elec       q    Type
REMARK                         _______ _______ _______ _____ _____    ______ ____
ROOT
ATOM      1  N   UNL     1       2.357   7.511  -0.590  0.00  0.00    -0.348 N 
ATOM      2  H   UNL     1       3.426   7.256  -0.549  0.00  0.00    +0.146 HD
ENDROOT
BRANCH   1   3
ATOM      3  C   UNL     1       1.538   6.850  -1.434  0.00  0.00    +0.021 C 
ATOM      4  C   UNL     1       2.030   5.811  -2.202  0.00  0.00    +0.116 C 
ATOM      5  C   UNL     1       3.425   5.352  -2.073  0.00  0.00    +0.256 C 
ATOM      6  O   UNL     1       4.185   5.878  -1.282  0.00  0.00    -0.270 OA
ATOM      7  N   UNL     1       3.835   4.332  -2.855  0.00  0.00    -0.263 N 
ATOM      8  C   UNL     1       3.008   3.744  -3.730  0.00  0.00    +0.143 C 
ATOM      9  S   UNL     1       3.616   2.456  -4.680  0.00  0.00    -0.018 S 
ATOM     10  N   UNL     1       1.731   4.112  -3.904  0.00  0.00    -0.263 N 
ATOM     11  C   UNL     1       1.182   5.114  -3.186  0.00  0.00    +0.256 C 
ATOM     12  O   UNL     1       0.021   5.436  -3.350  0.00  0.00    -0.270 OA
ATOM     13  H   UNL     1       4.870   3.966  -2.783  0.00  0.00    +0.157 HD
ATOM     14  H   UNL     1       1.105   3.595  -4.646  0.00  0.00    +0.157 HD
BRANCH   3  16
ATOM     15  C   UNL     1      -0.093   8.216  -2.708  0.00  0.00    +0.010 C 
ATOM     16  C   UNL     1       0.088   7.244  -1.540  0.00  0.00    +0.048 C 
ENDBRANCH   3  16
ENDBRANCH   1   3
BRANCH   1  17
ATOM     17  C   UNL     1       1.822   8.567   0.273  0.00  0.00    +0.090 C 
BRANCH  17  18
ATOM     18  C   UNL     1       2.893   8.997   1.276  0.00  0.00    -0.018 C 
BRANCH  18  19
ATOM     19  C   UNL     1       2.415  10.210   2.032  0.00  0.00    -0.018 A 
ATOM     20  C   UNL     1       1.992  10.087   3.342  0.00  0.00    +0.005 A 
ATOM     21  C   UNL     1       1.558  11.200   4.037  0.00  0.00    +0.000 A 
ATOM     22  C   UNL     1       1.537  12.438   3.420  0.00  0.00    +0.004 A 
ATOM     23  C   UNL     1       1.954  12.566   2.110  0.00  0.00    +0.046 A 
ATOM     24  C   UNL     1       2.394  11.451   1.412  0.00  0.00    +0.122 A 
BRANCH  24  25
ATOM     25  O   UNL     1       2.806  11.574   0.122  0.00  0.00    -0.495 OA
ATOM     26  C   UNL     1       2.757  12.881  -0.453  0.00  0.00    +0.277 C 
ENDBRANCH  24  25
ENDBRANCH  18  19
BRANCH  18  27
ATOM     27  N   UNL     1       3.148   7.901   2.221  0.00  0.00    +0.382 N 
ATOM     28  C   UNL     1       1.897   7.229   2.597  0.00  0.00    -0.096 C 
ATOM     29  C   UNL     1       4.114   6.943   1.667  0.00  0.00    -0.096 C 
ATOM     30  H   UNL     1       3.586   8.334   3.132  0.00  0.00    -0.082 HD
ENDBRANCH  18  27
ENDBRANCH  17  18
ENDBRANCH   1  17
TORSDOF 7
