REMARK  Name = ZINC66906349
REMARK  8 active torsions:
REMARK  status: ('A' for Active; 'I' for Inactive)
REMARK    1  A    between atoms: C_1  and  O_2
REMARK    2  A    between atoms: O_2  and  C_3
REMARK    3  A    between atoms: C_6  and  C_10
REMARK    4  A    between atoms: C_7  and  O_9
REMARK    5  A    between atoms: C_10  and  N_11
REMARK    6  A    between atoms: N_11  and  C_12
REMARK    7  A    between atoms: C_12  and  C_13
REMARK    8  A    between atoms: C_13  and  O_23
REMARK                            x       y       z     vdW  Elec       q    Type
REMARK                         _______ _______ _______ _____ _____    ______ ____
ROOT
ATOM      1  N   UNL     1       1.494  -2.759  -5.464  0.00  0.00    +0.384 N 
ATOM      2  H   UNL     1       0.911  -3.343  -4.885  0.00  0.00    -0.085 HD
ATOM      3  H   UNL     1       0.927  -2.050  -5.905  0.00  0.00    -0.085 HD
ENDROOT
BRANCH   1   4
ATOM      4  C   UNL     1       2.523  -2.117  -4.635  0.00  0.00    -0.043 C 
BRANCH   4   8
ATOM      5  C   UNL     1       0.643   0.277  -1.631  0.00  0.00    +0.124 A 
ATOM      6  C   UNL     1       1.149   0.869  -2.779  0.00  0.00    +0.046 A 
ATOM      7  C   UNL     1       1.756   0.093  -3.748  0.00  0.00    +0.009 A 
ATOM      8  C   UNL     1       1.861  -1.274  -3.576  0.00  0.00    -0.023 A 
ATOM      9  C   UNL     1       1.357  -1.871  -2.429  0.00  0.00    +0.122 A 
ATOM     10  C   UNL     1       0.753  -1.094  -1.453  0.00  0.00    +0.091 A 
BRANCH   5  12
ATOM     11  C   UNL     1      -0.032   2.445  -0.928  0.00  0.00    +0.277 C 
ATOM     12  O   UNL     1       0.046   1.040  -0.678  0.00  0.00    -0.495 OA
ENDBRANCH   5  12
BRANCH   9  13
ATOM     13  O   UNL     1       1.460  -3.215  -2.261  0.00  0.00    -0.506 OA
ATOM     14  H   UNL     1       2.270  -3.494  -1.812  0.00  0.00    +0.292 HD
ENDBRANCH   9  13
ENDBRANCH   4   8
ENDBRANCH   1   4
BRANCH   1  15
ATOM     15  C   UNL     1       2.139  -3.581  -6.497  0.00  0.00    -0.042 C 
BRANCH  15  16
ATOM     16  C   UNL     1       1.073  -4.147  -7.437  0.00  0.00    +0.076 C 
ATOM     17  C   UNL     1       0.063  -4.954  -6.625  0.00  0.00    +0.038 C 
ATOM     18  C   UNL     1      -0.865  -5.689  -7.601  0.00  0.00    +0.008 C 
ATOM     19  C   UNL     1      -0.061  -6.787  -8.295  0.00  0.00    +0.035 C 
ATOM     20  C   UNL     1       1.214  -6.227  -8.870  0.00  0.00    -0.042 A 
ATOM     21  C   UNL     1       1.737  -5.017  -8.473  0.00  0.00    -0.015 A 
ATOM     22  C   UNL     1       2.920  -4.561  -9.039  0.00  0.00    +0.006 A 
ATOM     23  C   UNL     1       3.574  -5.309  -9.996  0.00  0.00    +0.000 A 
ATOM     24  C   UNL     1       3.047  -6.522 -10.397  0.00  0.00    +0.000 A 
ATOM     25  C   UNL     1       1.872  -6.978  -9.835  0.00  0.00    +0.004 A 
BRANCH  16  26
ATOM     26  O   UNL     1       0.399  -3.069  -8.089  0.00  0.00    -0.386 OA
ATOM     27  H   UNL     1       0.980  -2.505  -8.619  0.00  0.00    +0.211 HD
ENDBRANCH  16  26
ENDBRANCH  15  16
ENDBRANCH   1  15
TORSDOF 7
