REMARK  Name = ZINC12832896
REMARK  13 active torsions:
REMARK  status: ('A' for Active; 'I' for Inactive)
REMARK    1  A    between atoms: C_1  and  C_2
REMARK    2  A    between atoms: C_12  and  C_14
REMARK    3  A    between atoms: C_14  and  N_68
REMARK    4  A    between atoms: C_15  and  C_16
REMARK    5  A    between atoms: C_15  and  N_68
REMARK    6  A    between atoms: C_19  and  O_22
REMARK    7  A    between atoms: O_22  and  C_23
REMARK    8  A    between atoms: C_24  and  C_25
REMARK    9  A    between atoms: C_24  and  N_68
REMARK   10  A    between atoms: N_29  and  C_30
REMARK   11  A    between atoms: C_30  and  C_31
REMARK   12  A    between atoms: C_34  and  O_37
REMARK   13  A    between atoms: O_37  and  C_38
REMARK                            x       y       z     vdW  Elec       q    Type
REMARK                         _______ _______ _______ _____ _____    ______ ____
ROOT
ATOM      1  N   UNL     1       1.316  -2.074  -1.227  0.00  0.00    +0.390 N 
ATOM      2  H   UNL     1       0.626  -1.823  -1.945  0.00  0.00    -0.080 HD
ENDROOT
BRANCH   1   3
ATOM      3  C   UNL     1       1.098  -3.478  -0.821  0.00  0.00    -0.036 C 
BRANCH   3  15
ATOM      4  C   UNL     1      -5.178  -4.031   1.054  0.00  0.00    +0.046 C 
ATOM      5  C   UNL     1      -4.497  -4.353  -0.251  0.00  0.00    -0.026 A 
ATOM      6  C   UNL     1      -5.227  -4.858  -1.306  0.00  0.00    +0.005 A 
ATOM      7  C   UNL     1      -4.612  -5.158  -2.514  0.00  0.00    +0.001 A 
ATOM      8  C   UNL     1      -3.271  -4.958  -2.679  0.00  0.00    +0.010 A 
ATOM      9  C   UNL     1      -2.510  -4.447  -1.623  0.00  0.00    -0.001 A 
ATOM     10  C   UNL     1      -3.130  -4.141  -0.397  0.00  0.00    +0.052 A 
ATOM     11  N   UNL     1      -2.376  -3.638   0.642  0.00  0.00    -0.322 N 
ATOM     12  H   UNL     1      -2.805  -3.428   1.486  0.00  0.00    +0.169 HD
ATOM     13  C   UNL     1      -1.055  -3.433   0.501  0.00  0.00    +0.251 A 
ATOM     14  O   UNL     1      -0.419  -2.986   1.440  0.00  0.00    -0.268 OA
ATOM     15  C   UNL     1      -0.385  -3.723  -0.708  0.00  0.00    +0.001 A 
ATOM     16  C   UNL     1      -1.072  -4.216  -1.768  0.00  0.00    +0.017 A 
ENDBRANCH   3  15
ENDBRANCH   1   3
BRANCH   1  17
ATOM     17  C   UNL     1       2.674  -1.916  -1.789  0.00  0.00    -0.042 C 
BRANCH  17  18
ATOM     18  C   UNL     1       2.709  -2.552  -3.155  0.00  0.00    -0.064 A 
ATOM     19  C   UNL     1       3.184  -3.842  -3.303  0.00  0.00    +0.005 A 
ATOM     20  C   UNL     1       3.213  -4.429  -4.553  0.00  0.00    +0.046 A 
ATOM     21  C   UNL     1       2.775  -3.719  -5.662  0.00  0.00    +0.120 A 
ATOM     22  C   UNL     1       2.304  -2.423  -5.511  0.00  0.00    +0.046 A 
ATOM     23  C   UNL     1       2.272  -1.842  -4.258  0.00  0.00    +0.005 A 
BRANCH  21  24
ATOM     24  O   UNL     1       2.807  -4.293  -6.894  0.00  0.00    -0.495 OA
ATOM     25  C   UNL     1       3.198  -5.666  -6.960  0.00  0.00    +0.277 C 
ENDBRANCH  21  24
ENDBRANCH  17  18
ENDBRANCH   1  17
BRANCH   1  26
ATOM     26  C   UNL     1       1.143  -1.179  -0.063  0.00  0.00    +0.001 C 
BRANCH  26  27
ATOM     27  C   UNL     1       1.218   0.251  -0.533  0.00  0.00    +0.135 A 
ATOM     28  N   UNL     1       2.304   0.966  -0.695  0.00  0.00    -0.115 NA
ATOM     29  N   UNL     1       1.954   2.135  -1.108  0.00  0.00    -0.023 NA
ATOM     30  N   UNL     1       0.672   2.184  -1.214  0.00  0.00    -0.044 NA
ATOM     31  N   UNL     1       0.182   1.042  -0.868  0.00  0.00    -0.227 N 
BRANCH  31  32
ATOM     32  C   UNL     1      -1.236   0.674  -0.845  0.00  0.00    +0.182 C 
BRANCH  32  33
ATOM     33  C   UNL     1      -1.671   0.260  -2.227  0.00  0.00    -0.026 A 
ATOM     34  C   UNL     1      -2.067   1.217  -3.142  0.00  0.00    +0.009 A 
ATOM     35  C   UNL     1      -2.460   0.840  -4.412  0.00  0.00    +0.046 A 
ATOM     36  C   UNL     1      -2.468  -0.502  -4.764  0.00  0.00    +0.120 A 
ATOM     37  C   UNL     1      -2.076  -1.461  -3.842  0.00  0.00    +0.046 A 
ATOM     38  C   UNL     1      -1.678  -1.078  -2.575  0.00  0.00    +0.009 A 
BRANCH  36  39
ATOM     39  O   UNL     1      -2.859  -0.876  -6.011  0.00  0.00    -0.495 OA
ATOM     40  C   UNL     1      -3.250   0.166  -6.908  0.00  0.00    +0.277 C 
ENDBRANCH  36  39
ENDBRANCH  32  33
ENDBRANCH  31  32
ENDBRANCH  26  27
ENDBRANCH   1  26
TORSDOF 10
