REMARK  Name = ZINC38806066
REMARK  18 active torsions:
REMARK  status: ('A' for Active; 'I' for Inactive)
REMARK    1  A    between atoms: C_1  and  C_2
REMARK    2  A    between atoms: C_2  and  O_3
REMARK    3  A    between atoms: O_3  and  C_4
REMARK    4  A    between atoms: C_6  and  C_16
REMARK    5  A    between atoms: C_8  and  O_13
REMARK    6  A    between atoms: C_9  and  O_10
REMARK    7  A    between atoms: O_10  and  C_11
REMARK    8  A    between atoms: C_11  and  C_12
REMARK    9  A    between atoms: O_13  and  C_14
REMARK   10  A    between atoms: C_14  and  C_15
REMARK   11  A    between atoms: N_18  and  C_19
REMARK   12  A    between atoms: C_20  and  C_32
REMARK   13  A    between atoms: C_24  and  C_30
REMARK   14  A    between atoms: C_24  and  C_31
REMARK   15  A    between atoms: C_26  and  C_28
REMARK   16  A    between atoms: C_26  and  C_29
REMARK   17  A    between atoms: C_32  and  O_34
REMARK   18  A    between atoms: O_34  and  C_35
REMARK                            x       y       z     vdW  Elec       q    Type
REMARK                         _______ _______ _______ _____ _____    ______ ____
ROOT
ATOM      1  C   UNL     1       0.625  -4.948  -0.019  0.00  0.00    +0.249 C 
ATOM      2  O   UNL     1       1.743  -4.470  -0.023  0.00  0.00    -0.270 OA
ATOM      3  N   UNL     1       0.465  -6.286  -0.025  0.00  0.00    -0.275 N 
ATOM      4  H   UNL     1      -0.427  -6.668  -0.022  0.00  0.00    +0.156 HD
ENDROOT
BRANCH   3   5
ATOM      5  C   UNL     1       1.537  -7.089  -0.034  0.00  0.00    +0.086 A 
ATOM      6  C   UNL     1       1.534  -8.568  -0.223  0.00  0.00    +0.091 A 
ATOM      7  C   UNL     1       2.785  -9.174  -0.262  0.00  0.00    -0.024 A 
ATOM      8  C   UNL     1       3.861  -8.305  -0.159  0.00  0.00    -0.016 A 
ATOM      9  S   UNL     1       3.193  -6.756  -0.042  0.00  0.00    -0.079 S 
ATOM     10  C   UNL     1       5.290  -8.700  -0.116  0.00  0.00    -0.041 C 
ATOM     11  N   UNL     1       5.498 -10.182  -0.448  0.00  0.00    +0.389 N 
ATOM     12  C   UNL     1       4.372 -10.814  -1.163  0.00  0.00    -0.069 C 
ATOM     13  C   UNL     1       3.080 -10.601  -0.390  0.00  0.00    +0.024 C 
ATOM     14  C   UNL     1       4.184 -10.289  -2.547  0.00  0.00    -0.010 C 
ATOM     15  C   UNL     1       4.727 -12.375  -1.271  0.00  0.00    -0.010 C 
ATOM     16  C   UNL     1       6.138  -7.844  -1.120  0.00  0.00    -0.005 C 
ATOM     17  C   UNL     1       5.874  -8.538   1.271  0.00  0.00    -0.005 C 
ATOM     18  H   UNL     1       6.328 -10.270  -1.059  0.00  0.00    -0.084 HD
ATOM     19  H   UNL     1       5.759 -10.624   0.366  0.00  0.00    -0.084 HD
BRANCH   6  20
ATOM     20  C   UNL     1       0.298  -9.243  -0.207  0.00  0.00    +0.342 C 
ATOM     21  O   UNL     1      -0.321  -9.402  -1.242  0.00  0.00    -0.245 OA
BRANCH  20  22
ATOM     22  O   UNL     1      -0.198  -9.714   0.955  0.00  0.00    -0.464 OA
ATOM     23  C   UNL     1      -1.457 -10.388   0.897  0.00  0.00    +0.280 C 
ENDBRANCH  20  22
ENDBRANCH   6  20
ENDBRANCH   3   5
BRANCH   1  26
ATOM     24  C   UNL     1      -1.498  -1.849   0.006  0.00  0.00    +0.166 A 
ATOM     25  C   UNL     1      -0.391  -2.676  -0.003  0.00  0.00    +0.062 A 
ATOM     26  C   UNL     1      -0.555  -4.063  -0.009  0.00  0.00    +0.044 A 
ATOM     27  C   UNL     1      -1.841  -4.612  -0.005  0.00  0.00    +0.062 A 
ATOM     28  C   UNL     1      -2.945  -3.780   0.004  0.00  0.00    +0.166 A 
ATOM     29  C   UNL     1      -2.778  -2.398   0.016  0.00  0.00    +0.204 A 
BRANCH  24  30
ATOM     30  O   UNL     1      -1.339  -0.499   0.012  0.00  0.00    -0.488 OA
BRANCH  30  32
ATOM     31  C   UNL     1      -0.019   1.526   0.010  0.00  0.00    +0.048 C 
ATOM     32  C   UNL     1       0.002  -0.004   0.002  0.00  0.00    +0.226 C 
ENDBRANCH  30  32
ENDBRANCH  24  30
BRANCH  29  33
ATOM     33  O   UNL     1      -3.865  -1.583   0.030  0.00  0.00    -0.485 OA
BRANCH  33  34
ATOM     34  C   UNL     1      -4.397  -1.188  -1.236  0.00  0.00    +0.226 C 
ATOM     35  C   UNL     1      -5.609  -0.279  -1.019  0.00  0.00    +0.048 C 
ENDBRANCH  33  34
ENDBRANCH  29  33
BRANCH  28  36
ATOM     36  O   UNL     1      -4.197  -4.314   0.007  0.00  0.00    -0.488 OA
BRANCH  36  37
ATOM     37  C   UNL     1      -4.294  -5.739   0.000  0.00  0.00    +0.226 C 
ATOM     38  C   UNL     1      -5.768  -6.149   0.005  0.00  0.00    +0.048 C 
ENDBRANCH  36  37
ENDBRANCH  28  36
ENDBRANCH   1  26
TORSDOF 10
