REMARK  Name = ZINC16554264
REMARK  9 active torsions:
REMARK  status: ('A' for Active; 'I' for Inactive)
REMARK    1  A    between atoms: C_1  and  C_2
REMARK    2  A    between atoms: C_4  and  C_26
REMARK    3  A    between atoms: C_5  and  N_9
REMARK    4  A    between atoms: C_6  and  C_8
REMARK    5  A    between atoms: C_10  and  C_12
REMARK    6  A    between atoms: C_12  and  N_13
REMARK    7  A    between atoms: C_14  and  C_16
REMARK    8  A    between atoms: C_16  and  S_17
REMARK    9  A    between atoms: S_17  and  C_18
REMARK                            x       y       z     vdW  Elec       q    Type
REMARK                         _______ _______ _______ _____ _____    ______ ____
ROOT
ATOM      1  C   UNL     1      -1.549   1.339  -3.796  0.00  0.00    +0.200 C 
ENDROOT
BRANCH   1   3
ATOM      2  N   UNL     1      -0.721   1.710  -6.097  0.00  0.00    -0.284 N 
ATOM      3  C   UNL     1      -0.880   0.863  -5.060  0.00  0.00    +0.234 C 
ATOM      4  O   UNL     1      -0.486  -0.281  -5.144  0.00  0.00    -0.274 OA
ATOM      5  H   UNL     1      -1.083   2.608  -6.050  0.00  0.00    +0.155 HD
BRANCH   2  10
ATOM      6  C   UNL     1       2.068   0.016 -10.738  0.00  0.00    +0.044 C 
ATOM      7  C   UNL     1       1.327   0.466  -9.505  0.00  0.00    -0.050 A 
ATOM      8  C   UNL     1       0.067   1.024  -9.623  0.00  0.00    +0.008 A 
ATOM      9  C   UNL     1      -0.614   1.438  -8.495  0.00  0.00    -0.029 A 
ATOM     10  C   UNL     1      -0.033   1.291  -7.242  0.00  0.00    +0.039 A 
ATOM     11  C   UNL     1       1.234   0.735  -7.128  0.00  0.00    -0.029 A 
ATOM     12  C   UNL     1       1.908   0.319  -8.259  0.00  0.00    +0.008 A 
ATOM     13  C   UNL     1       1.870   0.579  -5.771  0.00  0.00    +0.045 C 
ATOM     14  C   UNL     1      -1.987   2.046  -8.623  0.00  0.00    +0.045 C 
ENDBRANCH   2  10
ENDBRANCH   1   3
BRANCH   1  15
ATOM     15  N   UNL     1      -1.601   0.240  -2.828  0.00  0.00    -0.306 N 
ATOM     16  C   UNL     1      -2.159   0.434  -1.617  0.00  0.00    +0.224 C 
ATOM     17  O   UNL     1      -2.618   1.519  -1.328  0.00  0.00    -0.275 OA
ATOM     18  H   UNL     1      -1.233  -0.627  -3.059  0.00  0.00    +0.149 HD
BRANCH  16  19
ATOM     19  C   UNL     1      -2.212  -0.696  -0.621  0.00  0.00    +0.170 C 
BRANCH  19  20
ATOM     20  S   UNL     1      -3.017  -0.124   0.900  0.00  0.00    -0.114 S 
BRANCH  20  21
ATOM     21  C   UNL     1      -3.002  -1.540   1.949  0.00  0.00    +0.028 A 
ATOM     22  C   UNL     1      -2.449  -2.733   1.500  0.00  0.00    +0.036 A 
ATOM     23  C   UNL     1      -2.434  -3.840   2.326  0.00  0.00    +0.042 A 
ATOM     24  C   UNL     1      -2.979  -3.764   3.597  0.00  0.00    +0.021 A 
ATOM     25  C   UNL     1      -3.535  -2.580   4.045  0.00  0.00    +0.022 A 
ATOM     26  C   UNL     1      -3.548  -1.468   3.225  0.00  0.00    +0.054 A 
ATOM     27 CL   UNL     1      -4.246   0.019   3.789  0.00  0.00    -0.082 Cl
ATOM     28 CL   UNL     1      -1.738  -5.329   1.769  0.00  0.00    -0.084 Cl
ENDBRANCH  20  21
ENDBRANCH  19  20
ENDBRANCH  16  19
ENDBRANCH   1  15
TORSDOF 6
