REMARK  Name = ZINC08793677
REMARK  8 active torsions:
REMARK  status: ('A' for Active; 'I' for Inactive)
REMARK    1  A    between atoms: C_3  and  N_35
REMARK    2  A    between atoms: C_6  and  C_7
REMARK    3  A    between atoms: C_7  and  S_8
REMARK    4  A    between atoms: S_8  and  C_9
REMARK    5  A    between atoms: C_12  and  C_21
REMARK    6  A    between atoms: N_13  and  C_14
REMARK    7  A    between atoms: C_21  and  N_22
REMARK    8  A    between atoms: C_23  and  C_25
REMARK                            x       y       z     vdW  Elec       q    Type
REMARK                         _______ _______ _______ _____ _____    ______ ____
ROOT
ATOM      1  C   UNL     1      -5.219   3.421  -0.574  0.00  0.00    +0.196 A 
ATOM      2  N   UNL     1      -5.148   3.359   0.736  0.00  0.00    -0.122 NA
ATOM      3  N   UNL     1      -4.200   2.564   1.085  0.00  0.00    -0.132 NA
ATOM      4  C   UNL     1      -3.608   2.080   0.030  0.00  0.00    +0.156 A 
ATOM      5  N   UNL     1      -4.237   2.606  -1.067  0.00  0.00    -0.273 N 
ENDROOT
BRANCH   5   6
ATOM      6  C   UNL     1      -3.937   2.359  -2.415  0.00  0.00    +0.050 A 
ATOM      7  C   UNL     1      -2.720   2.768  -2.942  0.00  0.00    +0.029 A 
ATOM      8  C   UNL     1      -2.424   2.521  -4.268  0.00  0.00    +0.040 A 
ATOM      9  C   UNL     1      -3.345   1.874  -5.075  0.00  0.00    +0.124 A 
ATOM     10  C   UNL     1      -4.562   1.470  -4.552  0.00  0.00    +0.040 A 
ATOM     11  C   UNL     1      -4.859   1.712  -3.225  0.00  0.00    +0.029 A 
ATOM     12  F   UNL     1      -3.056   1.637  -6.373  0.00  0.00    -0.205 F 
ENDBRANCH   5   6
BRANCH   1  13
ATOM     13  S   UNL     1      -6.363   4.372  -1.518  0.00  0.00    -0.081 S 
BRANCH  13  14
ATOM     14  C   UNL     1      -7.303   5.150  -0.181  0.00  0.00    +0.112 C 
BRANCH  14  20
ATOM     15  C   UNL     1      -8.097   7.367  -1.031  0.00  0.00    +0.007 A 
ATOM     16  C   UNL     1      -9.075   8.180  -1.573  0.00  0.00    +0.033 A 
ATOM     17  C   UNL     1     -10.329   7.665  -1.844  0.00  0.00    +0.126 A 
ATOM     18  C   UNL     1     -10.604   6.337  -1.577  0.00  0.00    +0.033 A 
ATOM     19  C   UNL     1      -9.625   5.524  -1.038  0.00  0.00    +0.007 A 
ATOM     20  C   UNL     1      -8.370   6.038  -0.768  0.00  0.00    -0.037 A 
BRANCH  17  21
ATOM     21  N   UNL     1     -11.377   8.537  -2.420  0.00  0.00    +0.056 N 
ATOM     22  O   UNL     1     -12.482   8.084  -2.659  0.00  0.00    -0.126 OA
ATOM     23  O   UNL     1     -11.135   9.707  -2.656  0.00  0.00    -0.126 OA
ENDBRANCH  17  21
ENDBRANCH  14  20
ENDBRANCH  13  14
ENDBRANCH   1  13
BRANCH   4  24
ATOM     24  C   UNL     1      -2.449   1.117   0.020  0.00  0.00    +0.181 C 
BRANCH  24  25
ATOM     25  N   UNL     1      -1.191   1.867   0.018  0.00  0.00    -0.308 N 
ATOM     26  C   UNL     1      -0.014   1.209   0.009  0.00  0.00    +0.220 C 
ATOM     27  O   UNL     1       0.002  -0.004   0.002  0.00  0.00    -0.275 OA
ATOM     28  H   UNL     1      -1.204   2.837   0.023  0.00  0.00    +0.149 HD
BRANCH  26  29
ATOM     29  C   UNL     1       1.280   1.980   0.001  0.00  0.00    +0.048 C 
ATOM     30  C   UNL     1       1.337   2.867  -1.245  0.00  0.00    +0.019 C 
ATOM     31  C   UNL     1       2.652   3.650  -1.253  0.00  0.00    -0.009 C 
ATOM     32  C   UNL     1       3.828   2.672  -1.270  0.00  0.00    +0.007 C 
ATOM     33  C   UNL     1       3.771   1.784  -0.024  0.00  0.00    -0.009 C 
ATOM     34  C   UNL     1       2.457   1.002  -0.016  0.00  0.00    +0.019 C 
ATOM     35  C   UNL     1       3.852   2.658   1.229  0.00  0.00    +0.007 C 
ATOM     36  C   UNL     1       2.676   3.637   1.245  0.00  0.00    -0.009 C 
ATOM     37  C   UNL     1       2.733   4.524   0.000  0.00  0.00    +0.007 C 
ATOM     38  C   UNL     1       1.361   2.854   1.254  0.00  0.00    +0.019 C 
ENDBRANCH  26  29
ENDBRANCH  24  25
ENDBRANCH   4  24
TORSDOF 8
