REMARK  Name = ZINC67131009
REMARK  6 active torsions:
REMARK  status: ('A' for Active; 'I' for Inactive)
REMARK    1  A    between atoms: C_1  and  C_2
REMARK    2  A    between atoms: N_4  and  C_5
REMARK    3  A    between atoms: C_5  and  C_6
REMARK    4  A    between atoms: C_9  and  C_11
REMARK    5  A    between atoms: N_13  and  N_14
REMARK    6  A    between atoms: C_15  and  C_17
REMARK                            x       y       z     vdW  Elec       q    Type
REMARK                         _______ _______ _______ _____ _____    ______ ____
ROOT
ATOM      1  C   UNL     1      -6.250  -4.049   1.060  0.00  0.00    +0.267 C 
ATOM      2  O   UNL     1      -7.157  -4.381   0.320  0.00  0.00    -0.268 OA
ATOM      3  N   UNL     1      -6.412  -4.113   2.397  0.00  0.00    -0.230 N 
ATOM      4  H   UNL     1      -5.689  -3.848   2.986  0.00  0.00    +0.173 HD
ENDROOT
BRANCH   1   8
ATOM      5  C   UNL     1      -2.550  -2.680   0.012  0.00  0.00    +0.008 A 
ATOM      6  C   UNL     1      -3.340  -2.968  -1.052  0.00  0.00    +0.013 A 
ATOM      7  C   UNL     1      -4.612  -3.438  -0.832  0.00  0.00    +0.021 A 
ATOM      8  C   UNL     1      -4.980  -3.579   0.498  0.00  0.00    +0.076 A 
ATOM      9  S   UNL     1      -3.505  -3.045   1.345  0.00  0.00    -0.087 S 
BRANCH   5  10
ATOM     10  C   UNL     1      -1.136  -2.159   0.001  0.00  0.00    +0.146 C 
BRANCH  10  14
ATOM     11  C   UNL     1      -0.018   1.503   0.010  0.00  0.00    +0.109 C 
ATOM     12  C   UNL     1       0.002  -0.004   0.002  0.00  0.00    +0.210 C 
ATOM     13  O   UNL     1       1.060  -0.596  -0.011  0.00  0.00    -0.276 OA
ATOM     14  N   UNL     1      -1.156  -0.694   0.009  0.00  0.00    -0.311 N 
ATOM     15  H   UNL     1      -2.002  -0.220   0.020  0.00  0.00    +0.149 HD
ENDBRANCH  10  14
ENDBRANCH   5  10
ENDBRANCH   1   8
BRANCH   3  16
ATOM     16  N   UNL     1      -7.625  -4.563   2.934  0.00  0.00    -0.230 N 
ATOM     17  C   UNL     1      -7.788  -4.627   4.270  0.00  0.00    +0.267 C 
ATOM     18  O   UNL     1      -6.880  -4.295   5.010  0.00  0.00    -0.268 OA
ATOM     19  H   UNL     1      -8.348  -4.827   2.344  0.00  0.00    +0.173 HD
BRANCH  17  20
ATOM     20  C   UNL     1      -9.057  -5.097   4.833  0.00  0.00    +0.076 A 
ATOM     21  C   UNL     1      -9.427  -5.232   6.156  0.00  0.00    +0.024 A 
ATOM     22  C   UNL     1     -10.711  -5.709   6.408  0.00  0.00    -0.036 A 
ATOM     23  C   UNL     1     -11.474  -5.997   5.322  0.00  0.00    -0.006 A 
ATOM     24  S   UNL     1     -10.530  -5.637   3.988  0.00  0.00    -0.088 S 
ATOM     25  C   UNL     1     -12.877  -6.527   5.299  0.00  0.00    +0.043 C 
ATOM     26  C   UNL     1     -13.617  -6.069   6.560  0.00  0.00    +0.005 C 
ATOM     27  C   UNL     1     -13.398  -7.105   7.658  0.00  0.00    +0.001 C 
ATOM     28  C   UNL     1     -11.912  -7.236   7.983  0.00  0.00    +0.005 C 
ATOM     29  C   UNL     1     -11.214  -5.888   7.837  0.00  0.00    +0.036 C 
ENDBRANCH  17  20
ENDBRANCH   3  16
TORSDOF 5
