REMARK  Name = ZINC36265515
REMARK  3 active torsions:
REMARK  status: ('A' for Active; 'I' for Inactive)
REMARK    1  A    between atoms: C_2  and  S_8
REMARK    2  A    between atoms: S_8  and  N_11
REMARK    3  A    between atoms: N_11  and  C_12
REMARK                            x       y       z     vdW  Elec       q    Type
REMARK                         _______ _______ _______ _____ _____    ______ ____
ROOT
ATOM      1  S   UNL     1       1.238   3.924  -0.035  0.00  0.00    +0.061 S 
ATOM      2  O   UNL     1       2.157   4.530  -0.933  0.00  0.00    -0.153 OA
ATOM      3  O   UNL     1      -0.153   4.212  -0.058  0.00  0.00    -0.153 OA
ENDROOT
BRANCH   1   5
ATOM      4  C   UNL     1       2.270   1.669  -1.193  0.00  0.00    +0.057 A 
ATOM      5  C   UNL     1       1.396   2.182  -0.253  0.00  0.00    +0.132 A 
ATOM      6  C   UNL     1       0.661   1.325   0.499  0.00  0.00    +0.106 A 
ATOM      7  S   UNL     1       1.200  -0.262  -0.118  0.00  0.00    -0.063 S 
ATOM      8  C   UNL     1       2.367   0.323  -1.335  0.00  0.00    +0.081 A 
ATOM      9 CL   UNL     1       3.366  -0.592  -2.420  0.00  0.00    -0.076 Cl
ATOM     10 CL   UNL     1      -0.500   1.679   1.739  0.00  0.00    -0.074 Cl
ENDBRANCH   1   5
BRANCH   1  11
ATOM     11  N   UNL     1       1.769   4.275   1.494  0.00  0.00    -0.186 NA
ATOM     12  H   UNL     1       1.150   4.626   2.154  0.00  0.00    +0.148 HD
BRANCH  11  13
ATOM     13  C   UNL     1       3.173   4.057   1.850  0.00  0.00    +0.080 C 
ATOM     14  C   UNL     1       3.477   3.621   3.285  0.00  0.00    -0.006 C 
ATOM     15  C   UNL     1       3.818   5.051   2.818  0.00  0.00    -0.006 C 
ATOM     16  C   UNL     1       5.359   5.130   2.861  0.00  0.00    -0.077 C 
ATOM     17  N   UNL     1       5.761   4.091   3.843  0.00  0.00    +0.379 N 
ATOM     18  C   UNL     1       4.826   2.923   3.563  0.00  0.00    -0.077 C 
ATOM     19  H   UNL     1       6.719   3.813   3.691  0.00  0.00    -0.086 HD
ATOM     20  H   UNL     1       5.635   4.429   4.785  0.00  0.00    -0.086 HD
ENDBRANCH  11  13
ENDBRANCH   1  11
TORSDOF 3
