REMARK  Name = ZINC13576143
REMARK  7 active torsions:
REMARK  status: ('A' for Active; 'I' for Inactive)
REMARK    1  A    between atoms: C_1  and  O_2
REMARK    2  A    between atoms: O_2  and  C_3
REMARK    3  A    between atoms: C_8  and  O_9
REMARK    4  A    between atoms: O_9  and  C_10
REMARK    5  A    between atoms: C_13  and  C_21
REMARK    6  A    between atoms: C_14  and  C_19
REMARK    7  A    between atoms: C_24  and  C_26
REMARK                            x       y       z     vdW  Elec       q    Type
REMARK                         _______ _______ _______ _____ _____    ______ ____
ROOT
ATOM      1  C   UNL     1       1.539   0.694   0.971  0.00  0.00    +0.162 A 
ATOM      2  C   UNL     1       2.573  -0.119   1.416  0.00  0.00    +0.053 A 
ATOM      3  C   UNL     1       2.741  -0.343   2.764  0.00  0.00    -0.033 A 
ATOM      4  C   UNL     1       1.874   0.252   3.684  0.00  0.00    +0.005 A 
ATOM      5  C   UNL     1       0.830   1.063   3.239  0.00  0.00    +0.059 A 
ATOM      6  C   UNL     1       0.668   1.287   1.884  0.00  0.00    +0.162 A 
ATOM      7  C   UNL     1       2.087   0.021   5.128  0.00  0.00    +0.052 A 
ATOM      8  C   UNL     1       1.086   0.315   6.006  0.00  0.00    +0.039 A 
ATOM      9  C   UNL     1       1.221   0.049   7.380  0.00  0.00    +0.040 A 
ATOM     10  C   UNL     1       2.408  -0.558   7.846  0.00  0.00    +0.102 A 
ATOM     11  C   UNL     1       3.468  -0.848   6.875  0.00  0.00    +0.124 A 
ATOM     12  N   UNL     1       3.280  -0.514   5.549  0.00  0.00    -0.326 N 
ATOM     13  C   UNL     1       4.374  -0.730   4.598  0.00  0.00    +0.128 C 
ATOM     14  C   UNL     1       3.846  -1.239   3.261  0.00  0.00    +0.057 C 
ATOM     15  H   UNL     1       4.805  -1.690   8.174  0.00  0.00    +0.157 HD
ATOM     16  N   UNL     1       4.625  -1.427   7.205  0.00  0.00    -0.384 N 
ATOM     17  H   UNL     1       5.333  -1.607   6.484  0.00  0.00    +0.157 HD
ENDROOT
BRANCH   9  18
ATOM     18  C   UNL     1       0.144   0.395   8.315  0.00  0.00    +0.137 A 
ATOM     19  C   UNL     1      -0.412  -0.445   9.255  0.00  0.00    +0.050 A 
ATOM     20  C   UNL     1      -1.396   0.292   9.924  0.00  0.00    +0.050 A 
ATOM     21  C   UNL     1      -1.410   1.539   9.369  0.00  0.00    +0.136 A 
ATOM     22  O   UNL     1      -0.477   1.589   8.400  0.00  0.00    -0.455 OA
BRANCH  21  23
ATOM     23  C   UNL     1      -2.300   2.648   9.765  0.00  0.00    +0.019 A 
ATOM     24  C   UNL     1      -2.215   3.882   9.115  0.00  0.00    +0.013 A 
ATOM     25  C   UNL     1      -3.049   4.914   9.489  0.00  0.00    +0.022 A 
ATOM     26  C   UNL     1      -3.969   4.731  10.508  0.00  0.00    +0.059 A 
ATOM     27  C   UNL     1      -4.059   3.509  11.157  0.00  0.00    +0.060 A 
ATOM     28  C   UNL     1      -3.233   2.466  10.787  0.00  0.00    +0.033 A 
ATOM     29 CL   UNL     1      -5.216   3.289  12.432  0.00  0.00    -0.082 Cl
ATOM     30 CL   UNL     1      -5.015   6.036  10.973  0.00  0.00    -0.082 Cl
ENDBRANCH  21  23
ENDBRANCH   9  18
BRANCH   1  32
ATOM     31  C   UNL     1       2.309   0.285  -1.240  0.00  0.00    +0.277 C 
ATOM     32  O   UNL     1       1.379   0.918  -0.359  0.00  0.00    -0.491 OA
ENDBRANCH   1  32
BRANCH   6  33
ATOM     33  O   UNL     1      -0.343   2.082   1.442  0.00  0.00    -0.491 OA
ATOM     34  C   UNL     1      -1.196   2.657   2.433  0.00  0.00    +0.277 C 
ENDBRANCH   6  33
BRANCH  10  35
ATOM     35  C   UNL     1       2.572  -0.880   9.231  0.00  0.00    +0.103 C 
ATOM     36  N   UNL     1       2.703  -1.136  10.330  0.00  0.00    -0.191 NA
ENDBRANCH  10  35
TORSDOF 5
