REMARK  Name = ZINC16254364
REMARK  9 active torsions:
REMARK  status: ('A' for Active; 'I' for Inactive)
REMARK    1  A    between atoms: C_1  and  C_2
REMARK    2  A    between atoms: C_7  and  O_8
REMARK    3  A    between atoms: O_8  and  C_9
REMARK    4  A    between atoms: C_9  and  C_10
REMARK    5  A    between atoms: C_13  and  S_21
REMARK    6  A    between atoms: N_14  and  C_15
REMARK    7  A    between atoms: S_21  and  C_22
REMARK    8  A    between atoms: C_22  and  C_23
REMARK    9  A    between atoms: C_32  and  C_35
REMARK                            x       y       z     vdW  Elec       q    Type
REMARK                         _______ _______ _______ _____ _____    ______ ____
ROOT
ATOM      1  C   UNL     1      -7.194  -3.493   0.052  0.00  0.00    +0.176 A 
ATOM      2  N   UNL     1      -6.319  -4.459   0.038  0.00  0.00    -0.130 NA
ATOM      3  N   UNL     1      -5.128  -3.977   0.024  0.00  0.00    -0.122 NA
ATOM      4  C   UNL     1      -5.176  -2.665   0.037  0.00  0.00    +0.197 A 
ATOM      5  N   UNL     1      -6.498  -2.313   0.052  0.00  0.00    -0.271 N 
ENDROOT
BRANCH   5   6
ATOM      6  C   UNL     1      -7.029  -1.016   0.064  0.00  0.00    +0.050 A 
ATOM      7  C   UNL     1      -7.757  -0.572   1.160  0.00  0.00    +0.026 A 
ATOM      8  C   UNL     1      -8.275   0.708   1.171  0.00  0.00    +0.002 A 
ATOM      9  C   UNL     1      -8.079   1.544   0.087  0.00  0.00    +0.000 A 
ATOM     10  C   UNL     1      -7.358   1.104  -1.008  0.00  0.00    +0.002 A 
ATOM     11  C   UNL     1      -6.833  -0.174  -1.022  0.00  0.00    +0.026 A 
ENDBRANCH   5   6
BRANCH   1  12
ATOM     12  C   UNL     1      -8.693  -3.646   0.066  0.00  0.00    +0.305 C 
BRANCH  12  13
ATOM     13  O   UNL     1      -9.180  -3.686  -1.277  0.00  0.00    -0.484 OA
BRANCH  13  20
ATOM     14  C   UNL     1     -10.162  -3.770  -3.925  0.00  0.00    +0.047 C 
ATOM     15  C   UNL     1     -11.062  -3.868  -2.720  0.00  0.00    -0.009 A 
ATOM     16  C   UNL     1     -12.427  -4.006  -2.886  0.00  0.00    +0.007 A 
ATOM     17  C   UNL     1     -13.254  -4.097  -1.782  0.00  0.00    +0.000 A 
ATOM     18  C   UNL     1     -12.717  -4.051  -0.508  0.00  0.00    +0.004 A 
ATOM     19  C   UNL     1     -11.353  -3.919  -0.337  0.00  0.00    +0.046 A 
ATOM     20  C   UNL     1     -10.522  -3.822  -1.444  0.00  0.00    +0.124 A 
ENDBRANCH  13  20
ENDBRANCH  12  13
ENDBRANCH   1  12
BRANCH   4  21
ATOM     21  S   UNL     1      -3.799  -1.566   0.030  0.00  0.00    -0.078 S 
BRANCH  21  22
ATOM     22  C   UNL     1      -2.441  -2.763   0.010  0.00  0.00    +0.151 C 
BRANCH  22  23
ATOM     23  C   UNL     1      -1.125  -2.030   0.002  0.00  0.00    +0.121 A 
ATOM     24  N   UNL     1       0.020  -2.761  -0.014  0.00  0.00    -0.310 N 
ATOM     25  H   UNL     1      -0.028  -3.729  -0.019  0.00  0.00    +0.170 HD
ATOM     26  C   UNL     1       1.228  -2.150  -0.022  0.00  0.00    +0.259 A 
ATOM     27  O   UNL     1       2.262  -2.792  -0.035  0.00  0.00    -0.267 OA
ATOM     28  C   UNL     1       1.242  -0.679  -0.013  0.00  0.00    +0.065 A 
ATOM     29  C   UNL     1       2.432   0.046  -0.021  0.00  0.00    +0.015 A 
ATOM     30  C   UNL     1       2.388   1.423  -0.013  0.00  0.00    +0.001 A 
ATOM     31  C   UNL     1       1.170   2.090   0.002  0.00  0.00    +0.005 A 
ATOM     32  C   UNL     1      -0.017   1.392   0.010  0.00  0.00    -0.024 A 
ATOM     33  C   UNL     1       0.002  -0.004   0.002  0.00  0.00    +0.081 A 
ATOM     34  N   UNL     1      -1.143  -0.731   0.009  0.00  0.00    -0.233 NA
ATOM     35  C   UNL     1      -1.330   2.131   0.020  0.00  0.00    +0.046 C 
ENDBRANCH  22  23
ENDBRANCH  21  22
ENDBRANCH   4  21
TORSDOF 7
