REMARK  Name = ZINC20111394
REMARK  14 active torsions:
REMARK  status: ('A' for Active; 'I' for Inactive)
REMARK    1  A    between atoms: C_1  and  C_2
REMARK    2  A    between atoms: N_4  and  C_5
REMARK    3  A    between atoms: C_11  and  O_38
REMARK    4  A    between atoms: C_12  and  O_36
REMARK    5  A    between atoms: C_13  and  O_34
REMARK    6  A    between atoms: C_20  and  N_23
REMARK    7  A    between atoms: N_23  and  C_24
REMARK    8  A    between atoms: C_24  and  C_25
REMARK    9  A    between atoms: C_25  and  C_26
REMARK   10  A    between atoms: C_26  and  N_27
REMARK   11  A    between atoms: N_30  and  C_33
REMARK   12  A    between atoms: O_34  and  C_35
REMARK   13  A    between atoms: O_36  and  C_37
REMARK   14  A    between atoms: O_38  and  C_39
REMARK                            x       y       z     vdW  Elec       q    Type
REMARK                         _______ _______ _______ _____ _____    ______ ____
ROOT
ATOM      1  C   UNL     1       1.322  -0.762  -0.190  0.00  0.00    +0.104 C 
ATOM      2  C   UNL     1       1.092  -2.089   0.504  0.00  0.00    +0.032 C 
ATOM      3  C   UNL     1       2.282  -3.025   0.307  0.00  0.00    +0.038 C 
ATOM      4  C   UNL     1       3.566  -2.263   0.516  0.00  0.00    -0.032 A 
ATOM      5  C   UNL     1       4.280  -2.418   1.686  0.00  0.00    +0.054 A 
ATOM      6  C   UNL     1       5.469  -1.723   1.871  0.00  0.00    +0.165 A 
ATOM      7  C   UNL     1       5.946  -0.870   0.881  0.00  0.00    +0.204 A 
ATOM      8  C   UNL     1       5.229  -0.707  -0.297  0.00  0.00    +0.173 A 
ATOM      9  C   UNL     1       4.031  -1.405  -0.474  0.00  0.00    +0.031 A 
ATOM     10  C   UNL     1       3.241  -1.213  -1.728  0.00  0.00    -0.009 A 
ATOM     11  C   UNL     1       1.880  -0.946  -1.587  0.00  0.00    -0.016 A 
ATOM     12  C   UNL     1       1.000  -0.840  -2.599  0.00  0.00    +0.058 A 
ATOM     13  C   UNL     1       1.131  -0.914  -3.956  0.00  0.00    +0.200 A 
ATOM     14  O   UNL     1       0.090  -0.846  -4.596  0.00  0.00    -0.286 OA
ATOM     15  C   UNL     1       2.295  -1.057  -4.707  0.00  0.00    +0.074 A 
ATOM     16  C   UNL     1       3.547  -1.231  -4.198  0.00  0.00    +0.027 A 
ATOM     17  C   UNL     1       3.929  -1.309  -2.911  0.00  0.00    +0.011 A 
ENDROOT
BRANCH   1  21
ATOM     18  C   UNL     1      -1.269   2.043  -0.466  0.00  0.00    +0.109 C 
ATOM     19  C   UNL     1       0.040   1.303  -0.371  0.00  0.00    +0.210 C 
ATOM     20  O   UNL     1       1.086   1.917  -0.385  0.00  0.00    -0.276 OA
ATOM     21  N   UNL     1       0.049  -0.041  -0.276  0.00  0.00    -0.309 N 
ATOM     22  H   UNL     1      -0.900  -0.598  -0.264  0.00  0.00    +0.149 HD
ENDBRANCH   1  21
BRANCH  15  23
ATOM     23  N   UNL     1       2.170  -1.021  -6.086  0.00  0.00    -0.341 N 
ATOM     24  H   UNL     1       1.180  -0.883  -6.545  0.00  0.00    +0.146 HD
BRANCH  23  25
ATOM     25  C   UNL     1       3.356  -1.166  -6.933  0.00  0.00    +0.103 C 
BRANCH  25  26
ATOM     26  C   UNL     1       2.944  -1.090  -8.405  0.00  0.00    +0.034 C 
BRANCH  26  27
ATOM     27  C   UNL     1       4.182  -1.242  -9.290  0.00  0.00    +0.086 C 
BRANCH  27  28
ATOM     28  N   UNL     1       3.787  -1.169 -10.703  0.00  0.00    -0.306 NA
ATOM     29  C   UNL     1       2.952  -2.320 -11.076  0.00  0.00    +0.066 C 
ATOM     30  C   UNL     1       2.496  -2.166 -12.529  0.00  0.00    -0.064 C 
ATOM     31  N   UNL     1       3.674  -2.069 -13.401  0.00  0.00    +0.379 N 
ATOM     32  C   UNL     1       4.509  -0.919 -13.029  0.00  0.00    -0.064 C 
ATOM     33  C   UNL     1       4.965  -1.072 -11.576  0.00  0.00    +0.066 C 
ATOM     34  C   UNL     1       3.278  -1.997 -14.814  0.00  0.00    -0.096 C 
ATOM     35  H   UNL     1       4.273  -2.982 -13.266  0.00  0.00    -0.082 HD
ENDBRANCH  27  28
ENDBRANCH  26  27
ENDBRANCH  25  26
ENDBRANCH  23  25
ENDBRANCH  15  23
BRANCH   8  36
ATOM     36  O   UNL     1       5.687   0.126  -1.268  0.00  0.00    -0.491 OA
ATOM     37  C   UNL     1       5.360   1.511  -1.144  0.00  0.00    +0.277 C 
ENDBRANCH   8  36
BRANCH   7  38
ATOM     38  O   UNL     1       7.113  -0.195   1.068  0.00  0.00    -0.488 OA
ATOM     39  C   UNL     1       8.312  -0.844   0.641  0.00  0.00    +0.277 C 
ENDBRANCH   7  38
BRANCH   6  40
ATOM     40  O   UNL     1       6.170  -1.878   3.025  0.00  0.00    -0.491 OA
ATOM     41  C   UNL     1       5.625  -2.769   4.001  0.00  0.00    +0.277 C 
ENDBRANCH   6  40
TORSDOF 9
