REMARK  Name = ZINC38787936
REMARK  7 active torsions:
REMARK  status: ('A' for Active; 'I' for Inactive)
REMARK    1  A    between atoms: C_1  and  C_2
REMARK    2  A    between atoms: C_6  and  C_15
REMARK    3  A    between atoms: C_13  and  C_14
REMARK    4  A    between atoms: C_15  and  N_16
REMARK    5  A    between atoms: N_16  and  C_17
REMARK    6  A    between atoms: C_20  and  N_23
REMARK    7  A    between atoms: C_27  and  O_30
REMARK                            x       y       z     vdW  Elec       q    Type
REMARK                         _______ _______ _______ _____ _____    ______ ____
ROOT
ATOM      1  N   UNL     1       1.285  -6.307  -3.023  0.00  0.00    -0.343 N 
ATOM      2  H   UNL     1       0.554  -6.797  -2.615  0.00  0.00    +0.146 HD
ENDROOT
BRANCH   1   3
ATOM      3  C   UNL     1       2.325  -7.000  -3.654  0.00  0.00    +0.027 A 
ATOM      4  C   UNL     1       3.375  -6.299  -4.233  0.00  0.00    +0.025 A 
ATOM      5  C   UNL     1       4.401  -6.982  -4.856  0.00  0.00    +0.025 A 
ATOM      6  C   UNL     1       4.383  -8.370  -4.902  0.00  0.00    +0.030 A 
ATOM      7  C   UNL     1       3.334  -9.071  -4.322  0.00  0.00    +0.025 A 
ATOM      8  C   UNL     1       2.311  -8.388  -3.695  0.00  0.00    +0.025 A 
BRANCH   6   9
ATOM      9  N   UNL     1       5.423  -9.062  -5.534  0.00  0.00    -0.327 N 
ATOM     10  C   UNL     1       5.482 -10.530  -5.487  0.00  0.00    +0.105 C 
ATOM     11  C   UNL     1       5.592 -11.064  -6.919  0.00  0.00    +0.021 C 
ATOM     12  C   UNL     1       6.788 -10.409  -7.613  0.00  0.00    +0.034 C 
ATOM     13  C   UNL     1       6.575  -8.895  -7.678  0.00  0.00    +0.132 C 
ATOM     14  C   UNL     1       6.473  -8.336  -6.261  0.00  0.00    +0.136 C 
BRANCH  13  15
ATOM     15  O   UNL     1       7.678  -8.287  -8.355  0.00  0.00    -0.390 OA
ATOM     16  H   UNL     1       7.801  -8.597  -9.262  0.00  0.00    +0.210 HD
ENDBRANCH  13  15
ENDBRANCH   6   9
ENDBRANCH   1   3
BRANCH   1  17
ATOM     17  C   UNL     1       1.300  -4.843  -2.980  0.00  0.00    +0.118 C 
BRANCH  17  23
ATOM     18  C   UNL     1       0.009   1.480   0.081  0.00  0.00    +0.044 C 
ATOM     19  C   UNL     1       0.020  -0.027   0.057  0.00  0.00    -0.047 A 
ATOM     20  C   UNL     1       0.028  -0.673  -1.137  0.00  0.00    +0.013 A 
ATOM     21  C   UNL     1       0.039  -2.137  -1.148  0.00  0.00    -0.007 A 
ATOM     22  C   UNL     1       0.047  -2.828  -2.323  0.00  0.00    -0.003 C 
ATOM     23  C   UNL     1       0.059  -4.341  -2.239  0.00  0.00    +0.115 C 
ATOM     24  C   UNL     1       0.061  -4.961  -0.860  0.00  0.00    +0.226 C 
ATOM     25  O   UNL     1       0.071  -6.171  -0.734  0.00  0.00    -0.275 OA
ATOM     26  N   UNL     1       0.053  -4.183   0.209  0.00  0.00    -0.284 N 
ATOM     27  C   UNL     1       0.042  -2.852   0.140  0.00  0.00    +0.041 A 
ATOM     28  C   UNL     1       0.034  -2.086   1.321  0.00  0.00    +0.027 A 
ATOM     29  C   UNL     1       0.029  -0.729   1.263  0.00  0.00    -0.046 A 
ATOM     30  C   UNL     1       0.026   0.050   2.553  0.00  0.00    +0.044 C 
ATOM     31  H   UNL     1       0.054  -4.600   1.085  0.00  0.00    +0.155 HD
ENDBRANCH  17  23
ENDBRANCH   1  17
TORSDOF 5
