REMARK  Name = ZINC06894717
REMARK  3 active torsions:
REMARK  status: ('A' for Active; 'I' for Inactive)
REMARK    1  A    between atoms: C_5  and  C_7
REMARK    2  A    between atoms: C_7  and  N_8
REMARK    3  A    between atoms: C_9  and  C_11
REMARK                            x       y       z     vdW  Elec       q    Type
REMARK                         _______ _______ _______ _____ _____    ______ ____
ROOT
ATOM      1  C   UNL     1       2.020  -4.474  -2.987  0.00  0.00    +0.076 C 
ATOM      2  C   UNL     1       0.904  -4.120  -4.007  0.00  0.00    -0.003 C 
ATOM      3  C   UNL     1       1.089  -5.225  -5.074  0.00  0.00    -0.066 C 
ATOM      4  C   UNL     1      -0.261  -5.502  -5.754  0.00  0.00    -0.017 C 
ATOM      5  C   UNL     1      -0.630  -6.947  -5.348  0.00  0.00    -0.020 C 
ATOM      6  C   UNL     1       0.177  -7.156  -4.043  0.00  0.00    -0.077 C 
ATOM      7  C   UNL     1       2.047  -6.010  -3.029  0.00  0.00    +0.052 C 
ATOM      8  C   UNL     1       3.454  -6.523  -2.881  0.00  0.00    -0.027 A 
ATOM      9  C   UNL     1       4.602  -6.360  -3.624  0.00  0.00    +0.004 A 
ATOM     10  C   UNL     1       5.777  -6.971  -3.225  0.00  0.00    +0.000 A 
ATOM     11  C   UNL     1       5.796  -7.744  -2.078  0.00  0.00    +0.002 A 
ATOM     12  C   UNL     1       4.649  -7.909  -1.331  0.00  0.00    +0.023 A 
ATOM     13  C   UNL     1       3.460  -7.299  -1.726  0.00  0.00    +0.036 A 
ATOM     14  N   UNL     1       2.189  -7.317  -1.150  0.00  0.00    -0.286 N 
ATOM     15  C   UNL     1       1.302  -6.588  -1.853  0.00  0.00    +0.212 C 
ATOM     16  O   UNL     1       0.129  -6.427  -1.591  0.00  0.00    -0.277 OA
ATOM     17  H   UNL     1       1.970  -7.799  -0.338  0.00  0.00    +0.155 HD
ATOM     18  N   UNL     1       1.426  -6.418  -4.306  0.00  0.00    +0.394 N 
ATOM     19  H   UNL     1       2.078  -7.008  -4.836  0.00  0.00    -0.079 HD
ENDROOT
BRANCH   1  21
ATOM     20  N   UNL     1       2.626  -3.772  -0.694  0.00  0.00    -0.311 N 
ATOM     21  C   UNL     1       1.659  -3.985  -1.608  0.00  0.00    +0.216 C 
ATOM     22  O   UNL     1       0.498  -3.783  -1.322  0.00  0.00    -0.276 OA
ATOM     23  H   UNL     1       3.554  -3.933  -0.923  0.00  0.00    +0.149 HD
BRANCH  20  24
ATOM     24  C   UNL     1       2.274  -3.296   0.646  0.00  0.00    +0.142 C 
BRANCH  24  29
ATOM     25  C   UNL     1       5.183  -1.735   2.479  0.00  0.00    +0.000 A 
ATOM     26  C   UNL     1       5.828  -2.852   2.977  0.00  0.00    +0.003 A 
ATOM     27  C   UNL     1       5.324  -4.113   2.722  0.00  0.00    +0.038 A 
ATOM     28  C   UNL     1       4.173  -4.258   1.967  0.00  0.00    +0.128 A 
ATOM     29  C   UNL     1       3.527  -3.139   1.469  0.00  0.00    +0.005 A 
ATOM     30  C   UNL     1       4.033  -1.879   1.725  0.00  0.00    +0.008 A 
ATOM     31  F   UNL     1       3.679  -5.490   1.718  0.00  0.00    -0.205 F 
ENDBRANCH  24  29
ENDBRANCH  20  24
ENDBRANCH   1  21
TORSDOF 3
