REMARK  Name = ZINC00872448
REMARK  9 active torsions:
REMARK  status: ('A' for Active; 'I' for Inactive)
REMARK    1  A    between atoms: C_1  and  C_2
REMARK    2  A    between atoms: C_2  and  C_3
REMARK    3  A    between atoms: C_2  and  C_4
REMARK    4  A    between atoms: C_16  and  C_18
REMARK    5  A    between atoms: C_21  and  O_26
REMARK    6  A    between atoms: C_22  and  O_24
REMARK    7  A    between atoms: O_24  and  C_25
REMARK    8  A    between atoms: O_26  and  C_27
REMARK    9  A    between atoms: C_31  and  C_34
REMARK                            x       y       z     vdW  Elec       q    Type
REMARK                         _______ _______ _______ _____ _____    ______ ____
ROOT
ATOM      1  C   UNL     1       4.398   4.136   0.904  0.00  0.00    +0.223 C 
ATOM      2  O   UNL     1       4.727   3.909   2.049  0.00  0.00    -0.275 OA
ATOM      3  N   UNL     1       3.939   3.137   0.124  0.00  0.00    -0.258 N 
ATOM      4  C   UNL     1       3.564   3.409  -1.192  0.00  0.00    +0.058 A 
ATOM      5  C   UNL     1       4.498   3.769  -2.150  0.00  0.00    +0.025 A 
ATOM      6  C   UNL     1       4.099   3.919  -3.467  0.00  0.00    +0.002 A 
ATOM      7  C   UNL     1       2.779   3.712  -3.826  0.00  0.00    +0.002 A 
ATOM      8  C   UNL     1       1.839   3.375  -2.867  0.00  0.00    +0.025 A 
ATOM      9  C   UNL     1       2.234   3.242  -1.547  0.00  0.00    +0.053 A 
ATOM     10  N   UNL     1       1.336   2.951  -0.528  0.00  0.00    -0.316 N 
ATOM     11  C   UNL     1       1.341   1.811   0.209  0.00  0.00    +0.017 C 
ATOM     12  C   UNL     1       2.435   1.263   0.765  0.00  0.00    +0.037 C 
ATOM     13  C   UNL     1       3.843   1.799   0.665  0.00  0.00    +0.147 C 
ATOM     14  C   UNL     1       2.329   0.068   1.516  0.00  0.00    +0.163 C 
ATOM     15  O   UNL     1       3.329  -0.391   2.031  0.00  0.00    -0.292 OA
ATOM     16  C   UNL     1       1.026  -0.652   1.698  0.00  0.00    +0.088 C 
ATOM     17  C   UNL     1       0.131  -0.353   0.490  0.00  0.00    +0.032 C 
ATOM     18  C   UNL     1      -0.022   1.164   0.389  0.00  0.00    +0.059 C 
ATOM     19  H   UNL     1       0.655   3.612  -0.328  0.00  0.00    +0.152 HD
ENDROOT
BRANCH  13  20
ATOM     20  C   UNL     1       4.646   0.872  -0.210  0.00  0.00    -0.018 A 
ATOM     21  C   UNL     1       4.301   0.706  -1.538  0.00  0.00    +0.009 A 
ATOM     22  C   UNL     1       5.036  -0.143  -2.345  0.00  0.00    +0.050 A 
ATOM     23  C   UNL     1       6.120  -0.830  -1.823  0.00  0.00    +0.162 A 
ATOM     24  C   UNL     1       6.466  -0.664  -0.486  0.00  0.00    +0.162 A 
ATOM     25  C   UNL     1       5.729   0.193   0.316  0.00  0.00    +0.055 A 
BRANCH  24  26
ATOM     26  O   UNL     1       7.529  -1.336   0.032  0.00  0.00    -0.491 OA
ATOM     27  C   UNL     1       7.827  -1.116   1.412  0.00  0.00    +0.277 C 
ENDBRANCH  24  26
BRANCH  23  28
ATOM     28  O   UNL     1       6.843  -1.665  -2.616  0.00  0.00    -0.491 OA
ATOM     29  C   UNL     1       6.430  -1.787  -3.978  0.00  0.00    +0.277 C 
ENDBRANCH  23  28
ENDBRANCH  13  20
BRANCH  17  30
ATOM     30  C   UNL     1      -1.221  -0.990   0.685  0.00  0.00    -0.044 A 
ATOM     31  C   UNL     1      -1.984  -0.667   1.792  0.00  0.00    +0.004 A 
ATOM     32  C   UNL     1      -3.226  -1.248   1.969  0.00  0.00    +0.000 A 
ATOM     33  C   UNL     1      -3.700  -2.160   1.045  0.00  0.00    +0.000 A 
ATOM     34  C   UNL     1      -2.935  -2.488  -0.059  0.00  0.00    +0.000 A 
ATOM     35  C   UNL     1      -1.695  -1.903  -0.238  0.00  0.00    +0.004 A 
ENDBRANCH  17  30
BRANCH   1  37
ATOM     36  C   UNL     1       3.119   6.015  -0.087  0.00  0.00    +0.017 C 
ATOM     37  C   UNL     1       4.504   5.535   0.352  0.00  0.00    +0.069 C 
ATOM     38  C   UNL     1       5.049   6.470   1.434  0.00  0.00    +0.017 C 
ENDBRANCH   1  37
TORSDOF 5
