REMARK  Name = ZINC22887307
REMARK  10 active torsions:
REMARK  status: ('A' for Active; 'I' for Inactive)
REMARK    1  A    between atoms: C_1  and  C_2
REMARK    2  A    between atoms: C_5  and  C_32
REMARK    3  A    between atoms: C_6  and  C_8
REMARK    4  A    between atoms: C_8  and  C_10
REMARK    5  A    between atoms: C_8  and  O_31
REMARK    6  A    between atoms: C_10  and  N_11
REMARK    7  A    between atoms: N_14  and  C_17
REMARK    8  A    between atoms: C_17  and  C_19
REMARK    9  A    between atoms: C_17  and  C_25
REMARK   10  A    between atoms: N_29  and  C_30
REMARK                            x       y       z     vdW  Elec       q    Type
REMARK                         _______ _______ _______ _____ _____    ______ ____
ROOT
ATOM      1  N   UNL     1       0.750  -0.091   2.350  0.00  0.00    -0.297 NA
ATOM      2  C   UNL     1      -0.248   0.112   1.290  0.00  0.00    +0.100 C 
ATOM      3  C   UNL     1      -0.534   1.609   1.144  0.00  0.00    +0.101 C 
ATOM      4  N   UNL     1       0.715   2.315   0.830  0.00  0.00    -0.287 NA
ATOM      5  C   UNL     1       1.713   2.112   1.889  0.00  0.00    +0.101 C 
ATOM      6  C   UNL     1       2.000   0.615   2.036  0.00  0.00    +0.100 C 
ENDROOT
BRANCH   1   7
ATOM      7  C   UNL     1       0.997  -1.522   2.573  0.00  0.00    +0.120 C 
BRANCH   7   8
ATOM      8  C   UNL     1       2.114  -1.693   3.604  0.00  0.00    +0.159 C 
BRANCH   8  14
ATOM      9  C   UNL     1       1.246  -5.810   6.314  0.00  0.00    +0.044 C 
ATOM     10  C   UNL     1       1.928  -5.130   5.154  0.00  0.00    -0.050 A 
ATOM     11  C   UNL     1       2.764  -5.853   4.324  0.00  0.00    +0.003 A 
ATOM     12  C   UNL     1       3.389  -5.230   3.260  0.00  0.00    +0.004 A 
ATOM     13  C   UNL     1       3.176  -3.884   3.025  0.00  0.00    -0.045 A 
ATOM     14  C   UNL     1       2.344  -3.160   3.858  0.00  0.00    -0.015 A 
ATOM     15  C   UNL     1       1.717  -3.784   4.921  0.00  0.00    +0.009 A 
ATOM     16  C   UNL     1       3.853  -3.205   1.862  0.00  0.00    +0.044 C 
ENDBRANCH   8  14
BRANCH   8  17
ATOM     17  O   UNL     1       1.738  -1.051   4.825  0.00  0.00    -0.386 OA
ATOM     18  H   UNL     1       1.528   0.028   4.836  0.00  0.00    +0.210 HD
ENDBRANCH   8  17
ENDBRANCH   7   8
ENDBRANCH   1   7
BRANCH   4  19
ATOM     19  C   UNL     1       0.469   3.746   0.607  0.00  0.00    +0.152 C 
BRANCH  19  20
ATOM     20  C   UNL     1      -0.460   3.919  -0.567  0.00  0.00    +0.109 A 
ATOM     21  N   UNL     1      -0.385   3.273  -1.698  0.00  0.00    -0.348 N 
ATOM     22  C   UNL     1      -1.373   3.682  -2.508  0.00  0.00    +0.102 A 
ATOM     23  C   UNL     1      -2.087   4.617  -1.853  0.00  0.00    +0.104 A 
ATOM     24  N   UNL     1      -1.513   4.764  -0.620  0.00  0.00    -0.337 N 
ATOM     25  C   UNL     1      -1.954   5.670   0.443  0.00  0.00    +0.150 C 
ATOM     26  H   UNL     1       0.409   2.528  -1.854  0.00  0.00    +0.166 HD
ENDBRANCH  19  20
BRANCH  19  27
ATOM     27  C   UNL     1       1.775   4.442   0.321  0.00  0.00    -0.023 A 
ATOM     28  C   UNL     1       2.673   3.886  -0.571  0.00  0.00    +0.005 A 
ATOM     29  C   UNL     1       3.869   4.527  -0.837  0.00  0.00    +0.000 A 
ATOM     30  C   UNL     1       4.170   5.719  -0.204  0.00  0.00    +0.000 A 
ATOM     31  C   UNL     1       3.274   6.272   0.691  0.00  0.00    +0.000 A 
ATOM     32  C   UNL     1       2.076   5.634   0.954  0.00  0.00    +0.005 A 
ENDBRANCH  19  27
ENDBRANCH   4  19
TORSDOF 7
