REMARK  Name = ZINC16570034
REMARK  9 active torsions:
REMARK  status: ('A' for Active; 'I' for Inactive)
REMARK    1  A    between atoms: C_1  and  C_2
REMARK    2  A    between atoms: C_6  and  C_8
REMARK    3  A    between atoms: C_22  and  C_24
REMARK    4  A    between atoms: C_24  and  N_25
REMARK    5  A    between atoms: N_25  and  C_26
REMARK    6  A    between atoms: N_31  and  C_32
REMARK    7  A    between atoms: C_32  and  C_33
REMARK    8  A    between atoms: C_32  and  C_34
REMARK    9  A    between atoms: C_32  and  C_35
REMARK                            x       y       z     vdW  Elec       q    Type
REMARK                         _______ _______ _______ _____ _____    ______ ____
ROOT
ATOM      1  C   UNL     1      -0.551   0.202   0.432  0.00  0.00    +0.159 C 
ATOM      2  C   UNL     1      -0.542   1.707   0.554  0.00  0.00    +0.049 A 
ATOM      3  C   UNL     1      -1.540   2.542   0.862  0.00  0.00    +0.025 A 
ATOM      4  C   UNL     1      -1.014   3.853   0.840  0.00  0.00    +0.020 A 
ATOM      5  C   UNL     1       0.294   3.762   0.511  0.00  0.00    +0.092 A 
ATOM      6  N   UNL     1       0.596   2.453   0.336  0.00  0.00    -0.316 N 
ATOM      7  C   UNL     1       1.812   1.843  -0.004  0.00  0.00    +0.068 A 
ATOM      8  C   UNL     1       2.883   2.570  -0.485  0.00  0.00    +0.028 A 
ATOM      9  C   UNL     1       4.054   1.919  -0.833  0.00  0.00    +0.002 A 
ATOM     10  C   UNL     1       4.152   0.546  -0.697  0.00  0.00    +0.002 A 
ATOM     11  C   UNL     1       3.086  -0.186  -0.209  0.00  0.00    +0.025 A 
ATOM     12  C   UNL     1       1.910   0.455   0.146  0.00  0.00    +0.061 A 
ATOM     13  N   UNL     1       0.825  -0.274   0.652  0.00  0.00    -0.255 N 
ATOM     14  C   UNL     1       1.042  -1.412   1.339  0.00  0.00    +0.238 C 
ATOM     15  O   UNL     1       2.170  -1.843   1.459  0.00  0.00    -0.273 OA
ENDROOT
BRANCH   1  21
ATOM     16  C   UNL     1      -4.171  -1.415  -2.621  0.00  0.00    +0.044 C 
ATOM     17  C   UNL     1      -2.748  -0.970  -2.405  0.00  0.00    -0.050 A 
ATOM     18  C   UNL     1      -1.868  -0.927  -3.471  0.00  0.00    +0.003 A 
ATOM     19  C   UNL     1      -0.562  -0.520  -3.273  0.00  0.00    +0.001 A 
ATOM     20  C   UNL     1      -0.136  -0.154  -2.010  0.00  0.00    +0.006 A 
ATOM     21  C   UNL     1      -1.016  -0.196  -0.945  0.00  0.00    -0.021 A 
ATOM     22  C   UNL     1      -2.320  -0.609  -1.141  0.00  0.00    +0.009 A 
ENDBRANCH   1  21
BRANCH  14  23
ATOM     23  C   UNL     1      -0.116  -2.150   1.960  0.00  0.00    +0.205 C 
BRANCH  23  24
ATOM     24  N   UNL     1       0.388  -3.283   2.740  0.00  0.00    -0.274 N 
ATOM     25  C   UNL     1       0.691  -3.121   4.044  0.00  0.00    +0.303 C 
ATOM     26  O   UNL     1       1.264  -4.006   4.649  0.00  0.00    -0.253 OA
ATOM     27  N   UNL     1       0.358  -1.979   4.677  0.00  0.00    -0.294 N 
ATOM     28  H   UNL     1      -0.161  -1.302   4.215  0.00  0.00    +0.151 HD
BRANCH  27  29
ATOM     29  C   UNL     1       0.781  -1.759   6.062  0.00  0.00    +0.028 C 
ATOM     30  C   UNL     1       2.308  -1.794   6.141  0.00  0.00    +0.031 C 
ATOM     31  C   UNL     1       0.276  -0.395   6.539  0.00  0.00    +0.031 C 
ATOM     32  C   UNL     1       0.199  -2.858   6.953  0.00  0.00    +0.031 C 
ENDBRANCH  27  29
BRANCH  24  33
ATOM     33  C   UNL     1       0.562  -4.591   2.104  0.00  0.00    +0.078 C 
ATOM     34  C   UNL     1       0.732  -5.805   3.020  0.00  0.00    +0.024 C 
ATOM     35  C   UNL     1       1.930  -5.264   2.237  0.00  0.00    +0.024 C 
ENDBRANCH  24  33
ENDBRANCH  23  24
ENDBRANCH  14  23
TORSDOF 5
