REMARK  Name = ZINC13978457
REMARK  8 active torsions:
REMARK  status: ('A' for Active; 'I' for Inactive)
REMARK    1  A    between atoms: C_1  and  C_2
REMARK    2  A    between atoms: C_2  and  C_4
REMARK    3  A    between atoms: C_2  and  N_10
REMARK    4  A    between atoms: N_10  and  C_11
REMARK    5  A    between atoms: C_11  and  N_13
REMARK    6  A    between atoms: C_14  and  C_16
REMARK    7  A    between atoms: C_16  and  O_17
REMARK    8  A    between atoms: O_17  and  C_18
REMARK                            x       y       z     vdW  Elec       q    Type
REMARK                         _______ _______ _______ _____ _____    ______ ____
ROOT
ATOM      1  N   UNL     1       2.088   4.348   0.005  0.00  0.00    -0.265 N 
ATOM      2  C   UNL     1       1.030   3.512   0.011  0.00  0.00    +0.256 C 
ATOM      3  O   UNL     1      -0.096   3.961   0.024  0.00  0.00    -0.272 OA
ATOM      4  H   UNL     1       2.989   3.989  -0.005  0.00  0.00    +0.157 HD
ENDROOT
BRANCH   1   5
ATOM      5  C   UNL     1       1.893   5.681   0.015  0.00  0.00    +0.137 C 
ATOM      6  S   UNL     1       0.302   6.314   0.033  0.00  0.00    -0.018 S 
BRANCH   5   7
ATOM      7  N   UNL     1       2.951   6.517   0.009  0.00  0.00    -0.320 N 
ATOM      8  H   UNL     1       3.852   6.158  -0.002  0.00  0.00    +0.148 HD
BRANCH   7  10
ATOM      9  C   UNL     1       2.527   8.461  -1.414  0.00  0.00    +0.033 C 
ATOM     10  C   UNL     1       2.739   7.966   0.019  0.00  0.00    +0.099 C 
BRANCH  10  11
ATOM     11  C   UNL     1       3.946   8.646   0.611  0.00  0.00    -0.028 A 
ATOM     12  C   UNL     1       5.215   8.189   0.308  0.00  0.00    +0.005 A 
ATOM     13  C   UNL     1       6.323   8.816   0.849  0.00  0.00    +0.000 A 
ATOM     14  C   UNL     1       6.161   9.893   1.699  0.00  0.00    +0.000 A 
ATOM     15  C   UNL     1       4.892  10.347   2.006  0.00  0.00    +0.000 A 
ATOM     16  C   UNL     1       3.785   9.724   1.462  0.00  0.00    +0.005 A 
ENDBRANCH  10  11
ENDBRANCH   7  10
ENDBRANCH   5   7
ENDBRANCH   1   5
BRANCH   2  17
ATOM     17  C   UNL     1       1.248   2.021   0.001  0.00  0.00    +0.325 C 
BRANCH  17  18
ATOM     18  O   UNL     1      -0.016   1.355   0.009  0.00  0.00    -0.481 OA
BRANCH  18  19
ATOM     19  C   UNL     1       0.002  -0.004   0.002  0.00  0.00    +0.139 A 
ATOM     20  C   UNL     1       1.212  -0.682  -0.013  0.00  0.00    +0.048 A 
ATOM     21  C   UNL     1       1.229  -2.064  -0.021  0.00  0.00    +0.019 A 
ATOM     22  C   UNL     1       0.040  -2.771  -0.013  0.00  0.00    +0.019 A 
ATOM     23  C   UNL     1      -1.168  -2.098   0.002  0.00  0.00    +0.039 A 
ATOM     24  C   UNL     1      -1.190  -0.716   0.015  0.00  0.00    +0.084 A 
ATOM     25 CL   UNL     1      -2.706   0.130   0.042  0.00  0.00    -0.080 Cl
ATOM     26 BR   UNL     1       0.067  -4.662  -0.024  0.00  0.00    -0.050 Br
ENDBRANCH  18  19
ENDBRANCH  17  18
ENDBRANCH   2  17
TORSDOF 7
