REMARK  Name = ZINC20589871
REMARK  9 active torsions:
REMARK  status: ('A' for Active; 'I' for Inactive)
REMARK    1  A    between atoms: C_1  and  C_2
REMARK    2  A    between atoms: C_11  and  C_21
REMARK    3  A    between atoms: C_12  and  S_14
REMARK    4  A    between atoms: S_14  and  C_15
REMARK    5  A    between atoms: C_15  and  C_16
REMARK    6  A    between atoms: C_16  and  C_17
REMARK    7  A    between atoms: C_17  and  N_18
REMARK    8  A    between atoms: N_18  and  C_19
REMARK    9  A    between atoms: N_18  and  C_20
REMARK                            x       y       z     vdW  Elec       q    Type
REMARK                         _______ _______ _______ _____ _____    ______ ____
ROOT
ATOM      1  C   UNL     1      -1.141   9.662  -0.483  0.00  0.00    +0.007 C 
ATOM      2  C   UNL     1      -1.230   8.140  -0.615  0.00  0.00    -0.011 C 
ATOM      3  C   UNL     1      -1.419   7.517   0.771  0.00  0.00    +0.022 C 
ATOM      4  C   UNL     1      -1.447   5.993   0.640  0.00  0.00    +0.107 C 
ATOM      5  N   UNL     1      -0.188   5.529   0.043  0.00  0.00    -0.315 N 
ATOM      6  C   UNL     1      -0.007   6.077  -1.308  0.00  0.00    +0.107 C 
ATOM      7  C   UNL     1       0.063   7.604  -1.235  0.00  0.00    +0.022 C 
ATOM      8  C   UNL     1      -0.125   4.145   0.029  0.00  0.00    +0.126 A 
ATOM      9  C   UNL     1       1.103   3.513   0.261  0.00  0.00    -0.003 A 
ATOM     10  C   UNL     1       1.162   2.153   0.253  0.00  0.00    -0.021 A 
ATOM     11  C   UNL     1      -0.018   1.428   0.007  0.00  0.00    +0.087 A 
ATOM     12  C   UNL     1      -1.215   2.125  -0.228  0.00  0.00    +0.117 A 
ATOM     13  N   UNL     1      -1.227   3.450  -0.201  0.00  0.00    -0.224 NA
ATOM     14  C   UNL     1       2.432   1.387   0.500  0.00  0.00    +0.037 C 
ATOM     15  C   UNL     1       3.649   2.293   0.323  0.00  0.00    +0.005 C 
ATOM     16  C   UNL     1       3.430   3.563   1.154  0.00  0.00    +0.005 C 
ATOM     17  C   UNL     1       2.311   4.377   0.506  0.00  0.00    +0.039 C 
ENDROOT
BRANCH  11  18
ATOM     18  C   UNL     1       0.001  -0.004  -0.011  0.00  0.00    +0.102 C 
ATOM     19  N   UNL     1       0.016  -1.140  -0.024  0.00  0.00    -0.191 NA
ENDBRANCH  11  18
BRANCH  12  20
ATOM     20  S   UNL     1      -2.703   1.238  -0.550  0.00  0.00    -0.105 S 
BRANCH  20  21
ATOM     21  C   UNL     1      -3.853   2.620  -0.762  0.00  0.00    +0.074 C 
BRANCH  21  22
ATOM     22  C   UNL     1      -5.252   2.077  -1.060  0.00  0.00    -0.008 C 
BRANCH  22  23
ATOM     23  C   UNL     1      -6.224   3.245  -1.240  0.00  0.00    -0.079 C 
BRANCH  23  24
ATOM     24  N   UNL     1      -7.568   2.724  -1.526  0.00  0.00    +0.376 N 
ATOM     25  C   UNL     1      -8.571   3.796  -1.470  0.00  0.00    -0.097 C 
ATOM     26  C   UNL     1      -7.601   2.038  -2.825  0.00  0.00    -0.097 C 
ATOM     27  H   UNL     1      -7.817   1.987  -0.748  0.00  0.00    -0.083 HD
ENDBRANCH  23  24
ENDBRANCH  22  23
ENDBRANCH  21  22
ENDBRANCH  20  21
ENDBRANCH  12  20
TORSDOF 6
