REMARK  Name = ZINC11010510
REMARK  8 active torsions:
REMARK  status: ('A' for Active; 'I' for Inactive)
REMARK    1  A    between atoms: C_1  and  C_2
REMARK    2  A    between atoms: C_2  and  C_3
REMARK    3  A    between atoms: C_3  and  C_4
REMARK    4  A    between atoms: C_7  and  C_10
REMARK    5  A    between atoms: C_10  and  C_32
REMARK    6  A    between atoms: N_13  and  C_17
REMARK    7  A    between atoms: C_17  and  C_18
REMARK    8  A    between atoms: C_29  and  C_31
REMARK                            x       y       z     vdW  Elec       q    Type
REMARK                         _______ _______ _______ _____ _____    ______ ____
ROOT
ATOM      1  C   UNL     1       1.169   1.788  -0.151  0.00  0.00    +0.135 C 
ATOM      2  C   UNL     1       2.005   0.533   0.004  0.00  0.00    +0.251 C 
ATOM      3  O   UNL     1       3.190   0.468   0.253  0.00  0.00    -0.272 OA
ATOM      4  N   UNL     1       1.157  -0.496  -0.191  0.00  0.00    -0.215 N 
ATOM      5  C   UNL     1      -0.086  -0.070  -0.445  0.00  0.00    +0.310 C 
ATOM      6  O   UNL     1      -1.025  -0.813  -0.655  0.00  0.00    -0.252 OA
ATOM      7  N   UNL     1      -0.179   1.272  -0.444  0.00  0.00    -0.281 N 
ATOM      8  C   UNL     1       1.685   2.636  -1.315  0.00  0.00    +0.047 C 
ATOM      9  H   UNL     1      -0.978   1.797  -0.607  0.00  0.00    +0.152 HD
ENDROOT
BRANCH   1  13
ATOM     10  C   UNL     1       1.161   4.047   3.474  0.00  0.00    -0.047 A 
ATOM     11  C   UNL     1       0.035   4.021   2.673  0.00  0.00    +0.004 A 
ATOM     12  C   UNL     1       0.037   3.290   1.500  0.00  0.00    +0.006 A 
ATOM     13  C   UNL     1       1.167   2.585   1.127  0.00  0.00    -0.015 A 
ATOM     14  C   UNL     1       2.291   2.606   1.931  0.00  0.00    +0.006 A 
ATOM     15  C   UNL     1       2.290   3.342   3.102  0.00  0.00    +0.004 A 
BRANCH  10  16
ATOM     16  C   UNL     1       1.158   4.845   4.752  0.00  0.00    +0.035 C 
BRANCH  16  18
ATOM     17  C   UNL     1       0.670   4.771   7.202  0.00  0.00    +0.004 C 
ATOM     18  C   UNL     1       0.673   3.961   5.904  0.00  0.00    +0.001 C 
ENDBRANCH  16  18
ENDBRANCH  10  16
ENDBRANCH   1  13
BRANCH   4  19
ATOM     19  C   UNL     1       1.547  -1.907  -0.132  0.00  0.00    +0.214 C 
BRANCH  19  20
ATOM     20  C   UNL     1       1.973  -2.368  -1.502  0.00  0.00    +0.238 C 
ATOM     21  O   UNL     1       2.092  -1.564  -2.402  0.00  0.00    -0.273 OA
ATOM     22  N   UNL     1       2.223  -3.673  -1.726  0.00  0.00    -0.267 N 
ATOM     23  C   UNL     1       2.445  -4.143  -3.028  0.00  0.00    +0.040 A 
ATOM     24  C   UNL     1       2.134  -3.322  -4.106  0.00  0.00    +0.024 A 
ATOM     25  C   UNL     1       2.348  -3.764  -5.396  0.00  0.00    +0.002 A 
ATOM     26  C   UNL     1       2.872  -5.025  -5.614  0.00  0.00    +0.000 A 
ATOM     27  C   UNL     1       3.191  -5.841  -4.543  0.00  0.00    +0.005 A 
ATOM     28  C   UNL     1       2.973  -5.407  -3.246  0.00  0.00    -0.026 A 
ATOM     29  C   UNL     1       3.311  -6.327  -2.103  0.00  0.00    +0.039 C 
ATOM     30  C   UNL     1       3.487  -5.531  -0.809  0.00  0.00    +0.027 C 
ATOM     31  C   UNL     1       2.262  -4.629  -0.611  0.00  0.00    +0.079 C 
ATOM     32  C   UNL     1       2.383  -3.874   0.715  0.00  0.00    +0.028 C 
ENDBRANCH  19  20
ENDBRANCH   4  19
TORSDOF 5
