REMARK  Name = ZINC54927679
REMARK  6 active torsions:
REMARK  status: ('A' for Active; 'I' for Inactive)
REMARK    1  A    between atoms: C_1  and  C_2
REMARK    2  A    between atoms: C_2  and  C_22
REMARK    3  A    between atoms: N_9  and  C_10
REMARK    4  A    between atoms: N_9  and  C_11
REMARK    5  A    between atoms: C_11  and  C_12
REMARK    6  A    between atoms: C_18  and  O_21
REMARK                            x       y       z     vdW  Elec       q    Type
REMARK                         _______ _______ _______ _____ _____    ______ ____
ROOT
ATOM      1  C   UNL     1      -0.019   1.526   0.010  0.00  0.00    +0.011 C 
ATOM      2  C   UNL     1       0.002  -0.004   0.002  0.00  0.00    -0.027 C 
ATOM      3  C   UNL     1      -1.435  -0.531  -0.004  0.00  0.00    +0.063 C 
ATOM      4  C   UNL     1      -2.083  -0.194   1.331  0.00  0.00    +0.057 A 
ATOM      5  C   UNL     1      -1.321   0.122   2.409  0.00  0.00    +0.043 A 
ATOM      6  S   UNL     1      -2.533   0.419   3.666  0.00  0.00    -0.054 S 
ATOM      7  C   UNL     1      -3.901   0.119   2.728  0.00  0.00    +0.161 A 
ATOM      8  N   UNL     1      -3.396  -0.181   1.551  0.00  0.00    -0.229 NA
ATOM      9  N   UNL     1      -5.233   0.173   3.106  0.00  0.00    -0.308 N 
ATOM     10  C   UNL     1      -6.284  -0.127   2.131  0.00  0.00    +0.131 C 
ATOM     11  C   UNL     1       0.166   0.193   2.484  0.00  0.00    +0.153 C 
ATOM     12  C   UNL     1       0.743  -0.509   1.243  0.00  0.00    +0.043 C 
ATOM     13  C   UNL     1       0.725  -0.495  -1.254  0.00  0.00    +0.011 C 
ENDROOT
BRANCH  11  14
ATOM     14  O   UNL     1       0.621  -0.468   3.667  0.00  0.00    -0.387 OA
ATOM     15  H   UNL     1       0.278  -0.088   4.487  0.00  0.00    +0.210 HD
ENDBRANCH  11  14
BRANCH   9  16
ATOM     16  C   UNL     1      -5.590   0.531   4.481  0.00  0.00    +0.149 C 
BRANCH  16  17
ATOM     17  C   UNL     1      -5.762   2.025   4.582  0.00  0.00    +0.008 A 
ATOM     18  C   UNL     1      -6.880   2.770   4.406  0.00  0.00    +0.014 A 
ATOM     19  C   UNL     1      -6.802   4.143   4.551  0.00  0.00    +0.028 A 
ATOM     20  C   UNL     1      -5.607   4.703   4.866  0.00  0.00    +0.078 A 
ATOM     21  S   UNL     1      -4.545   3.272   4.974  0.00  0.00    -0.080 S 
ATOM     22 CL   UNL     1      -5.215   6.377   5.107  0.00  0.00    -0.076 Cl
ENDBRANCH  16  17
ENDBRANCH   9  16
TORSDOF 3
