REMARK  Name = ZINC40226369
REMARK  2 active torsions:
REMARK  status: ('A' for Active; 'I' for Inactive)
REMARK    1  A    between atoms: C_6  and  N_7
REMARK    2  A    between atoms: N_7  and  C_8
REMARK                            x       y       z     vdW  Elec       q    Type
REMARK                         _______ _______ _______ _____ _____    ______ ____
ROOT
ATOM      1  N   UNL     1      -1.200  -0.720   0.010  0.00  0.00    -0.337 N 
ATOM      2  H   UNL     1      -1.187  -1.690   0.004  0.00  0.00    +0.147 HD
ENDROOT
BRANCH   1   3
ATOM      3  C   UNL     1      -2.478  -0.005   0.026  0.00  0.00    +0.101 C 
ATOM      4  C   UNL     1      -3.588  -0.904   0.612  0.00  0.00    +0.031 C 
ATOM      5  C   UNL     1      -4.178  -1.567  -0.651  0.00  0.00    +0.037 C 
ATOM      6  C   UNL     1      -3.902  -0.593  -1.776  0.00  0.00    -0.041 A 
ATOM      7  C   UNL     1      -2.924   0.307  -1.387  0.00  0.00    -0.024 A 
ATOM      8  C   UNL     1      -2.507   1.296  -2.261  0.00  0.00    +0.007 A 
ATOM      9  C   UNL     1      -3.063   1.390  -3.522  0.00  0.00    +0.015 A 
ATOM     10  C   UNL     1      -4.040   0.493  -3.913  0.00  0.00    +0.018 A 
ATOM     11  C   UNL     1      -4.461  -0.499  -3.039  0.00  0.00    +0.019 A 
ATOM     12 BR   UNL     1      -4.804   0.619  -5.638  0.00  0.00    -0.050 Br
ENDBRANCH   1   3
BRANCH   1  18
ATOM     13  C   UNL     1      -0.017   1.384   0.010  0.00  0.00    +0.027 A 
ATOM     14  C   UNL     1       1.170   2.093   0.002  0.00  0.00    +0.051 A 
ATOM     15  C   UNL     1       2.381   1.421  -0.013  0.00  0.00    +0.166 A 
ATOM     16  C   UNL     1       2.403   0.028  -0.021  0.00  0.00    +0.168 A 
ATOM     17  C   UNL     1       1.214  -0.682  -0.013  0.00  0.00    +0.072 A 
ATOM     18  C   UNL     1       0.002  -0.004   0.002  0.00  0.00    +0.031 A 
ATOM     19  O   UNL     1       3.703  -0.388  -0.036  0.00  0.00    -0.453 OA
ATOM     20  C   UNL     1       4.469   0.759  -0.450  0.00  0.00    +0.466 C 
ATOM     21  O   UNL     1       3.669   1.877  -0.023  0.00  0.00    -0.453 OA
ENDBRANCH   1  18
TORSDOF 2
