REMARK  Name = ZINC20881986
REMARK  8 active torsions:
REMARK  status: ('A' for Active; 'I' for Inactive)
REMARK    1  A    between atoms: C_1  and  C_2
REMARK    2  A    between atoms: C_2  and  C_3
REMARK    3  A    between atoms: C_2  and  O_4
REMARK    4  A    between atoms: O_4  and  C_5
REMARK    5  A    between atoms: C_6  and  C_13
REMARK    6  A    between atoms: C_10  and  O_11
REMARK    7  A    between atoms: O_11  and  C_12
REMARK    8  A    between atoms: C_18  and  C_23
REMARK                            x       y       z     vdW  Elec       q    Type
REMARK                         _______ _______ _______ _____ _____    ______ ____
ROOT
ATOM      1  C   UNL     1       2.219   0.515  -3.461  0.00  0.00    +0.140 C 
ATOM      2  C   UNL     1       1.477   0.937  -2.214  0.00  0.00    +0.037 C 
ATOM      3  C   UNL     1       0.155   1.149  -2.118  0.00  0.00    +0.017 C 
ATOM      4  C   UNL     1      -0.459   1.598  -0.802  0.00  0.00    +0.059 C 
ATOM      5  C   UNL     1       0.323   1.001   0.367  0.00  0.00    +0.032 C 
ATOM      6  C   UNL     1       1.771   1.494   0.260  0.00  0.00    +0.088 C 
ATOM      7  C   UNL     1       2.311   1.106  -1.083  0.00  0.00    +0.163 C 
ATOM      8  O   UNL     1       3.507   0.929  -1.205  0.00  0.00    -0.292 OA
ATOM      9  N   UNL     1      -0.733   0.997  -3.134  0.00  0.00    -0.316 N 
ATOM     10  C   UNL     1      -0.556   1.493  -4.421  0.00  0.00    +0.052 A 
ATOM     11  C   UNL     1      -1.381   2.466  -4.958  0.00  0.00    +0.025 A 
ATOM     12  C   UNL     1      -1.178   2.883  -6.262  0.00  0.00    +0.002 A 
ATOM     13  C   UNL     1      -0.163   2.330  -7.022  0.00  0.00    +0.002 A 
ATOM     14  C   UNL     1       0.673   1.369  -6.480  0.00  0.00    +0.025 A 
ATOM     15  C   UNL     1       0.485   0.965  -5.168  0.00  0.00    +0.049 A 
ATOM     16  N   UNL     1       1.366   0.081  -4.547  0.00  0.00    -0.331 N 
ATOM     17  H   UNL     1      -1.671   0.448  -2.967  0.00  0.00    +0.152 HD
ATOM     18  H   UNL     1       1.406  -0.961  -4.895  0.00  0.00    +0.147 HD
ENDROOT
BRANCH   1  20
ATOM     19  C   UNL     1       4.432   1.614  -3.874  0.00  0.00    +0.168 A 
ATOM     20  C   UNL     1       3.050   1.677  -3.940  0.00  0.00    +0.023 A 
ATOM     21  C   UNL     1       2.432   2.808  -4.440  0.00  0.00    +0.009 A 
ATOM     22  C   UNL     1       3.192   3.876  -4.880  0.00  0.00    +0.004 A 
ATOM     23  C   UNL     1       4.572   3.818  -4.823  0.00  0.00    +0.049 A 
ATOM     24  C   UNL     1       5.197   2.687  -4.323  0.00  0.00    +0.162 A 
BRANCH  24  25
ATOM     25  O   UNL     1       6.554   2.628  -4.265  0.00  0.00    -0.491 OA
ATOM     26  C   UNL     1       7.274   3.768  -4.737  0.00  0.00    +0.277 C 
ENDBRANCH  24  25
BRANCH  19  27
ATOM     27  O   UNL     1       5.041   0.504  -3.377  0.00  0.00    -0.485 OA
BRANCH  27  29
ATOM     28  C   UNL     1       6.669  -1.249  -3.718  0.00  0.00    +0.051 C 
ATOM     29  C   UNL     1       5.507  -0.459  -4.324  0.00  0.00    +0.168 C 
ATOM     30  C   UNL     1       4.369  -1.418  -4.678  0.00  0.00    +0.051 C 
ENDBRANCH  27  29
ENDBRANCH  19  27
ENDBRANCH   1  20
BRANCH   5  31
ATOM     31  C   UNL     1      -0.278   1.458   1.671  0.00  0.00    -0.044 A 
ATOM     32  C   UNL     1      -0.348   2.807   1.965  0.00  0.00    +0.004 A 
ATOM     33  C   UNL     1      -0.903   3.227   3.159  0.00  0.00    +0.000 A 
ATOM     34  C   UNL     1      -1.379   2.297   4.064  0.00  0.00    +0.000 A 
ATOM     35  C   UNL     1      -1.304   0.947   3.773  0.00  0.00    +0.000 A 
ATOM     36  C   UNL     1      -0.754   0.528   2.576  0.00  0.00    +0.004 A 
ENDBRANCH   5  31
TORSDOF 5
