REMARK  Name = ZINC67051445
REMARK  6 active torsions:
REMARK  status: ('A' for Active; 'I' for Inactive)
REMARK    1  A    between atoms: C_1  and  C_2
REMARK    2  A    between atoms: C_8  and  C_16
REMARK    3  A    between atoms: N_18  and  C_19
REMARK    4  A    between atoms: C_19  and  C_20
REMARK    5  A    between atoms: C_20  and  C_21
REMARK    6  A    between atoms: N_25  and  C_26
REMARK                            x       y       z     vdW  Elec       q    Type
REMARK                         _______ _______ _______ _____ _____    ______ ____
ROOT
ATOM      1  C   UNL     1      -0.018   1.503   0.010  0.00  0.00    +0.044 C 
ATOM      2  C   UNL     1       0.002  -0.004   0.002  0.00  0.00    -0.050 A 
ATOM      3  C   UNL     1       0.006  -0.685  -1.214  0.00  0.00    +0.005 A 
ATOM      4  C   UNL     1       0.024  -2.045  -1.256  0.00  0.00    +0.028 A 
ATOM      5  C   UNL     1       0.039  -2.781  -0.057  0.00  0.00    +0.072 A 
ATOM      6  C   UNL     1       0.037  -2.084   1.177  0.00  0.00    +0.013 A 
ATOM      7  C   UNL     1       0.022  -0.683   1.183  0.00  0.00    +0.014 A 
ATOM      8  C   UNL     1       0.055  -2.832   2.378  0.00  0.00    +0.051 A 
ATOM      9  C   UNL     1       0.071  -4.224   2.289  0.00  0.00    -0.013 A 
ATOM     10  C   UNL     1       0.067  -4.832   1.041  0.00  0.00    +0.046 A 
ATOM     11  N   UNL     1       0.055  -4.112  -0.065  0.00  0.00    -0.251 NA
ATOM     12  C   UNL     1       0.067  -6.332   0.883  0.00  0.00    +0.056 C 
ATOM     13  C   UNL     1       0.519  -7.009   2.175  0.00  0.00    +0.006 C 
ATOM     14  C   UNL     1      -0.319  -6.454   3.332  0.00  0.00    +0.005 C 
ATOM     15  C   UNL     1       0.097  -5.005   3.576  0.00  0.00    +0.038 C 
ENDROOT
BRANCH   8  16
ATOM     16  C   UNL     1       0.058  -2.156   3.693  0.00  0.00    +0.245 C 
ATOM     17  O   UNL     1      -0.993  -1.890   4.242  0.00  0.00    -0.270 OA
ATOM     18  N   UNL     1       1.226  -1.834   4.283  0.00  0.00    -0.311 N 
ATOM     19  H   UNL     1       2.066  -2.046   3.845  0.00  0.00    +0.149 HD
BRANCH  18  20
ATOM     20  C   UNL     1       1.229  -1.164   5.585  0.00  0.00    +0.112 C 
BRANCH  20  21
ATOM     21  C   UNL     1       2.673  -0.914   6.027  0.00  0.00    +0.095 C 
BRANCH  21  22
ATOM     22  C   UNL     1       2.676  -0.225   7.367  0.00  0.00    +0.133 A 
ATOM     23  N   UNL     1       1.625   0.102   8.048  0.00  0.00    -0.159 NA
ATOM     24  N   UNL     1       2.047   0.721   9.233  0.00  0.00    -0.254 N 
ATOM     25  C   UNL     1       3.397   0.741   9.216  0.00  0.00    +0.175 A 
ATOM     26  N   UNL     1       3.794   0.153   8.069  0.00  0.00    -0.310 N 
ATOM     27  C   UNL     1       5.181  -0.045   7.643  0.00  0.00    +0.152 C 
ATOM     28  S   UNL     1       4.417   1.387  10.429  0.00  0.00    -0.011 S 
ATOM     29  H   UNL     1       1.476   1.070   9.935  0.00  0.00    +0.191 HD
ENDBRANCH  21  22
ENDBRANCH  20  21
ENDBRANCH  18  20
ENDBRANCH   8  16
TORSDOF 4
