REMARK  Name = ZINC56362664
REMARK  3 active torsions:
REMARK  status: ('A' for Active; 'I' for Inactive)
REMARK    1  A    between atoms: C_1  and  C_2
REMARK    2  A    between atoms: C_14  and  C_16
REMARK    3  A    between atoms: C_17  and  C_18
REMARK                            x       y       z     vdW  Elec       q    Type
REMARK                         _______ _______ _______ _____ _____    ______ ____
ROOT
ATOM      1  C   UNL     1      -1.865   0.239   0.355  0.00  0.00    +0.066 C 
ATOM      2  C   UNL     1      -1.936  -1.231   0.682  0.00  0.00    +0.047 A 
ATOM      3  C   UNL     1      -2.313  -2.144  -0.245  0.00  0.00    +0.071 A 
ATOM      4  S   UNL     1      -2.204  -3.650   0.708  0.00  0.00    -0.060 S 
ATOM      5  C   UNL     1      -1.699  -2.971   2.162  0.00  0.00    +0.161 A 
ATOM      6  N   UNL     1      -1.629  -1.686   1.884  0.00  0.00    -0.230 NA
ATOM      7  N   UNL     1      -1.419  -3.609   3.360  0.00  0.00    -0.308 N 
ATOM      8  C   UNL     1      -1.560  -5.072   3.422  0.00  0.00    +0.108 C 
ATOM      9  C   UNL     1      -0.405  -5.743   4.169  0.00  0.00    +0.038 C 
ATOM     10  C   UNL     1       0.913  -5.097   3.792  0.00  0.00    +0.109 C 
ATOM     11  N   UNL     1       1.119  -3.945   4.670  0.00  0.00    -0.296 N 
ATOM     12  C   UNL     1       0.547  -2.661   4.462  0.00  0.00    +0.127 C 
ATOM     13  C   UNL     1      -0.994  -2.801   4.490  0.00  0.00    +0.126 C 
ATOM     14  C   UNL     1       1.906  -4.114   5.752  0.00  0.00    +0.239 C 
ATOM     15  O   UNL     1       2.328  -5.220   6.031  0.00  0.00    -0.271 OA
ENDROOT
BRANCH  14  16
ATOM     16  C   UNL     1       2.252  -2.966   6.590  0.00  0.00    +0.068 C 
ATOM     17  C   UNL     1       3.142  -3.109   7.597  0.00  0.00    +0.015 C 
BRANCH  17  18
ATOM     18  C   UNL     1       3.909  -4.353   7.727  0.00  0.00    +0.001 A 
ATOM     19  C   UNL     1       4.503  -4.941   6.614  0.00  0.00    +0.010 A 
ATOM     20  C   UNL     1       5.228  -6.116   6.739  0.00  0.00    +0.001 A 
ATOM     21  C   UNL     1       5.386  -6.737   7.941  0.00  0.00    +0.010 A 
ATOM     22  C   UNL     1       4.814  -6.200   9.105  0.00  0.00    +0.001 A 
ATOM     23  C   UNL     1       4.069  -4.998   9.031  0.00  0.00    +0.078 A 
ATOM     24  N   UNL     1       3.527  -4.479  10.131  0.00  0.00    -0.254 NA
ATOM     25  C   UNL     1       3.671  -5.058  11.301  0.00  0.00    +0.111 A 
ATOM     26  C   UNL     1       4.395  -6.238  11.448  0.00  0.00    +0.020 A 
ATOM     27  C   UNL     1       4.967  -6.828  10.356  0.00  0.00    +0.011 A 
ENDBRANCH  17  18
ENDBRANCH  14  16
TORSDOF 2
