REMARK  Name = ZINC19637005
REMARK  8 active torsions:
REMARK  status: ('A' for Active; 'I' for Inactive)
REMARK    1  A    between atoms: C_1  and  C_2
REMARK    2  A    between atoms: C_2  and  C_3
REMARK    3  A    between atoms: C_3  and  C_5
REMARK    4  A    between atoms: C_3  and  N_15
REMARK    5  A    between atoms: C_16  and  C_18
REMARK    6  A    between atoms: C_20  and  C_28
REMARK    7  A    between atoms: N_30  and  C_34
REMARK    8  A    between atoms: C_32  and  C_33
REMARK                            x       y       z     vdW  Elec       q    Type
REMARK                         _______ _______ _______ _____ _____    ______ ____
ROOT
ATOM      1  N   UNL     1      -3.681  -0.870  -0.070  0.00  0.00    -0.308 N 
ATOM      2  C   UNL     1      -2.560  -0.128   0.025  0.00  0.00    +0.245 C 
ATOM      3  O   UNL     1      -2.637   1.081   0.124  0.00  0.00    -0.270 OA
ATOM      4  H   UNL     1      -3.611  -1.964  -0.160  0.00  0.00    +0.149 HD
ENDROOT
BRANCH   2   5
ATOM      5  C   UNL     1      -1.235  -0.785   0.009  0.00  0.00    +0.048 A 
ATOM      6  C   UNL     1      -1.115  -2.167   0.015  0.00  0.00    +0.042 A 
ATOM      7  C   UNL     1       0.162  -2.749  -0.001  0.00  0.00    +0.076 A 
ATOM      8  N   UNL     1       1.263  -2.026  -0.022  0.00  0.00    -0.247 NA
ATOM      9  C   UNL     1       1.241  -0.692  -0.029  0.00  0.00    +0.072 A 
ATOM     10  C   UNL     1       0.002  -0.004  -0.014  0.00  0.00    +0.013 A 
ATOM     11  C   UNL     1      -0.017   1.395  -0.023  0.00  0.00    +0.011 A 
ATOM     12  C   UNL     1       1.159   2.084  -0.046  0.00  0.00    +0.001 A 
ATOM     13  C   UNL     1       2.379   1.413  -0.059  0.00  0.00    +0.002 A 
ATOM     14  C   UNL     1       2.434   0.053  -0.052  0.00  0.00    +0.028 A 
BRANCH   7  15
ATOM     15  C   UNL     1       0.276  -4.226   0.006  0.00  0.00    +0.041 A 
ATOM     16  C   UNL     1      -0.760  -5.116   0.026  0.00  0.00    +0.118 A 
ATOM     17  N   UNL     1      -0.233  -6.355   0.026  0.00  0.00    -0.274 N 
ATOM     18  N   UNL     1       1.162  -6.239   0.005  0.00  0.00    -0.176 NA
ATOM     19  C   UNL     1       1.473  -4.970  -0.013  0.00  0.00    +0.069 A 
ATOM     20  C   UNL     1       2.869  -4.402  -0.043  0.00  0.00    +0.068 C 
ATOM     21  C   UNL     1      -0.989  -7.610   0.045  0.00  0.00    +0.172 C 
ENDBRANCH   7  15
ENDBRANCH   2   5
BRANCH   1  22
ATOM     22  C   UNL     1      -4.994  -0.219  -0.054  0.00  0.00    +0.079 C 
BRANCH  22  23
ATOM     23  C   UNL     1      -6.048  -1.209   0.443  0.00  0.00    -0.010 C 
ATOM     24  C   UNL     1      -6.091  -2.420  -0.491  0.00  0.00    +0.012 C 
ATOM     25  C   UNL     1      -7.146  -3.411   0.007  0.00  0.00    -0.010 C 
ATOM     26  C   UNL     1      -6.787  -3.870   1.422  0.00  0.00    +0.007 C 
ATOM     27  C   UNL     1      -6.744  -2.658   2.356  0.00  0.00    -0.010 C 
ATOM     28  C   UNL     1      -5.689  -1.668   1.858  0.00  0.00    +0.012 C 
ATOM     29  C   UNL     1      -8.115  -1.978   2.372  0.00  0.00    +0.007 C 
ATOM     30  C   UNL     1      -8.473  -1.520   0.957  0.00  0.00    -0.010 C 
ATOM     31  C   UNL     1      -8.516  -2.731   0.024  0.00  0.00    +0.007 C 
ATOM     32  C   UNL     1      -7.419  -0.529   0.460  0.00  0.00    +0.012 C 
ENDBRANCH  22  23
BRANCH  22  34
ATOM     33  C   UNL     1      -4.369   1.323  -1.919  0.00  0.00    +0.006 C 
ATOM     34  C   UNL     1      -5.352   0.240  -1.469  0.00  0.00    +0.019 C 
ENDBRANCH  22  34
ENDBRANCH   1  22
TORSDOF 5
