REMARK  Name = ZINC05324966
REMARK  8 active torsions:
REMARK  status: ('A' for Active; 'I' for Inactive)
REMARK    1  A    between atoms: C_1  and  C_2
REMARK    2  A    between atoms: C_2  and  C_3
REMARK    3  A    between atoms: C_2  and  C_4
REMARK    4  A    between atoms: C_2  and  O_5
REMARK    5  A    between atoms: O_5  and  C_6
REMARK    6  A    between atoms: C_11  and  C_14
REMARK    7  A    between atoms: C_14  and  O_16
REMARK    8  A    between atoms: O_16  and  C_17
REMARK                            x       y       z     vdW  Elec       q    Type
REMARK                         _______ _______ _______ _____ _____    ______ ____
ROOT
ATOM      1  C   UNL     1      -0.011   1.338   0.055  0.00  0.00    +0.316 C 
ATOM      2  O   UNL     1      -1.061   1.928   0.149  0.00  0.00    -0.250 OA
ENDROOT
BRANCH   1   8
ATOM      3  C   UNL     1       3.799   4.753   1.874  0.00  0.00    +0.403 C 
ATOM      4  O   UNL     1       3.557   5.941   1.806  0.00  0.00    -0.226 OA
ATOM      5  N   UNL     1       3.224   3.897   1.006  0.00  0.00    -0.267 N 
ATOM      6  C   UNL     1       2.303   4.387  -0.029  0.00  0.00    +0.112 C 
ATOM      7  C   UNL     1       0.989   3.607   0.071  0.00  0.00    +0.034 C 
ATOM      8  C   UNL     1       1.283   2.107  -0.009  0.00  0.00    +0.101 C 
ATOM      9  C   UNL     1       2.178   1.698   1.164  0.00  0.00    +0.034 C 
ATOM     10  C   UNL     1       3.506   2.457   1.076  0.00  0.00    +0.112 C 
BRANCH   3  11
ATOM     11  O   UNL     1       4.640   4.290   2.818  0.00  0.00    -0.445 OA
BRANCH  11  13
ATOM     12  C   UNL     1       4.107   5.987   4.480  0.00  0.00    +0.055 C 
ATOM     13  C   UNL     1       5.223   5.268   3.719  0.00  0.00    +0.107 C 
ATOM     14  C   UNL     1       6.144   4.560   4.714  0.00  0.00    +0.055 C 
ATOM     15  C   UNL     1       6.029   6.288   2.913  0.00  0.00    +0.055 C 
ENDBRANCH  11  13
ENDBRANCH   3  11
ENDBRANCH   1   8
BRANCH   1  16
ATOM     16  O   UNL     1       0.002  -0.004   0.002  0.00  0.00    -0.426 OA
BRANCH  16  17
ATOM     17  C   UNL     1      -1.194  -0.637   0.116  0.00  0.00    +0.135 A 
ATOM     18  C   UNL     1      -2.061  -0.678  -0.975  0.00  0.00    +0.047 A 
ATOM     19  C   UNL     1      -3.266  -1.310  -0.877  0.00  0.00    +0.015 A 
ATOM     20  C   UNL     1      -3.634  -1.923   0.327  0.00  0.00    +0.018 A 
ATOM     21  C   UNL     1      -4.921  -2.608   0.461  0.00  0.00    +0.018 A 
ATOM     22  C   UNL     1      -5.221  -3.182   1.655  0.00  0.00    +0.092 A 
ATOM     23  C   UNL     1      -4.300  -3.106   2.721  0.00  0.00    +0.337 A 
ATOM     24  O   UNL     1      -4.581  -3.625   3.786  0.00  0.00    -0.245 OA
ATOM     25  O   UNL     1      -3.122  -2.477   2.591  0.00  0.00    -0.422 OA
ATOM     26  C   UNL     1      -2.763  -1.885   1.431  0.00  0.00    +0.143 A 
ATOM     27  C   UNL     1      -1.539  -1.243   1.312  0.00  0.00    +0.093 A 
ENDBRANCH  16  17
ENDBRANCH   1  16
TORSDOF 5
