REMARK  Name = ZINC27449962
REMARK  16 active torsions:
REMARK  status: ('A' for Active; 'I' for Inactive)
REMARK    1  A    between atoms: C_1  and  C_2
REMARK    2  A    between atoms: C_2  and  C_3
REMARK    3  A    between atoms: C_2  and  C_4
REMARK    4  A    between atoms: C_4  and  N_5
REMARK    5  A    between atoms: C_6  and  N_36
REMARK    6  A    between atoms: C_7  and  N_14
REMARK    7  A    between atoms: N_14  and  C_15
REMARK    8  A    between atoms: C_15  and  C_16
REMARK    9  A    between atoms: C_16  and  C_17
REMARK   10  A    between atoms: C_16  and  C_18
REMARK   11  A    between atoms: C_19  and  C_21
REMARK   12  A    between atoms: C_21  and  C_22
REMARK   13  A    between atoms: C_22  and  C_23
REMARK   14  A    between atoms: C_26  and  C_28
REMARK   15  A    between atoms: C_31  and  O_34
REMARK   16  A    between atoms: O_34  and  C_35
REMARK                            x       y       z     vdW  Elec       q    Type
REMARK                         _______ _______ _______ _____ _____    ______ ____
ROOT
ATOM      1  N   UNL     1      -3.740   3.228   2.921  0.00  0.00    -0.264 N 
ATOM      2  C   UNL     1      -3.384   2.657   1.752  0.00  0.00    +0.220 C 
ATOM      3  O   UNL     1      -4.110   2.753   0.784  0.00  0.00    -0.275 OA
ENDROOT
BRANCH   1   6
ATOM      4  N   UNL     1      -6.194   5.894   2.313  0.00  0.00    -0.280 N 
ATOM      5  C   UNL     1      -5.043   5.147   2.218  0.00  0.00    +0.127 A 
ATOM      6  C   UNL     1      -4.908   4.015   2.996  0.00  0.00    +0.140 A 
ATOM      7  C   UNL     1      -5.960   3.656   3.860  0.00  0.00    +0.277 A 
ATOM      8  O   UNL     1      -5.870   2.658   4.555  0.00  0.00    -0.266 OA
ATOM      9  N   UNL     1      -7.064   4.426   3.919  0.00  0.00    -0.273 N 
ATOM     10  H   UNL     1      -7.886   4.157   4.599  0.00  0.00    +0.173 HD
ATOM     11  C   UNL     1      -7.177   5.526   3.154  0.00  0.00    +0.331 A 
ATOM     12  O   UNL     1      -8.187   6.200   3.223  0.00  0.00    -0.246 OA
BRANCH   5  13
ATOM     13  N   UNL     1      -4.038   5.524   1.359  0.00  0.00    -0.343 N 
ATOM     14  H   UNL     1      -3.120   4.921   1.289  0.00  0.00    +0.144 HD
ATOM     15  H   UNL     1      -4.151   6.427   0.743  0.00  0.00    +0.144 HD
ENDBRANCH   5  13
BRANCH   4  16
ATOM     16  C   UNL     1      -6.350   7.098   1.493  0.00  0.00    +0.131 C 
BRANCH  16  18
ATOM     17  C   UNL     1      -8.425   6.221   0.413  0.00  0.00    +0.009 C 
ATOM     18  C   UNL     1      -7.003   6.726   0.160  0.00  0.00    +0.003 C 
ATOM     19  C   UNL     1      -7.053   7.959  -0.745  0.00  0.00    +0.009 C 
ENDBRANCH  16  18
ENDBRANCH   4  16
ENDBRANCH   1   6
BRANCH   1  20
ATOM     20  C   UNL     1      -2.913   3.030   4.114  0.00  0.00    +0.117 C 
BRANCH  20  21
ATOM     21  C   UNL     1      -1.798   4.077   4.141  0.00  0.00    +0.001 C 
ATOM     22  C   UNL     1      -2.410   5.469   4.308  0.00  0.00    +0.009 C 
ATOM     23  C   UNL     1      -0.857   3.790   5.313  0.00  0.00    +0.009 C 
ENDBRANCH  20  21
ENDBRANCH   1  20
BRANCH   2  24
ATOM     24  C   UNL     1      -2.085   1.900   1.647  0.00  0.00    +0.104 C 
BRANCH  24  25
ATOM     25  C   UNL     1      -1.924   1.358   0.225  0.00  0.00    +0.083 C 
BRANCH  25  26
ATOM     26  C   UNL     1      -0.625   0.601   0.120  0.00  0.00    +0.106 A 
ATOM     27  C   UNL     1      -0.461  -0.714   0.359  0.00  0.00    +0.045 A 
ATOM     28  C   UNL     1       0.901  -1.007   0.139  0.00  0.00    +0.050 A 
ATOM     29  C   UNL     1       1.498   0.159  -0.226  0.00  0.00    +0.135 A 
ATOM     30  O   UNL     1       0.560   1.126  -0.233  0.00  0.00    -0.460 OA
BRANCH  29  31
ATOM     31  C   UNL     1       2.927   0.334  -0.556  0.00  0.00    +0.017 A 
ATOM     32  C   UNL     1       3.797  -0.757  -0.504  0.00  0.00    +0.015 A 
ATOM     33  C   UNL     1       5.129  -0.590  -0.818  0.00  0.00    +0.046 A 
ATOM     34  C   UNL     1       5.608   0.663  -1.177  0.00  0.00    +0.120 A 
ATOM     35  C   UNL     1       4.747   1.752  -1.225  0.00  0.00    +0.046 A 
ATOM     36  C   UNL     1       3.413   1.593  -0.917  0.00  0.00    +0.015 A 
BRANCH  34  37
ATOM     37  O   UNL     1       6.922   0.825  -1.482  0.00  0.00    -0.495 OA
ATOM     38  C   UNL     1       7.752  -0.337  -1.412  0.00  0.00    +0.277 C 
ENDBRANCH  34  37
ENDBRANCH  29  31
ENDBRANCH  25  26
ENDBRANCH  24  25
ENDBRANCH   2  24
TORSDOF 11
