REMARK  Name = ZINC36773341
REMARK  10 active torsions:
REMARK  status: ('A' for Active; 'I' for Inactive)
REMARK    1  A    between atoms: C_1  and  C_2
REMARK    2  A    between atoms: C_4  and  C_30
REMARK    3  A    between atoms: C_5  and  N_9
REMARK    4  A    between atoms: C_6  and  C_8
REMARK    5  A    between atoms: C_10  and  C_12
REMARK    6  A    between atoms: C_12  and  S_13
REMARK    7  A    between atoms: S_13  and  C_14
REMARK    8  A    between atoms: N_19  and  C_20
REMARK    9  A    between atoms: C_23  and  S_26
REMARK   10  A    between atoms: S_26  and  C_27
REMARK                            x       y       z     vdW  Elec       q    Type
REMARK                         _______ _______ _______ _____ _____    ______ ____
ROOT
ATOM      1  C   UNL     1      -0.010  -9.002   2.675  0.00  0.00    +0.160 A 
ATOM      2  N   UNL     1      -0.248  -9.684   1.571  0.00  0.00    -0.133 NA
ATOM      3  N   UNL     1      -0.628 -11.004   1.651  0.00  0.00    -0.125 NA
ATOM      4  C   UNL     1      -0.753 -11.581   2.830  0.00  0.00    +0.187 A 
ATOM      5  S   UNL     1      -0.315 -10.240   3.926  0.00  0.00    -0.024 S 
ATOM      6  N   UNL     1      -1.121 -12.886   3.138  0.00  0.00    -0.292 N 
ATOM      7  H   UNL     1      -1.250 -13.148   4.063  0.00  0.00    +0.154 HD
ENDROOT
BRANCH   6   8
ATOM      8  C   UNL     1      -1.304 -13.822   2.113  0.00  0.00    +0.033 A 
ATOM      9  C   UNL     1      -2.139 -14.914   2.311  0.00  0.00    +0.024 A 
ATOM     10  C   UNL     1      -2.321 -15.837   1.300  0.00  0.00    +0.017 A 
ATOM     11  C   UNL     1      -1.668 -15.673   0.085  0.00  0.00    +0.013 A 
ATOM     12  C   UNL     1      -0.833 -14.580  -0.114  0.00  0.00    +0.017 A 
ATOM     13  C   UNL     1      -0.656 -13.655   0.896  0.00  0.00    +0.024 A 
BRANCH  11  14
ATOM     14  S   UNL     1      -1.898 -16.851  -1.205  0.00  0.00    -0.056 S 
BRANCH  14  15
ATOM     15  C   UNL     1      -0.868 -16.225  -2.561  0.00  0.00    +0.404 C 
ATOM     16  F   UNL     1      -1.306 -14.948  -2.928  0.00  0.00    -0.197 F 
ATOM     17  F   UNL     1       0.465 -16.158  -2.140  0.00  0.00    -0.197 F 
ENDBRANCH  14  15
ENDBRANCH  11  14
ENDBRANCH   6   8
BRANCH   1  18
ATOM     18  S   UNL     1       0.485  -7.322   2.865  0.00  0.00    -0.088 S 
BRANCH  18  19
ATOM     19  C   UNL     1       0.592  -6.701   1.163  0.00  0.00    +0.172 C 
BRANCH  19  21
ATOM     20  N   UNL     1       1.158  -4.580   0.024  0.00  0.00    -0.284 N 
ATOM     21  C   UNL     1       1.012  -5.254   1.182  0.00  0.00    +0.227 C 
ATOM     22  O   UNL     1       1.219  -4.696   2.239  0.00  0.00    -0.275 OA
ATOM     23  H   UNL     1       1.072  -5.046  -0.822  0.00  0.00    +0.155 HD
BRANCH  20  28
ATOM     24  C   UNL     1       2.277   0.981   0.100  0.00  0.00    +0.044 C 
ATOM     25  C   UNL     1       1.979  -0.496   0.080  0.00  0.00    -0.050 A 
ATOM     26  C   UNL     1       2.816  -1.377   0.740  0.00  0.00    +0.008 A 
ATOM     27  C   UNL     1       2.547  -2.732   0.723  0.00  0.00    -0.029 A 
ATOM     28  C   UNL     1       1.434  -3.208   0.043  0.00  0.00    +0.039 A 
ATOM     29  C   UNL     1       0.595  -2.321  -0.618  0.00  0.00    -0.029 A 
ATOM     30  C   UNL     1       0.867  -0.967  -0.593  0.00  0.00    +0.008 A 
ATOM     31  C   UNL     1      -0.614  -2.834  -1.357  0.00  0.00    +0.045 C 
ATOM     32  C   UNL     1       3.460  -3.691   1.442  0.00  0.00    +0.045 C 
ENDBRANCH  20  28
ENDBRANCH  19  21
ENDBRANCH  18  19
ENDBRANCH   1  18
TORSDOF 7
