REMARK  Name = ZINC06717804
REMARK  8 active torsions:
REMARK  status: ('A' for Active; 'I' for Inactive)
REMARK    1  A    between atoms: C_1  and  C_2
REMARK    2  A    between atoms: C_9  and  C_11
REMARK    3  A    between atoms: C_14  and  C_16
REMARK    4  A    between atoms: C_16  and  C_18
REMARK    5  A    between atoms: C_16  and  N_29
REMARK    6  A    between atoms: C_18  and  C_19
REMARK    7  A    between atoms: C_30  and  C_32
REMARK    8  A    between atoms: C_35  and  N_38
REMARK                            x       y       z     vdW  Elec       q    Type
REMARK                         _______ _______ _______ _____ _____    ______ ____
ROOT
ATOM      1  C   UNL     1       1.113   3.617  -0.035  0.00  0.00    +0.164 C 
ENDROOT
BRANCH   1  11
ATOM      2  C   UNL     1       4.379   7.939  -2.935  0.00  0.00    +0.029 C 
ATOM      3  C   UNL     1       3.205   7.085  -2.451  0.00  0.00    +0.090 C 
ATOM      4  C   UNL     1       3.661   6.197  -1.287  0.00  0.00    +0.130 C 
ATOM      5  N   UNL     1       2.475   5.581  -0.674  0.00  0.00    -0.297 N 
ATOM      6  C   UNL     1       1.386   6.451  -0.209  0.00  0.00    +0.127 C 
ATOM      7  C   UNL     1       0.933   7.339  -1.369  0.00  0.00    +0.127 C 
ATOM      8  N   UNL     1       2.119   7.955  -1.981  0.00  0.00    -0.295 N 
ATOM      9  C   UNL     1       2.207   9.293  -2.110  0.00  0.00    +0.219 C 
ATOM     10  O   UNL     1       3.143   9.785  -2.704  0.00  0.00    -0.275 OA
ATOM     11  C   UNL     1       2.386   4.242  -0.546  0.00  0.00    +0.236 C 
ATOM     12  O   UNL     1       3.330   3.541  -0.842  0.00  0.00    -0.274 OA
BRANCH   9  13
ATOM     13  C   UNL     1       1.143  10.180  -1.516  0.00  0.00    +0.075 C 
ATOM     14  C   UNL     1       0.230  10.934  -2.484  0.00  0.00    +0.013 C 
ATOM     15  C   UNL     1       1.301  11.691  -1.696  0.00  0.00    +0.013 C 
ENDBRANCH   9  13
ENDBRANCH   1  11
BRANCH   1  16
ATOM     16  N   UNL     1       1.130   2.179  -0.314  0.00  0.00    -0.300 N 
ATOM     17  C   UNL     1      -0.030   1.502  -0.427  0.00  0.00    +0.245 C 
ATOM     18  O   UNL     1      -1.089   2.084  -0.303  0.00  0.00    -0.270 OA
ATOM     19  H   UNL     1       1.975   1.715  -0.417  0.00  0.00    +0.150 HD
BRANCH  17  20
ATOM     20  C   UNL     1      -0.013   0.050  -0.708  0.00  0.00    +0.037 A 
ATOM     21  C   UNL     1       1.201  -0.620  -0.863  0.00  0.00    +0.015 A 
ATOM     22  C   UNL     1       1.210  -1.976  -1.119  0.00  0.00    +0.033 A 
ATOM     23  C   UNL     1       0.018  -2.668  -1.234  0.00  0.00    +0.126 A 
ATOM     24  C   UNL     1      -1.190  -2.009  -1.088  0.00  0.00    +0.033 A 
ATOM     25  C   UNL     1      -1.212  -0.655  -0.826  0.00  0.00    +0.015 A 
BRANCH  23  26
ATOM     26  N   UNL     1       0.034  -4.122  -1.515  0.00  0.00    +0.056 N 
ATOM     27  O   UNL     1      -1.014  -4.734  -1.617  0.00  0.00    -0.126 OA
ATOM     28  O   UNL     1       1.095  -4.705  -1.644  0.00  0.00    -0.126 OA
ENDBRANCH  23  26
ENDBRANCH  17  20
ENDBRANCH   1  16
BRANCH   1  29
ATOM     29  C   UNL     1       1.004   3.843   1.474  0.00  0.00    +0.069 C 
BRANCH  29  30
ATOM     30  C   UNL     1      -0.297   3.271   1.975  0.00  0.00    -0.020 A 
ATOM     31  C   UNL     1      -1.446   3.941   2.156  0.00  0.00    +0.087 A 
ATOM     32  N   UNL     1      -2.413   3.091   2.619  0.00  0.00    -0.360 N 
ATOM     33  H   UNL     1      -3.327   3.344   2.822  0.00  0.00    +0.165 HD
ATOM     34  C   UNL     1      -1.895   1.823   2.759  0.00  0.00    +0.047 A 
ATOM     35  C   UNL     1      -0.546   1.880   2.361  0.00  0.00    +0.003 A 
ATOM     36  C   UNL     1       0.240   0.728   2.398  0.00  0.00    +0.010 A 
ATOM     37  C   UNL     1      -0.304  -0.452   2.822  0.00  0.00    +0.001 A 
ATOM     38  C   UNL     1      -1.633  -0.514   3.215  0.00  0.00    +0.002 A 
ATOM     39  C   UNL     1      -2.428   0.612   3.186  0.00  0.00    +0.026 A 
ENDBRANCH  29  30
ENDBRANCH   1  29
TORSDOF 7
