REMARK  Name = ZINC59894581
REMARK  10 active torsions:
REMARK  status: ('A' for Active; 'I' for Inactive)
REMARK    1  A    between atoms: C_1  and  C_2
REMARK    2  A    between atoms: C_2  and  C_4
REMARK    3  A    between atoms: C_2  and  N_14
REMARK    4  A    between atoms: C_7  and  N_10
REMARK    5  A    between atoms: C_15  and  C_17
REMARK    6  A    between atoms: C_23  and  O_25
REMARK    7  A    between atoms: O_25  and  C_26
REMARK    8  A    between atoms: C_26  and  C_27
REMARK    9  A    between atoms: C_26  and  C_28
REMARK   10  A    between atoms: C_26  and  C_29
REMARK                            x       y       z     vdW  Elec       q    Type
REMARK                         _______ _______ _______ _____ _____    ______ ____
ROOT
ATOM      1  N   UNL     1       0.826  -0.288   1.176  0.00  0.00    -0.307 N 
ATOM      2  C   UNL     1       0.241  -0.420   2.383  0.00  0.00    +0.234 C 
ATOM      3  O   UNL     1      -0.959  -0.283   2.494  0.00  0.00    -0.274 OA
ATOM      4  H   UNL     1       1.785  -0.398   1.088  0.00  0.00    +0.149 HD
ENDROOT
BRANCH   2   5
ATOM      5  C   UNL     1       1.077  -0.738   3.596  0.00  0.00    +0.165 C 
ATOM      6  C   UNL     1       1.387  -2.249   3.638  0.00  0.00    +0.033 C 
ATOM      7  C   UNL     1       1.290  -2.582   5.150  0.00  0.00    +0.021 C 
ATOM      8  C   UNL     1       0.140  -1.646   5.601  0.00  0.00    +0.112 C 
ATOM      9  N   UNL     1       0.332  -0.408   4.819  0.00  0.00    -0.256 N 
ATOM     10  C   UNL     1      -0.104   0.820   5.166  0.00  0.00    +0.404 C 
ATOM     11  O   UNL     1       0.113   1.769   4.440  0.00  0.00    -0.226 OA
BRANCH  10  12
ATOM     12  O   UNL     1      -0.779   0.994   6.318  0.00  0.00    -0.445 OA
BRANCH  12  13
ATOM     13  C   UNL     1      -1.211   2.321   6.623  0.00  0.00    +0.107 C 
ATOM     14  C   UNL     1      -2.145   2.820   5.519  0.00  0.00    +0.055 C 
ATOM     15  C   UNL     1      -1.955   2.321   7.960  0.00  0.00    +0.055 C 
ATOM     16  C   UNL     1       0.006   3.244   6.716  0.00  0.00    +0.055 C 
ENDBRANCH  12  13
ENDBRANCH  10  12
ENDBRANCH   2   5
BRANCH   1  18
ATOM     17  C   UNL     1      -0.191   1.534  -0.099  0.00  0.00    +0.033 C 
ATOM     18  C   UNL     1       0.012   0.021  -0.002  0.00  0.00    +0.100 C 
BRANCH  18  19
ATOM     19  C   UNL     1       0.715  -0.472  -1.241  0.00  0.00    -0.027 A 
ATOM     20  C   UNL     1       2.086  -0.335  -1.357  0.00  0.00    +0.007 A 
ATOM     21  C   UNL     1       2.733  -0.785  -2.491  0.00  0.00    +0.023 A 
ATOM     22  C   UNL     1       2.005  -1.376  -3.515  0.00  0.00    +0.035 A 
ATOM     23  C   UNL     1       0.628  -1.513  -3.396  0.00  0.00    +0.023 A 
ATOM     24  C   UNL     1      -0.012  -1.065  -2.257  0.00  0.00    +0.007 A 
BRANCH  22  25
ATOM     25  N   UNL     1       2.658  -1.833  -4.666  0.00  0.00    -0.270 N 
ATOM     26  C   UNL     1       3.907  -2.331  -4.579  0.00  0.00    +0.301 C 
ATOM     27  O   UNL     1       4.431  -2.473  -3.491  0.00  0.00    -0.253 OA
ATOM     28  N   UNL     1       4.576  -2.671  -5.699  0.00  0.00    -0.313 N 
ATOM     29  H   UNL     1       2.211  -1.792  -5.526  0.00  0.00    +0.156 HD
ATOM     30  H   UNL     1       4.158  -2.558  -6.567  0.00  0.00    +0.146 HD
ATOM     31  H   UNL     1       5.475  -3.030  -5.636  0.00  0.00    +0.146 HD
ENDBRANCH  22  25
ENDBRANCH  18  19
ENDBRANCH   1  18
TORSDOF 6
