REMARK  Name = ZINC63375993
REMARK  9 active torsions:
REMARK  status: ('A' for Active; 'I' for Inactive)
REMARK    1  A    between atoms: C_1  and  C_2
REMARK    2  A    between atoms: C_2  and  C_3
REMARK    3  A    between atoms: C_3  and  C_5
REMARK    4  A    between atoms: C_3  and  N_6
REMARK    5  A    between atoms: C_7  and  C_9
REMARK    6  A    between atoms: C_14  and  N_15
REMARK    7  A    between atoms: C_31  and  C_36
REMARK    8  A    between atoms: C_39  and  O_42
REMARK    9  A    between atoms: O_42  and  C_43
REMARK                            x       y       z     vdW  Elec       q    Type
REMARK                         _______ _______ _______ _____ _____    ______ ____
ROOT
ATOM      1  N   UNL     1       4.724   0.392  -4.933  0.00  0.00    -0.192 N 
ATOM      2  C   UNL     1       4.066   1.344  -5.626  0.00  0.00    +0.248 C 
ATOM      3  O   UNL     1       3.980   2.522  -5.353  0.00  0.00    -0.273 OA
ATOM      4  C   UNL     1       3.456   0.635  -6.816  0.00  0.00    +0.169 C 
ATOM      5  C   UNL     1       1.927   0.809  -6.804  0.00  0.00    +0.065 C 
ATOM      6  C   UNL     1       1.361  -0.346  -7.596  0.00  0.00    -0.034 C 
ATOM      7  C   UNL     1       0.537  -0.359  -8.639  0.00  0.00    -0.001 A 
ATOM      8  C   UNL     1      -0.190   0.721  -9.325  0.00  0.00    +0.010 A 
ATOM      9  C   UNL     1      -0.948   0.350 -10.391  0.00  0.00    +0.001 A 
ATOM     10  C   UNL     1      -1.054  -0.972 -10.836  0.00  0.00    +0.002 A 
ATOM     11  C   UNL     1      -0.428  -2.028 -10.260  0.00  0.00    +0.026 A 
ATOM     12  C   UNL     1       0.393  -1.765  -9.125  0.00  0.00    +0.043 A 
ATOM     13  N   UNL     1       1.082  -2.576  -8.379  0.00  0.00    -0.375 N 
ATOM     14  C   UNL     1       1.700  -1.801  -7.301  0.00  0.00    +0.131 C 
ATOM     15  C   UNL     1       3.231  -1.919  -7.328  0.00  0.00    +0.135 C 
ATOM     16  N   UNL     1       3.778  -0.784  -6.565  0.00  0.00    -0.264 N 
ATOM     17  C   UNL     1       4.585  -0.816  -5.497  0.00  0.00    +0.317 C 
ATOM     18  O   UNL     1       5.125  -1.823  -5.084  0.00  0.00    -0.252 OA
ATOM     19  H   UNL     1       1.171  -3.533  -8.513  0.00  0.00    +0.160 HD
ENDROOT
BRANCH   1  25
ATOM     20  C   UNL     1       4.851   0.559  -2.517  0.00  0.00    +0.059 A 
ATOM     21  C   UNL     1       5.604   0.800  -1.365  0.00  0.00    +0.015 A 
ATOM     22  C   UNL     1       6.941   1.116  -1.472  0.00  0.00    +0.001 A 
ATOM     23  C   UNL     1       7.543   1.197  -2.717  0.00  0.00    +0.002 A 
ATOM     24  C   UNL     1       6.811   0.961  -3.864  0.00  0.00    +0.025 A 
ATOM     25  C   UNL     1       5.465   0.636  -3.775  0.00  0.00    +0.058 A 
BRANCH  20  27
ATOM     26  N   UNL     1       2.833   0.147  -1.198  0.00  0.00    -0.309 N 
ATOM     27  C   UNL     1       3.419   0.220  -2.409  0.00  0.00    +0.246 C 
ATOM     28  O   UNL     1       2.768   0.006  -3.414  0.00  0.00    -0.270 OA
ATOM     29  H   UNL     1       3.352   0.318  -0.397  0.00  0.00    +0.149 HD
BRANCH  26  30
ATOM     30  C   UNL     1       1.411  -0.190  -1.092  0.00  0.00    +0.070 C 
ATOM     31  C   UNL     1       1.245  -1.711  -1.101  0.00  0.00    +0.028 C 
BRANCH  30  33
ATOM     32  C   UNL     1       0.900   1.905   0.170  0.00  0.00    +0.005 C 
ATOM     33  C   UNL     1       0.849   0.377   0.214  0.00  0.00    +0.018 C 
ENDBRANCH  30  33
ENDBRANCH  26  30
ENDBRANCH  20  27
ENDBRANCH   1  25
BRANCH  15  34
ATOM     34  C   UNL     1       3.659  -3.219  -6.699  0.00  0.00    -0.024 A 
ATOM     35  C   UNL     1       3.299  -3.506  -5.395  0.00  0.00    +0.009 A 
ATOM     36  C   UNL     1       3.690  -4.698  -4.816  0.00  0.00    +0.046 A 
ATOM     37  C   UNL     1       4.444  -5.607  -5.543  0.00  0.00    +0.120 A 
ATOM     38  C   UNL     1       4.804  -5.317  -6.851  0.00  0.00    +0.046 A 
ATOM     39  C   UNL     1       4.405  -4.126  -7.428  0.00  0.00    +0.009 A 
BRANCH  37  40
ATOM     40  O   UNL     1       4.831  -6.779  -4.975  0.00  0.00    -0.495 OA
ATOM     41  C   UNL     1       5.606  -7.668  -5.784  0.00  0.00    +0.277 C 
ENDBRANCH  37  40
ENDBRANCH  15  34
TORSDOF 6
