REMARK  Name = ZINC39483486
REMARK  7 active torsions:
REMARK  status: ('A' for Active; 'I' for Inactive)
REMARK    1  A    between atoms: C_1  and  S_2
REMARK    2  A    between atoms: S_2  and  C_3
REMARK    3  A    between atoms: C_5  and  C_16
REMARK    4  A    between atoms: C_7  and  C_9
REMARK    5  A    between atoms: C_14  and  O_15
REMARK    6  A    between atoms: C_31  and  C_32
REMARK    7  A    between atoms: C_37  and  O_38
REMARK                            x       y       z     vdW  Elec       q    Type
REMARK                         _______ _______ _______ _____ _____    ______ ____
ROOT
ATOM      1  C   UNL     1      -5.066   1.223   0.046  0.00  0.00    +0.015 C 
ATOM      2  C   UNL     1      -4.715   2.520   0.146  0.00  0.00    -0.004 C 
ATOM      3  C   UNL     1      -3.265   2.909   0.128  0.00  0.00    +0.040 C 
ATOM      4  C   UNL     1      -3.089   4.269  -0.527  0.00  0.00    +0.026 C 
ATOM      5  C   UNL     1      -4.020   5.314   0.042  0.00  0.00    +0.127 C 
ATOM      6  N   UNL     1      -5.405   4.878   0.159  0.00  0.00    -0.293 N 
ATOM      7  C   UNL     1      -5.750   3.555   0.267  0.00  0.00    +0.140 A 
ATOM      8  N   UNL     1      -6.992   3.164   0.478  0.00  0.00    -0.228 NA
ATOM      9  C   UNL     1      -8.013   4.029   0.556  0.00  0.00    +0.086 A 
ATOM     10  C   UNL     1      -7.760   5.409   0.382  0.00  0.00    +0.066 A 
ATOM     11  C   UNL     1      -6.374   5.831   0.165  0.00  0.00    +0.262 A 
ATOM     12  O   UNL     1      -6.100   7.003  -0.019  0.00  0.00    -0.267 OA
ATOM     13  C   UNL     1      -8.809   6.324   0.435  0.00  0.00    +0.015 A 
ATOM     14  C   UNL     1     -10.095   5.881   0.670  0.00  0.00    +0.001 A 
ATOM     15  C   UNL     1     -10.358   4.533   0.854  0.00  0.00    +0.011 A 
ATOM     16  C   UNL     1      -9.332   3.598   0.802  0.00  0.00    +0.012 A 
ENDROOT
BRANCH   1  19
ATOM     17  C   UNL     1      -3.218  -1.984  -0.615  0.00  0.00    +0.009 A 
ATOM     18  C   UNL     1      -4.193  -0.997  -0.656  0.00  0.00    +0.022 A 
ATOM     19  C   UNL     1      -4.033   0.174   0.089  0.00  0.00    -0.023 A 
ATOM     20  C   UNL     1      -2.891   0.349   0.874  0.00  0.00    +0.016 A 
ATOM     21  C   UNL     1      -1.917  -0.643   0.911  0.00  0.00    -0.013 A 
ATOM     22  C   UNL     1      -2.085  -1.812   0.171  0.00  0.00    +0.023 A 
BRANCH  21  23
ATOM     23  C   UNL     1      -0.703  -0.460   1.744  0.00  0.00    +0.024 A 
ATOM     24  C   UNL     1       0.036   0.716   1.653  0.00  0.00    +0.012 A 
ATOM     25  C   UNL     1       1.165   0.882   2.430  0.00  0.00    +0.001 A 
ATOM     26  C   UNL     1       1.565  -0.117   3.300  0.00  0.00    +0.004 A 
ATOM     27  C   UNL     1       0.839  -1.289   3.397  0.00  0.00    +0.046 A 
ATOM     28  C   UNL     1      -0.299  -1.466   2.627  0.00  0.00    +0.125 A 
BRANCH  28  29
ATOM     29  O   UNL     1      -1.018  -2.615   2.726  0.00  0.00    -0.506 OA
ATOM     30  H   UNL     1      -0.734  -3.310   2.117  0.00  0.00    +0.292 HD
ENDBRANCH  28  29
ENDBRANCH  21  23
BRANCH  17  32
ATOM     31  C   UNL     1      -5.011  -3.229  -2.396  0.00  0.00    +0.090 C 
ATOM     32  S   UNL     1      -3.421  -3.460  -1.554  0.00  0.00    -0.129 S 
ENDBRANCH  17  32
ENDBRANCH   1  19
BRANCH  16  33
ATOM     33  C   UNL     1      -9.622   2.160   1.004  0.00  0.00    +0.026 A 
ATOM     34  C   UNL     1     -10.410   1.468   0.085  0.00  0.00    +0.012 A 
ATOM     35  C   UNL     1     -10.677   0.128   0.278  0.00  0.00    +0.001 A 
ATOM     36  C   UNL     1     -10.165  -0.533   1.381  0.00  0.00    +0.004 A 
ATOM     37  C   UNL     1      -9.383   0.142   2.299  0.00  0.00    +0.046 A 
ATOM     38  C   UNL     1      -9.102   1.487   2.115  0.00  0.00    +0.125 A 
BRANCH  38  39
ATOM     39  O   UNL     1      -8.328   2.150   3.014  0.00  0.00    -0.506 OA
ATOM     40  H   UNL     1      -8.825   2.553   3.739  0.00  0.00    +0.292 HD
ENDBRANCH  38  39
ENDBRANCH  16  33
TORSDOF 6
