REMARK  Name = ZINC08719252
REMARK  7 active torsions:
REMARK  status: ('A' for Active; 'I' for Inactive)
REMARK    1  A    between atoms: C_1  and  C_2
REMARK    2  A    between atoms: C_2  and  C_4
REMARK    3  A    between atoms: C_2  and  S_14
REMARK    4  A    between atoms: S_14  and  C_15
REMARK    5  A    between atoms: C_18  and  C_27
REMARK    6  A    between atoms: N_19  and  C_20
REMARK    7  A    between atoms: C_27  and  N_56
REMARK                            x       y       z     vdW  Elec       q    Type
REMARK                         _______ _______ _______ _____ _____    ______ ____
ROOT
ATOM      1  C   UNL     1       6.452   6.293   0.264  0.00  0.00    +0.197 A 
ATOM      2  N   UNL     1       7.472   5.587  -0.164  0.00  0.00    -0.122 NA
ATOM      3  N   UNL     1       8.545   6.292  -0.113  0.00  0.00    -0.135 NA
ATOM      4  C   UNL     1       8.279   7.482   0.346  0.00  0.00    +0.122 A 
ATOM      5  N   UNL     1       6.933   7.529   0.599  0.00  0.00    -0.276 N 
ENDROOT
BRANCH   5   6
ATOM      6  C   UNL     1       6.202   8.617   1.099  0.00  0.00    +0.050 A 
ATOM      7  C   UNL     1       6.089   9.781   0.351  0.00  0.00    +0.028 A 
ATOM      8  C   UNL     1       5.364  10.849   0.844  0.00  0.00    +0.022 A 
ATOM      9  C   UNL     1       4.761  10.763   2.086  0.00  0.00    +0.041 A 
ATOM     10  C   UNL     1       4.877   9.605   2.836  0.00  0.00    +0.022 A 
ATOM     11  C   UNL     1       5.596   8.533   2.345  0.00  0.00    +0.028 A 
ATOM     12 CL   UNL     1       3.857  12.109   2.705  0.00  0.00    -0.084 Cl
ENDBRANCH   5   6
BRANCH   1  13
ATOM     13  S   UNL     1       4.778   5.755   0.378  0.00  0.00    -0.073 S 
BRANCH  13  15
ATOM     14  C   UNL     1       5.378   4.095  -1.707  0.00  0.00    +0.029 C 
ATOM     15  C   UNL     1       4.950   4.062  -0.239  0.00  0.00    +0.137 C 
BRANCH  15  16
ATOM     16  C   UNL     1       3.629   3.346  -0.116  0.00  0.00    +0.231 C 
ATOM     17  O   UNL     1       2.595   3.980  -0.103  0.00  0.00    -0.274 OA
ATOM     18  N   UNL     1       3.597   2.002  -0.021  0.00  0.00    -0.269 N 
ATOM     19  C   UNL     1       2.374   1.332  -0.015  0.00  0.00    +0.125 A 
ATOM     20  C   UNL     1       2.350  -0.058  -0.024  0.00  0.00    +0.045 A 
ATOM     21  C   UNL     1       1.130  -0.710  -0.018  0.00  0.00    +0.025 A 
ATOM     22  C   UNL     1      -0.030   0.054  -0.003  0.00  0.00    +0.059 A 
ATOM     23  C   UNL     1       0.069   1.433   0.005  0.00  0.00    +0.132 A 
ATOM     24  N   UNL     1       1.247   2.026  -0.001  0.00  0.00    -0.239 NA
ATOM     25 CL   UNL     1      -1.587  -0.714   0.005  0.00  0.00    -0.082 Cl
ATOM     26  H   UNL     1       4.425   1.501   0.042  0.00  0.00    +0.156 HD
ENDBRANCH  15  16
ENDBRANCH  13  15
ENDBRANCH   1  13
BRANCH   4  27
ATOM     27  C   UNL     1       9.267   8.601   0.555  0.00  0.00    -0.001 C 
BRANCH  27  33
ATOM     28  C   UNL     1       9.929   8.632  -1.773  0.00  0.00    -0.078 C 
ATOM     29  C   UNL     1       9.873   9.456  -3.062  0.00  0.00    -0.019 C 
ATOM     30  C   UNL     1      10.658  10.755  -2.866  0.00  0.00    -0.004 C 
ATOM     31  C   UNL     1      10.071  11.524  -1.678  0.00  0.00    -0.019 C 
ATOM     32  C   UNL     1      10.122  10.640  -0.430  0.00  0.00    -0.078 C 
ATOM     33  N   UNL     1       9.327   9.417  -0.674  0.00  0.00    +0.384 N 
ATOM     34  H   UNL     1       8.374   9.688  -0.942  0.00  0.00    -0.081 HD
ENDBRANCH  27  33
ENDBRANCH   4  27
TORSDOF 6
