REMARK  Name = ZINC09359437
REMARK  7 active torsions:
REMARK  status: ('A' for Active; 'I' for Inactive)
REMARK    1  A    between atoms: C_1  and  C_2
REMARK    2  A    between atoms: C_2  and  C_3
REMARK    3  A    between atoms: C_3  and  C_4
REMARK    4  A    between atoms: C_4  and  C_5
REMARK    5  A    between atoms: C_5  and  C_6
REMARK    6  A    between atoms: C_18  and  C_33
REMARK    7  A    between atoms: C_23  and  C_25
REMARK                            x       y       z     vdW  Elec       q    Type
REMARK                         _______ _______ _______ _____ _____    ______ ____
ROOT
ATOM      1  C   UNL     1      -2.140  -0.631  -0.900  0.00  0.00    +0.221 C 
ATOM      2  O   UNL     1      -3.138  -1.319  -0.857  0.00  0.00    -0.275 OA
ATOM      3  N   UNL     1      -1.201  -0.745   0.060  0.00  0.00    -0.258 N 
ATOM      4  C   UNL     1      -0.068   0.047  -0.005  0.00  0.00    +0.058 A 
ATOM      5  C   UNL     1      -0.128   1.424   0.015  0.00  0.00    +0.025 A 
ATOM      6  C   UNL     1       1.035   2.174  -0.004  0.00  0.00    +0.002 A 
ATOM      7  C   UNL     1       2.264   1.538  -0.034  0.00  0.00    +0.002 A 
ATOM      8  C   UNL     1       2.344   0.164  -0.060  0.00  0.00    +0.025 A 
ATOM      9  C   UNL     1       1.181  -0.618  -0.061  0.00  0.00    +0.053 A 
ATOM     10  N   UNL     1       1.266  -1.951  -0.141  0.00  0.00    -0.316 N 
ATOM     11  C   UNL     1       0.660  -2.958   0.379  0.00  0.00    +0.017 C 
ATOM     12  C   UNL     1       1.412  -4.280   0.282  0.00  0.00    +0.063 C 
ATOM     13  C   UNL     1       1.043  -5.171   1.467  0.00  0.00    +0.068 C 
ATOM     14  C   UNL     1      -0.472  -5.405   1.433  0.00  0.00    +0.091 C 
ATOM     15  C   UNL     1      -1.163  -4.075   1.488  0.00  0.00    +0.163 C 
ATOM     16  C   UNL     1      -0.611  -2.947   0.996  0.00  0.00    +0.037 C 
ATOM     17  C   UNL     1      -1.401  -1.689   1.131  0.00  0.00    +0.147 C 
ATOM     18  O   UNL     1      -2.388  -4.003   2.054  0.00  0.00    -0.292 OA
ATOM     19  H   UNL     1       2.088  -2.112  -0.853  0.00  0.00    +0.152 HD
ENDROOT
BRANCH  17  20
ATOM     20  C   UNL     1      -1.020  -1.026   2.430  0.00  0.00    -0.022 A 
ATOM     21  C   UNL     1      -1.990  -0.752   3.376  0.00  0.00    +0.007 A 
ATOM     22  C   UNL     1      -1.641  -0.149   4.570  0.00  0.00    +0.020 A 
ATOM     23  C   UNL     1      -0.323   0.190   4.814  0.00  0.00    +0.041 A 
ATOM     24  C   UNL     1       0.647  -0.079   3.864  0.00  0.00    +0.020 A 
ATOM     25  C   UNL     1       0.298  -0.687   2.673  0.00  0.00    +0.007 A 
ATOM     26 CL   UNL     1       0.116   0.953   6.310  0.00  0.00    -0.084 Cl
ENDBRANCH  17  20
BRANCH  13  27
ATOM     27  C   UNL     1       1.423  -4.487   2.755  0.00  0.00    +0.109 A 
ATOM     28  C   UNL     1       2.266  -4.973   3.684  0.00  0.00    +0.045 A 
ATOM     29  C   UNL     1       2.333  -4.012   4.719  0.00  0.00    +0.041 A 
ATOM     30  C   UNL     1       1.526  -2.997   4.361  0.00  0.00    +0.195 A 
ATOM     31  O   UNL     1       0.983  -3.288   3.168  0.00  0.00    -0.468 OA
ENDBRANCH  13  27
BRANCH   1  32
ATOM     32  C   UNL     1      -1.949   0.350  -2.028  0.00  0.00    +0.096 C 
BRANCH  32  33
ATOM     33  C   UNL     1      -3.150   0.280  -2.973  0.00  0.00    +0.009 C 
BRANCH  33  34
ATOM     34  C   UNL     1      -2.956   1.277  -4.118  0.00  0.00    +0.000 C 
BRANCH  34  36
ATOM     35  C   UNL     1      -3.963   2.203  -6.208  0.00  0.00    +0.004 C 
ATOM     36  C   UNL     1      -4.157   1.207  -5.063  0.00  0.00    -0.003 C 
ENDBRANCH  34  36
ENDBRANCH  33  34
ENDBRANCH  32  33
ENDBRANCH   1  32
TORSDOF 6
