REMARK  Name = ZINC40081334
REMARK  6 active torsions:
REMARK  status: ('A' for Active; 'I' for Inactive)
REMARK    1  A    between atoms: C_1  and  C_2
REMARK    2  A    between atoms: C_6  and  N_12
REMARK    3  A    between atoms: C_13  and  C_15
REMARK    4  A    between atoms: C_16  and  C_17
REMARK    5  A    between atoms: C_20  and  C_22
REMARK    6  A    between atoms: C_25  and  C_27
REMARK                            x       y       z     vdW  Elec       q    Type
REMARK                         _______ _______ _______ _____ _____    ______ ____
ROOT
ATOM      1  N   UNL     1       0.075  -5.800  -1.246  0.00  0.00    -0.282 N 
ATOM      2  C   UNL     1       0.196  -6.940  -0.538  0.00  0.00    +0.241 C 
ATOM      3  O   UNL     1       0.201  -6.903   0.680  0.00  0.00    -0.270 OA
ATOM      4  H   UNL     1      -0.006  -5.835  -2.212  0.00  0.00    +0.155 HD
ENDROOT
BRANCH   1  10
ATOM      5  C   UNL     1       1.508  -0.434   3.660  0.00  0.00    +0.063 C 
ATOM      6  C   UNL     1       1.072  -1.357   2.551  0.00  0.00    +0.014 A 
ATOM      7  C   UNL     1       1.466  -2.632   2.410  0.00  0.00    +0.030 A 
ATOM      8  C   UNL     1       0.808  -3.154   1.210  0.00  0.00    +0.002 A 
ATOM      9  C   UNL     1       0.821  -4.389   0.558  0.00  0.00    +0.033 A 
ATOM     10  C   UNL     1       0.067  -4.564  -0.587  0.00  0.00    +0.034 A 
ATOM     11  C   UNL     1      -0.701  -3.514  -1.089  0.00  0.00    +0.025 A 
ATOM     12  C   UNL     1      -0.719  -2.293  -0.454  0.00  0.00    +0.028 A 
ATOM     13  C   UNL     1       0.032  -2.098   0.701  0.00  0.00    +0.047 A 
ATOM     14  N   UNL     1       0.210  -1.021   1.543  0.00  0.00    -0.358 N 
ATOM     15  H   UNL     1      -0.211  -0.154   1.435  0.00  0.00    +0.166 HD
ENDBRANCH   1  10
BRANCH   2  16
ATOM     16  C   UNL     1       0.316  -8.180  -1.208  0.00  0.00    +0.071 C 
ATOM     17  C   UNL     1       0.437  -9.328  -0.496  0.00  0.00    +0.051 C 
BRANCH  17  18
ATOM     18  C   UNL     1       0.557 -10.569  -1.167  0.00  0.00    +0.128 A 
ATOM     19  C   UNL     1       0.572 -10.756  -2.534  0.00  0.00    +0.049 A 
ATOM     20  C   UNL     1       0.708 -12.136  -2.747  0.00  0.00    +0.045 A 
ATOM     21  C   UNL     1       0.769 -12.724  -1.531  0.00  0.00    +0.109 A 
ATOM     22  O   UNL     1       0.684 -11.779  -0.584  0.00  0.00    -0.460 OA
BRANCH  21  23
ATOM     23  C   UNL     1       0.916 -14.203  -1.281  0.00  0.00    +0.058 C 
ATOM     24  C   UNL     1       0.761 -14.694   0.160  0.00  0.00    +0.015 C 
ATOM     25  C   UNL     1       2.144 -14.668  -0.496  0.00  0.00    -0.003 C 
ATOM     26  C   UNL     1       2.766 -16.010  -0.887  0.00  0.00    +0.008 C 
ENDBRANCH  21  23
ENDBRANCH  17  18
ENDBRANCH   2  16
TORSDOF 4
