REMARK  Name = ZINC15541780
REMARK  4 active torsions:
REMARK  status: ('A' for Active; 'I' for Inactive)
REMARK    1  A    between atoms: C_4  and  N_26
REMARK    2  A    between atoms: C_5  and  C_7
REMARK    3  A    between atoms: C_7  and  C_8
REMARK    4  A    between atoms: C_14  and  C_16
REMARK                            x       y       z     vdW  Elec       q    Type
REMARK                         _______ _______ _______ _____ _____    ______ ____
ROOT
ATOM      1  C   UNL     1      -2.858   0.222  -1.633  0.00  0.00    +0.220 C 
ATOM      2  O   UNL     1      -2.149  -0.237  -2.504  0.00  0.00    -0.275 OA
ATOM      3  N   UNL     1      -3.992   0.872  -1.961  0.00  0.00    -0.294 N 
ATOM      4  C   UNL     1      -4.945   1.471  -1.009  0.00  0.00    +0.108 C 
ATOM      5  C   UNL     1      -5.673   2.574  -1.821  0.00  0.00    +0.021 C 
ATOM      6  C   UNL     1      -5.799   1.900  -3.213  0.00  0.00    +0.029 C 
ATOM      7  C   UNL     1      -4.488   1.094  -3.327  0.00  0.00    +0.106 C 
ENDROOT
BRANCH   7   8
ATOM      8  C   UNL     1      -4.756  -0.229  -3.998  0.00  0.00    -0.023 A 
ATOM      9  C   UNL     1      -5.332  -1.261  -3.281  0.00  0.00    +0.009 A 
ATOM     10  C   UNL     1      -5.578  -2.476  -3.892  0.00  0.00    +0.050 A 
ATOM     11  C   UNL     1      -5.249  -2.662  -5.226  0.00  0.00    +0.162 A 
ATOM     12  C   UNL     1      -4.672  -1.624  -5.947  0.00  0.00    +0.162 A 
ATOM     13  C   UNL     1      -4.431  -0.406  -5.329  0.00  0.00    +0.055 A 
ATOM     14  O   UNL     1      -4.346  -1.783  -7.259  0.00  0.00    -0.485 OA
ATOM     15  C   UNL     1      -4.261  -3.129  -7.741  0.00  0.00    +0.270 C 
ATOM     16  C   UNL     1      -5.494  -3.896  -7.244  0.00  0.00    +0.270 C 
ATOM     17  O   UNL     1      -5.494  -3.866  -5.813  0.00  0.00    -0.485 OA
ENDBRANCH   7   8
BRANCH   1  18
ATOM     18  C   UNL     1      -2.470   0.067  -0.185  0.00  0.00    +0.133 C 
BRANCH  18  23
ATOM     19  C   UNL     1       1.207  -0.703   0.189  0.00  0.00    +0.000 A 
ATOM     20  C   UNL     1       1.213  -2.081   0.081  0.00  0.00    +0.002 A 
ATOM     21  C   UNL     1       0.026  -2.764  -0.110  0.00  0.00    +0.033 A 
ATOM     22  C   UNL     1      -1.165  -2.069  -0.201  0.00  0.00    +0.130 A 
ATOM     23  C   UNL     1      -1.171  -0.691  -0.092  0.00  0.00    -0.008 A 
ATOM     24  C   UNL     1       0.015  -0.008   0.103  0.00  0.00    +0.006 A 
BRANCH  22  25
ATOM     25  N   UNL     1      -2.435  -2.800  -0.409  0.00  0.00    +0.057 N 
ATOM     26  O   UNL     1      -2.447  -4.018  -0.390  0.00  0.00    -0.126 OA
ATOM     27  O   UNL     1      -3.469  -2.184  -0.595  0.00  0.00    -0.126 OA
ENDBRANCH  22  25
ENDBRANCH  18  23
ENDBRANCH   1  18
TORSDOF 4
