REMARK  Name = ZINC36691951
REMARK  8 active torsions:
REMARK  status: ('A' for Active; 'I' for Inactive)
REMARK    1  A    between atoms: C_1  and  C_2
REMARK    2  A    between atoms: C_2  and  C_4
REMARK    3  A    between atoms: C_2  and  S_17
REMARK    4  A    between atoms: C_4  and  C_6
REMARK    5  A    between atoms: S_17  and  C_18
REMARK    6  A    between atoms: N_23  and  C_24
REMARK    7  A    between atoms: C_27  and  S_30
REMARK    8  A    between atoms: S_30  and  C_31
REMARK                            x       y       z     vdW  Elec       q    Type
REMARK                         _______ _______ _______ _____ _____    ______ ____
ROOT
ATOM      1  S   UNL     1      -1.441  -1.347  -0.428  0.00  0.00    -0.086 S 
ENDROOT
BRANCH   1   2
ATOM      2  C   UNL     1      -2.190  -0.574  -1.823  0.00  0.00    +0.161 A 
ATOM      3  N   UNL     1      -1.673   0.282  -2.683  0.00  0.00    -0.133 NA
ATOM      4  N   UNL     1      -2.444   0.768  -3.713  0.00  0.00    -0.125 NA
ATOM      5  C   UNL     1      -3.697   0.376  -3.836  0.00  0.00    +0.187 A 
ATOM      6  S   UNL     1      -3.852  -0.746  -2.455  0.00  0.00    -0.024 S 
ATOM      7  N   UNL     1      -4.644   0.737  -4.789  0.00  0.00    -0.292 N 
ATOM      8  H   UNL     1      -5.560   0.431  -4.702  0.00  0.00    +0.154 HD
BRANCH   7   9
ATOM      9  C   UNL     1      -4.274   1.541  -5.873  0.00  0.00    +0.033 A 
ATOM     10  C   UNL     1      -5.220   2.342  -6.498  0.00  0.00    +0.024 A 
ATOM     11  C   UNL     1      -4.856   3.135  -7.568  0.00  0.00    +0.017 A 
ATOM     12  C   UNL     1      -3.542   3.132  -8.019  0.00  0.00    +0.013 A 
ATOM     13  C   UNL     1      -2.595   2.330  -7.394  0.00  0.00    +0.017 A 
ATOM     14  C   UNL     1      -2.959   1.541  -6.321  0.00  0.00    +0.024 A 
BRANCH  12  15
ATOM     15  S   UNL     1      -3.077   4.143  -9.385  0.00  0.00    -0.056 S 
BRANCH  15  16
ATOM     16  C   UNL     1      -1.307   3.807  -9.598  0.00  0.00    +0.404 C 
ATOM     17  F   UNL     1      -0.622   4.153  -8.428  0.00  0.00    -0.197 F 
ATOM     18  F   UNL     1      -1.120   2.446  -9.862  0.00  0.00    -0.197 F 
ENDBRANCH  15  16
ENDBRANCH  12  15
ENDBRANCH   7   9
ENDBRANCH   1   2
BRANCH   1  20
ATOM     19  C   UNL     1       0.207   0.819  -0.151  0.00  0.00    +0.028 C 
ATOM     20  C   UNL     1       0.249  -0.687  -0.417  0.00  0.00    +0.121 C 
BRANCH  20  21
ATOM     21  C   UNL     1       1.046  -1.367   0.667  0.00  0.00    +0.176 C 
ATOM     22  O   UNL     1       0.480  -1.845   1.627  0.00  0.00    -0.291 OA
BRANCH  21  23
ATOM     23  C   UNL     1       2.509  -1.450   0.561  0.00  0.00    +0.020 A 
ATOM     24  C   UNL     1       3.165  -0.893  -0.544  0.00  0.00    +0.015 A 
ATOM     25  C   UNL     1       4.536  -0.971  -0.643  0.00  0.00    +0.048 A 
ATOM     26  C   UNL     1       5.272  -1.600   0.351  0.00  0.00    +0.142 A 
ATOM     27  C   UNL     1       4.624  -2.158   1.457  0.00  0.00    +0.076 A 
ATOM     28  C   UNL     1       3.251  -2.080   1.567  0.00  0.00    +0.038 A 
ATOM     29  N   UNL     1       5.386  -2.790   2.450  0.00  0.00    -0.280 N 
ATOM     30  C   UNL     1       6.720  -2.576   2.487  0.00  0.00    +0.255 C 
ATOM     31  O   UNL     1       7.404  -3.135   3.318  0.00  0.00    -0.272 OA
ATOM     32  C   UNL     1       7.354  -1.640   1.490  0.00  0.00    +0.325 C 
ATOM     33  O   UNL     1       6.625  -1.680   0.261  0.00  0.00    -0.481 OA
ATOM     34  H   UNL     1       4.963  -3.372   3.101  0.00  0.00    +0.155 HD
ENDBRANCH  21  23
ENDBRANCH  20  21
ENDBRANCH   1  20
TORSDOF 7
