REMARK  Name = ZINC65375215
REMARK  5 active torsions:
REMARK  status: ('A' for Active; 'I' for Inactive)
REMARK    1  A    between atoms: C_4  and  C_7
REMARK    2  A    between atoms: C_8  and  C_20
REMARK    3  A    between atoms: N_9  and  C_12
REMARK    4  A    between atoms: C_12  and  C_13
REMARK    5  A    between atoms: C_13  and  N_14
REMARK                            x       y       z     vdW  Elec       q    Type
REMARK                         _______ _______ _______ _____ _____    ______ ____
ROOT
ATOM      1  C   UNL     1       3.658  -0.780  -0.152  0.00  0.00    +0.094 A 
ATOM      2  C   UNL     1       3.995  -1.820   0.654  0.00  0.00    +0.072 A 
ATOM      3  N   UNL     1       5.330  -2.047   0.464  0.00  0.00    -0.330 N 
ATOM      4  C   UNL     1       5.768  -1.149  -0.445  0.00  0.00    +0.200 A 
ATOM      5  N   UNL     1       4.769  -0.398  -0.815  0.00  0.00    -0.235 NA
ENDROOT
BRANCH   2   6
ATOM      6  C   UNL     1       3.077  -2.575   1.580  0.00  0.00    +0.152 C 
ATOM      7  C   UNL     1       2.096  -3.403   0.779  0.00  0.00    +0.013 C 
ATOM      8  C   UNL     1       0.866  -2.947   1.108  0.00  0.00    -0.004 A 
ATOM      9  C   UNL     1      -0.484  -3.331   0.678  0.00  0.00    +0.010 A 
ATOM     10  C   UNL     1      -1.548  -2.675   1.195  0.00  0.00    +0.001 A 
ATOM     11  C   UNL     1      -1.395  -1.640   2.127  0.00  0.00    +0.002 A 
ATOM     12  C   UNL     1      -0.187  -1.231   2.570  0.00  0.00    +0.026 A 
ATOM     13  C   UNL     1       1.001  -1.851   2.094  0.00  0.00    +0.043 A 
ATOM     14  N   UNL     1       2.267  -1.637   2.366  0.00  0.00    -0.372 N 
ATOM     15  H   UNL     1       2.611  -0.972   2.982  0.00  0.00    +0.161 HD
ENDBRANCH   2   6
BRANCH   1  19
ATOM     16  C   UNL     1      -0.208   0.949  -0.532  0.00  0.00    +0.000 A 
ATOM     17  C   UNL     1       0.403   0.893   0.708  0.00  0.00    +0.001 A 
ATOM     18  C   UNL     1       1.657   0.333   0.837  0.00  0.00    +0.010 A 
ATOM     19  C   UNL     1       2.309  -0.177  -0.285  0.00  0.00    +0.002 A 
ATOM     20  C   UNL     1       1.689  -0.118  -1.531  0.00  0.00    +0.010 A 
ATOM     21  C   UNL     1       0.434   0.445  -1.649  0.00  0.00    +0.001 A 
ENDBRANCH   1  19
BRANCH   3  22
ATOM     22  C   UNL     1       6.137  -3.076   1.125  0.00  0.00    +0.142 C 
BRANCH  22  23
ATOM     23  C   UNL     1       6.008  -4.395   0.360  0.00  0.00    +0.131 C 
BRANCH  23  24
ATOM     24  N   UNL     1       6.815  -5.423   1.021  0.00  0.00    -0.282 N 
ATOM     25  C   UNL     1       8.227  -5.716   0.731  0.00  0.00    +0.128 C 
ATOM     26  C   UNL     1       8.571  -6.867   1.696  0.00  0.00    +0.124 C 
ATOM     27  N   UNL     1       7.317  -7.100   2.428  0.00  0.00    -0.298 N 
ATOM     28  C   UNL     1       6.386  -6.243   1.990  0.00  0.00    +0.302 C 
ATOM     29  O   UNL     1       5.253  -6.214   2.429  0.00  0.00    -0.253 OA
ATOM     30  H   UNL     1       7.186  -7.767   3.120  0.00  0.00    +0.150 HD
ENDBRANCH  23  24
ENDBRANCH  22  23
ENDBRANCH   3  22
TORSDOF 5
