REMARK  Name = ZINC40321720
REMARK  10 active torsions:
REMARK  status: ('A' for Active; 'I' for Inactive)
REMARK    1  A    between atoms: C_1  and  C_2
REMARK    2  A    between atoms: C_2  and  C_3
REMARK    3  A    between atoms: C_2  and  C_4
REMARK    4  A    between atoms: C_7  and  C_10
REMARK    5  A    between atoms: C_10  and  C_12
REMARK    6  A    between atoms: C_10  and  N_30
REMARK    7  A    between atoms: C_12  and  N_13
REMARK    8  A    between atoms: C_14  and  C_16
REMARK    9  A    between atoms: C_19  and  S_21
REMARK   10  A    between atoms: S_21  and  C_24
REMARK                            x       y       z     vdW  Elec       q    Type
REMARK                         _______ _______ _______ _____ _____    ______ ____
ROOT
ATOM      1  C   UNL     1      -5.541  -3.432   0.663  0.00  0.00    +0.094 C 
ENDROOT
BRANCH   1   2
ATOM      2  N   UNL     1      -4.999  -3.412   2.024  0.00  0.00    -0.310 N 
ATOM      3  C   UNL     1      -4.906  -4.556   2.729  0.00  0.00    +0.279 C 
ATOM      4  O   UNL     1      -5.272  -5.607   2.235  0.00  0.00    -0.267 OA
ATOM      5  H   UNL     1      -4.708  -2.574   2.417  0.00  0.00    +0.149 HD
BRANCH   3   6
ATOM      6  C   UNL     1      -4.364  -4.536   4.092  0.00  0.00    +0.192 A 
ATOM      7  C   UNL     1      -4.210  -5.618   4.910  0.00  0.00    +0.056 A 
ATOM      8  C   UNL     1      -3.660  -5.141   6.111  0.00  0.00    +0.070 A 
ATOM      9  C   UNL     1      -3.505  -3.806   5.974  0.00  0.00    +0.246 A 
ATOM     10  O   UNL     1      -3.925  -3.446   4.754  0.00  0.00    -0.433 OA
BRANCH   9  11
ATOM     11  S   UNL     1      -2.851  -2.718   7.196  0.00  0.00    +0.058 S 
ATOM     12  O   UNL     1      -3.362  -1.425   6.904  0.00  0.00    -0.161 OA
ATOM     13  O   UNL     1      -3.053  -3.351   8.453  0.00  0.00    -0.161 OA
BRANCH  11  14
ATOM     14  C   UNL     1      -1.109  -2.640   6.946  0.00  0.00    +0.097 A 
ATOM     15  C   UNL     1      -0.277  -3.539   7.587  0.00  0.00    +0.027 A 
ATOM     16  C   UNL     1       1.090  -3.477   7.391  0.00  0.00    +0.002 A 
ATOM     17  C   UNL     1       1.625  -2.517   6.552  0.00  0.00    +0.000 A 
ATOM     18  C   UNL     1       0.793  -1.619   5.910  0.00  0.00    +0.002 A 
ATOM     19  C   UNL     1      -0.574  -1.683   6.103  0.00  0.00    +0.027 A 
ENDBRANCH  11  14
ENDBRANCH   9  11
ENDBRANCH   3   6
ENDBRANCH   1   2
BRANCH   1  20
ATOM     20  C   UNL     1      -5.415  -2.039   0.043  0.00  0.00    -0.020 C 
BRANCH  20  21
ATOM     21  N   UNL     1      -6.011  -2.044  -1.299  0.00  0.00    +0.385 N 
ATOM     22  C   UNL     1      -5.796  -0.722  -1.918  0.00  0.00    -0.078 C 
ATOM     23  C   UNL     1      -5.836  -0.888  -3.417  0.00  0.00    -0.019 C 
ATOM     24  C   UNL     1      -7.233  -0.571  -3.982  0.00  0.00    -0.002 C 
ATOM     25  C   UNL     1      -8.355  -1.132  -3.085  0.00  0.00    -0.002 C 
ATOM     26  C   UNL     1      -8.040  -2.513  -2.568  0.00  0.00    -0.019 C 
ATOM     27  C   UNL     1      -7.359  -2.391  -1.189  0.00  0.00    -0.078 C 
ATOM     28  H   UNL     1      -5.543  -2.741  -1.858  0.00  0.00    -0.081 HD
ENDBRANCH  20  21
BRANCH  20  32
ATOM     29  C   UNL     1      -1.287  -0.975  -0.237  0.00  0.00    -0.045 A 
ATOM     30  C   UNL     1      -2.059  -0.481   0.797  0.00  0.00    +0.004 A 
ATOM     31  C   UNL     1      -3.395  -0.826   0.888  0.00  0.00    +0.002 A 
ATOM     32  C   UNL     1      -3.959  -1.663  -0.056  0.00  0.00    -0.059 A 
ATOM     33  C   UNL     1      -3.187  -2.156  -1.092  0.00  0.00    +0.002 A 
ATOM     34  C   UNL     1      -1.852  -1.809  -1.185  0.00  0.00    +0.004 A 
BRANCH  29  36
ATOM     35  C   UNL     1       0.297   0.919  -0.465  0.00  0.00    +0.012 C 
ATOM     36  C   UNL     1       0.169  -0.600  -0.336  0.00  0.00    +0.013 C 
ATOM     37  C   UNL     1       0.903  -1.069   0.922  0.00  0.00    +0.012 C 
ENDBRANCH  29  36
ENDBRANCH  20  32
ENDBRANCH   1  20
TORSDOF 8
