REMARK  Name = ZINC08882944
REMARK  9 active torsions:
REMARK  status: ('A' for Active; 'I' for Inactive)
REMARK    1  A    between atoms: C_1  and  C_2
REMARK    2  A    between atoms: C_2  and  C_4
REMARK    3  A    between atoms: C_2  and  S_16
REMARK    4  A    between atoms: S_16  and  C_17
REMARK    5  A    between atoms: C_20  and  C_26
REMARK    6  A    between atoms: N_21  and  C_22
REMARK    7  A    between atoms: C_22  and  C_23
REMARK    8  A    between atoms: C_23  and  C_24
REMARK    9  A    between atoms: C_23  and  C_25
REMARK                            x       y       z     vdW  Elec       q    Type
REMARK                         _______ _______ _______ _____ _____    ______ ____
ROOT
ATOM      1  C   UNL     1       0.252   0.307   2.733  0.00  0.00    +0.193 A 
ATOM      2  N   UNL     1      -1.006   0.542   2.433  0.00  0.00    -0.122 NA
ATOM      3  N   UNL     1      -1.719   0.559   3.502  0.00  0.00    -0.128 NA
ATOM      4  C   UNL     1      -0.961   0.335   4.550  0.00  0.00    +0.166 A 
ATOM      5  N   UNL     1       0.324   0.161   4.089  0.00  0.00    -0.302 N 
ENDROOT
BRANCH   4   6
ATOM      6  C   UNL     1      -1.404   0.275   5.959  0.00  0.00    +0.038 A 
ATOM      7  C   UNL     1      -0.664  -0.447   6.897  0.00  0.00    +0.014 A 
ATOM      8  C   UNL     1      -1.082  -0.499   8.210  0.00  0.00    +0.021 A 
ATOM      9  C   UNL     1      -2.234   0.163   8.600  0.00  0.00    +0.042 A 
ATOM     10  C   UNL     1      -2.974   0.881   7.675  0.00  0.00    +0.040 A 
ATOM     11  C   UNL     1      -2.562   0.945   6.359  0.00  0.00    +0.053 A 
ATOM     12 CL   UNL     1      -3.486   1.852   5.202  0.00  0.00    -0.083 Cl
ATOM     13 CL   UNL     1      -2.754   0.092  10.255  0.00  0.00    -0.083 Cl
ENDBRANCH   4   6
BRANCH   1  14
ATOM     14  S   UNL     1       1.593   0.194   1.596  0.00  0.00    -0.075 S 
BRANCH  14  16
ATOM     15  C   UNL     1       0.281   1.912  -0.079  0.00  0.00    +0.027 C 
ATOM     16  C   UNL     1       0.824   0.483  -0.021  0.00  0.00    +0.117 C 
BRANCH  16  17
ATOM     17  C   UNL     1       1.851   0.291  -1.107  0.00  0.00    +0.124 A 
ATOM     18  N   UNL     1       1.446  -0.241  -2.290  0.00  0.00    -0.309 N 
ATOM     19  H   UNL     1       0.516  -0.485  -2.414  0.00  0.00    +0.170 HD
ATOM     20  C   UNL     1       2.330  -0.433  -3.297  0.00  0.00    +0.259 A 
ATOM     21  O   UNL     1       1.981  -0.907  -4.362  0.00  0.00    -0.267 OA
ATOM     22  C   UNL     1       3.727  -0.045  -3.055  0.00  0.00    +0.065 A 
ATOM     23  C   UNL     1       4.715  -0.201  -4.026  0.00  0.00    +0.015 A 
ATOM     24  C   UNL     1       6.009   0.179  -3.745  0.00  0.00    +0.001 A 
ATOM     25  C   UNL     1       6.335   0.714  -2.506  0.00  0.00    +0.002 A 
ATOM     26  C   UNL     1       5.374   0.877  -1.533  0.00  0.00    +0.028 A 
ATOM     27  C   UNL     1       4.055   0.500  -1.794  0.00  0.00    +0.078 A 
ATOM     28  N   UNL     1       3.076   0.647  -0.866  0.00  0.00    -0.233 NA
ENDBRANCH  16  17
ENDBRANCH  14  16
ENDBRANCH   1  14
BRANCH   5  29
ATOM     29  C   UNL     1       1.520  -0.119   4.887  0.00  0.00    +0.129 C 
BRANCH  29  30
ATOM     30  C   UNL     1       1.773  -1.627   4.915  0.00  0.00    +0.003 C 
ATOM     31  C   UNL     1       2.088  -2.118   3.501  0.00  0.00    +0.009 C 
ATOM     32  C   UNL     1       2.958  -1.929   5.835  0.00  0.00    +0.009 C 
ENDBRANCH  29  30
ENDBRANCH   5  29
TORSDOF 6
