REMARK  Name = ZINC67425537
REMARK  8 active torsions:
REMARK  status: ('A' for Active; 'I' for Inactive)
REMARK    1  A    between atoms: C_1  and  C_2
REMARK    2  A    between atoms: C_7  and  O_8
REMARK    3  A    between atoms: O_8  and  C_9
REMARK    4  A    between atoms: C_9  and  C_10
REMARK    5  A    between atoms: C_10  and  C_12
REMARK    6  A    between atoms: C_10  and  N_13
REMARK    7  A    between atoms: C_14  and  C_16
REMARK    8  A    between atoms: C_29  and  C_31
REMARK                            x       y       z     vdW  Elec       q    Type
REMARK                         _______ _______ _______ _____ _____    ______ ____
ROOT
ATOM      1  C   UNL     1      -2.960   2.076   6.069  0.00  0.00    +0.306 C 
ATOM      2  O   UNL     1      -3.591   2.268   5.050  0.00  0.00    -0.265 OA
ATOM      3  N   UNL     1      -3.419   2.546   7.245  0.00  0.00    -0.259 N 
ATOM      4  C   UNL     1      -2.699   2.337   8.427  0.00  0.00    +0.058 A 
ATOM      5  C   UNL     1      -2.637   1.078   9.003  0.00  0.00    +0.025 A 
ATOM      6  C   UNL     1      -1.940   0.895  10.182  0.00  0.00    +0.002 A 
ATOM      7  C   UNL     1      -1.305   1.964  10.790  0.00  0.00    +0.002 A 
ATOM      8  C   UNL     1      -1.354   3.221  10.217  0.00  0.00    +0.025 A 
ATOM      9  C   UNL     1      -2.042   3.411   9.030  0.00  0.00    +0.055 A 
ATOM     10  N   UNL     1      -2.059   4.661   8.402  0.00  0.00    -0.284 N 
ATOM     11  C   UNL     1      -3.221   5.192   7.964  0.00  0.00    +0.219 C 
ATOM     12  O   UNL     1      -3.213   6.237   7.349  0.00  0.00    -0.275 OA
ATOM     13  C   UNL     1      -4.528   4.494   8.235  0.00  0.00    +0.118 C 
ATOM     14  C   UNL     1      -4.678   3.291   7.309  0.00  0.00    +0.088 C 
ATOM     15  C   UNL     1      -5.782   2.377   7.845  0.00  0.00    +0.029 C 
ATOM     16  H   UNL     1      -1.230   5.151   8.281  0.00  0.00    +0.155 HD
ENDROOT
BRANCH   1  18
ATOM     17  N   UNL     1      -1.214   0.848   4.843  0.00  0.00    -0.302 N 
ATOM     18  C   UNL     1      -1.674   1.318   6.019  0.00  0.00    +0.300 C 
ATOM     19  O   UNL     1      -1.043   1.126   7.037  0.00  0.00    -0.265 OA
ATOM     20  H   UNL     1      -1.719   1.001   4.028  0.00  0.00    +0.150 HD
BRANCH  17  21
ATOM     21  C   UNL     1       0.047   0.104   4.793  0.00  0.00    +0.108 C 
ATOM     22  C   UNL     1       1.215   1.087   4.689  0.00  0.00    +0.031 C 
BRANCH  21  23
ATOM     23  C   UNL     1       0.048  -0.820   3.574  0.00  0.00    +0.251 C 
BRANCH  23  24
ATOM     24  O   UNL     1       0.025  -0.033   2.381  0.00  0.00    -0.490 OA
BRANCH  24  31
ATOM     25  C   UNL     1      -0.018   1.503   0.010  0.00  0.00    +0.047 C 
ATOM     26  C   UNL     1       0.002  -0.004   0.002  0.00  0.00    -0.009 A 
ATOM     27  C   UNL     1       0.006  -0.689  -1.198  0.00  0.00    +0.007 A 
ATOM     28  C   UNL     1       0.024  -2.071  -1.206  0.00  0.00    +0.000 A 
ATOM     29  C   UNL     1       0.039  -2.772  -0.014  0.00  0.00    +0.004 A 
ATOM     30  C   UNL     1       0.036  -2.092   1.188  0.00  0.00    +0.046 A 
ATOM     31  C   UNL     1       0.023  -0.705   1.199  0.00  0.00    +0.123 A 
ENDBRANCH  24  31
ENDBRANCH  23  24
ENDBRANCH  21  23
ENDBRANCH  17  21
ENDBRANCH   1  18
TORSDOF 5
