REMARK  Name = ZINC12718884
REMARK  13 active torsions:
REMARK  status: ('A' for Active; 'I' for Inactive)
REMARK    1  A    between atoms: C_1  and  C_2
REMARK    2  A    between atoms: C_2  and  O_3
REMARK    3  A    between atoms: O_3  and  C_4
REMARK    4  A    between atoms: C_7  and  C_10
REMARK    5  A    between atoms: C_10  and  N_58
REMARK    6  A    between atoms: C_16  and  C_18
REMARK    7  A    between atoms: C_18  and  C_19
REMARK    8  A    between atoms: N_21  and  C_22
REMARK    9  A    between atoms: C_22  and  C_23
REMARK   10  A    between atoms: C_23  and  C_24
REMARK   11  A    between atoms: C_23  and  C_25
REMARK   12  A    between atoms: C_23  and  C_26
REMARK   13  A    between atoms: C_26  and  O_27
REMARK                            x       y       z     vdW  Elec       q    Type
REMARK                         _______ _______ _______ _____ _____    ______ ____
ROOT
ATOM      1  C   UNL     1       1.312   2.019  -0.114  0.00  0.00    -0.058 C 
ATOM      2  C   UNL     1       1.183   3.501  -0.468  0.00  0.00    +0.085 C 
ATOM      3  N   UNL     1       0.277   4.162   0.466  0.00  0.00    -0.318 N 
ATOM      4  C   UNL     1      -0.591   3.494   1.233  0.00  0.00    +0.200 C 
ATOM      5  O   UNL     1      -1.330   4.124   1.959  0.00  0.00    -0.278 OA
ATOM      6  C   UNL     1      -0.690   1.995   1.232  0.00  0.00    +0.028 C 
ATOM      7  H   UNL     1       0.305   5.130   0.534  0.00  0.00    +0.149 HD
ATOM      8  N   UNL     1      -0.049   1.460   0.016  0.00  0.00    +0.391 N 
ATOM      9  H   UNL     1      -0.604   1.735  -0.804  0.00  0.00    -0.080 HD
ENDROOT
BRANCH   8  10
ATOM     10  C   UNL     1       0.012  -0.018   0.083  0.00  0.00    -0.042 C 
BRANCH  10  14
ATOM     11  C   UNL     1       2.123  -1.254   3.586  0.00  0.00    +0.121 A 
ATOM     12  C   UNL     1       0.739  -1.171   3.603  0.00  0.00    +0.046 A 
ATOM     13  C   UNL     1       0.058  -0.772   2.469  0.00  0.00    +0.005 A 
ATOM     14  C   UNL     1       0.756  -0.454   1.318  0.00  0.00    -0.064 A 
ATOM     15  C   UNL     1       2.136  -0.541   1.298  0.00  0.00    +0.005 A 
ATOM     16  C   UNL     1       2.821  -0.935   2.431  0.00  0.00    +0.046 A 
BRANCH  11  17
ATOM     17  O   UNL     1       2.795  -1.647   4.701  0.00  0.00    -0.492 OA
BRANCH  17  19
ATOM     18  C   UNL     1       4.795  -2.168   5.953  0.00  0.00    +0.048 C 
ATOM     19  C   UNL     1       4.220  -1.710   4.611  0.00  0.00    +0.225 C 
ENDBRANCH  17  19
ENDBRANCH  11  17
ENDBRANCH  10  14
ENDBRANCH   8  10
BRANCH   6  20
ATOM     20  C   UNL     1      -2.163   1.582   1.241  0.00  0.00    +0.089 C 
BRANCH  20  21
ATOM     21  C   UNL     1      -2.825   2.057  -0.027  0.00  0.00    +0.212 C 
ATOM     22  O   UNL     1      -2.208   2.743  -0.813  0.00  0.00    -0.276 OA
ATOM     23  N   UNL     1      -4.104   1.720  -0.287  0.00  0.00    -0.315 N 
ATOM     24  H   UNL     1      -4.598   1.171   0.342  0.00  0.00    +0.149 HD
BRANCH  23  25
ATOM     25  C   UNL     1      -4.748   2.181  -1.519  0.00  0.00    +0.112 C 
BRANCH  25  26
ATOM     26  C   UNL     1      -6.186   1.662  -1.568  0.00  0.00    +0.004 C 
ATOM     27  C   UNL     1      -6.177   0.133  -1.540  0.00  0.00    +0.015 C 
ATOM     28  C   UNL     1      -6.961   2.191  -0.359  0.00  0.00    +0.015 C 
BRANCH  26  29
ATOM     29  C   UNL     1      -6.858   2.144  -2.855  0.00  0.00    +0.163 C 
BRANCH  29  30
ATOM     30  O   UNL     1      -8.202   1.660  -2.902  0.00  0.00    -0.394 OA
ATOM     31  H   UNL     1      -8.690   1.928  -3.692  0.00  0.00    +0.209 HD
ENDBRANCH  29  30
ENDBRANCH  26  29
ENDBRANCH  25  26
ENDBRANCH  23  25
ENDBRANCH  20  21
ENDBRANCH   6  20
TORSDOF 10
