REMARK  Name = ZINC02317090
REMARK  6 active torsions:
REMARK  status: ('A' for Active; 'I' for Inactive)
REMARK    1  A    between atoms: C_1  and  C_2
REMARK    2  A    between atoms: C_2  and  O_3
REMARK    3  A    between atoms: O_3  and  C_4
REMARK    4  A    between atoms: C_4  and  C_6
REMARK    5  A    between atoms: C_12  and  C_15
REMARK    6  A    between atoms: N_23  and  C_26
REMARK                            x       y       z     vdW  Elec       q    Type
REMARK                         _______ _______ _______ _____ _____    ______ ____
ROOT
ATOM      1  C   UNL     1       1.438  -2.407  -2.516  0.00  0.00    +0.053 C 
ATOM      2  C   UNL     1       2.969  -2.347  -2.338  0.00  0.00    +0.083 C 
ATOM      3  C   UNL     1       3.367  -3.760  -1.831  0.00  0.00    +0.077 C 
ATOM      4  C   UNL     1       2.041  -4.545  -1.766  0.00  0.00    -0.027 C 
ATOM      5  N   UNL     1       1.134  -3.848  -2.708  0.00  0.00    +0.393 N 
ATOM      6  C   UNL     1       3.877  -3.498  -0.432  0.00  0.00    +0.229 C 
ATOM      7  O   UNL     1       4.295  -4.342   0.331  0.00  0.00    -0.275 OA
ATOM      8  N   UNL     1       3.795  -2.188  -0.167  0.00  0.00    -0.210 N 
ATOM      9  C   UNL     1       3.301  -1.436  -1.178  0.00  0.00    +0.229 C 
ATOM     10  O   UNL     1       3.143  -0.234  -1.164  0.00  0.00    -0.275 OA
ATOM     11  H   UNL     1       0.169  -4.038  -2.485  0.00  0.00    -0.084 HD
ATOM     12  H   UNL     1       1.341  -4.129  -3.655  0.00  0.00    -0.084 HD
ENDROOT
BRANCH   8  13
ATOM     13  C   UNL     1       4.195  -1.636   1.058  0.00  0.00    +0.044 A 
ATOM     14  C   UNL     1       5.294  -0.790   1.113  0.00  0.00    +0.025 A 
ATOM     15  C   UNL     1       5.686  -0.247   2.321  0.00  0.00    +0.017 A 
ATOM     16  C   UNL     1       4.984  -0.545   3.475  0.00  0.00    +0.018 A 
ATOM     17  C   UNL     1       3.888  -1.388   3.423  0.00  0.00    +0.017 A 
ATOM     18  C   UNL     1       3.489  -1.929   2.216  0.00  0.00    +0.025 A 
ATOM     19 BR   UNL     1       5.524   0.199   5.128  0.00  0.00    -0.050 Br
ENDBRANCH   8  13
BRANCH   4  20
ATOM     20  C   UNL     1       2.257  -5.977  -2.180  0.00  0.00    -0.061 A 
ATOM     21  C   UNL     1       2.337  -6.304  -3.521  0.00  0.00    +0.002 A 
ATOM     22  C   UNL     1       2.536  -7.619  -3.901  0.00  0.00    +0.000 A 
ATOM     23  C   UNL     1       2.655  -8.605  -2.940  0.00  0.00    +0.000 A 
ATOM     24  C   UNL     1       2.576  -8.278  -1.599  0.00  0.00    +0.000 A 
ATOM     25  C   UNL     1       2.382  -6.963  -1.219  0.00  0.00    +0.002 A 
ENDBRANCH   4  20
BRANCH   1  26
ATOM     26  C   UNL     1       0.746  -1.885  -1.283  0.00  0.00    +0.294 C 
ATOM     27  O   UNL     1       0.324  -2.656  -0.455  0.00  0.00    -0.253 OA
BRANCH  26  28
ATOM     28  O   UNL     1       0.598  -0.562  -1.106  0.00  0.00    -0.466 OA
BRANCH  28  30
ATOM     29  C   UNL     1      -0.140   1.390   0.111  0.00  0.00    +0.048 C 
ATOM     30  C   UNL     1      -0.067  -0.138   0.085  0.00  0.00    +0.228 C 
ENDBRANCH  28  30
ENDBRANCH  26  28
ENDBRANCH   1  26
TORSDOF 5
