REMARK  Name = ZINC38671711
REMARK  8 active torsions:
REMARK  status: ('A' for Active; 'I' for Inactive)
REMARK    1  A    between atoms: C_1  and  N_2
REMARK    2  A    between atoms: C_9  and  C_11
REMARK    3  A    between atoms: C_11  and  C_13
REMARK    4  A    between atoms: C_11  and  N_30
REMARK    5  A    between atoms: C_13  and  N_14
REMARK    6  A    between atoms: N_14  and  S_15
REMARK    7  A    between atoms: S_15  and  C_18
REMARK    8  A    between atoms: C_21  and  C_24
REMARK                            x       y       z     vdW  Elec       q    Type
REMARK                         _______ _______ _______ _____ _____    ______ ____
ROOT
ATOM      1  C   UNL     1       0.123  -3.950   4.256  0.00  0.00    -0.022 C 
ENDROOT
BRANCH   1  10
ATOM      2  C   UNL     1       0.695   1.452   0.280  0.00  0.00    +0.129 C 
ATOM      3  N   UNL     1       0.634  -0.010   0.212  0.00  0.00    -0.332 N 
ATOM      4  C   UNL     1       0.705  -0.796  -1.022  0.00  0.00    +0.109 C 
ATOM      5  C   UNL     1       0.599  -2.263  -0.572  0.00  0.00    +0.056 C 
ATOM      6  C   UNL     1       0.471  -2.189   0.933  0.00  0.00    -0.025 A 
ATOM      7  C   UNL     1       0.505  -0.857   1.314  0.00  0.00    +0.033 A 
ATOM      8  C   UNL     1       0.408  -0.537   2.669  0.00  0.00    +0.023 A 
ATOM      9  C   UNL     1       0.286  -1.535   3.612  0.00  0.00    +0.004 A 
ATOM     10  C   UNL     1       0.257  -2.861   3.222  0.00  0.00    -0.059 A 
ATOM     11  C   UNL     1       0.343  -3.186   1.881  0.00  0.00    +0.007 A 
ENDBRANCH   1  10
BRANCH   1  12
ATOM     12  N   UNL     1       0.937  -3.612   5.431  0.00  0.00    +0.385 N 
ATOM     13  C   UNL     1       2.330  -3.406   5.017  0.00  0.00    -0.078 C 
ATOM     14  C   UNL     1       3.167  -2.974   6.224  0.00  0.00    -0.019 C 
ATOM     15  C   UNL     1       3.107  -4.066   7.296  0.00  0.00    -0.004 C 
ATOM     16  C   UNL     1       1.644  -4.325   7.667  0.00  0.00    -0.019 C 
ATOM     17  C   UNL     1       0.864  -4.706   6.406  0.00  0.00    -0.078 C 
ATOM     18  H   UNL     1       0.585  -2.764   5.851  0.00  0.00    -0.081 HD
ENDBRANCH   1  12
BRANCH   1  19
ATOM     19  C   UNL     1      -1.343  -4.081   4.672  0.00  0.00    +0.095 C 
BRANCH  19  20
ATOM     20  N   UNL     1      -2.139  -4.522   3.523  0.00  0.00    -0.191 NA
ATOM     21  H   UNL     1      -1.775  -4.453   2.627  0.00  0.00    +0.148 HD
BRANCH  20  22
ATOM     22  S   UNL     1      -3.658  -5.137   3.756  0.00  0.00    +0.058 S 
ATOM     23  O   UNL     1      -4.174  -5.444   2.468  0.00  0.00    -0.153 OA
ATOM     24  O   UNL     1      -3.549  -6.112   4.785  0.00  0.00    -0.153 OA
BRANCH  22  25
ATOM     25  C   UNL     1      -4.655  -3.835   4.400  0.00  0.00    +0.105 A 
ATOM     26  C   UNL     1      -4.739  -3.644   5.768  0.00  0.00    +0.029 A 
ATOM     27  C   UNL     1      -5.518  -2.625   6.278  0.00  0.00    +0.010 A 
ATOM     28  C   UNL     1      -6.221  -1.789   5.413  0.00  0.00    -0.018 A 
ATOM     29  C   UNL     1      -6.133  -1.986   4.036  0.00  0.00    +0.010 A 
ATOM     30  C   UNL     1      -5.346  -3.004   3.537  0.00  0.00    +0.029 A 
BRANCH  28  31
ATOM     31  C   UNL     1      -7.061  -0.693   5.955  0.00  0.00    -0.018 A 
ATOM     32  C   UNL     1      -7.145  -0.492   7.332  0.00  0.00    +0.008 A 
ATOM     33  C   UNL     1      -7.927   0.530   7.831  0.00  0.00    +0.001 A 
ATOM     34  C   UNL     1      -8.627   1.353   6.968  0.00  0.00    +0.000 A 
ATOM     35  C   UNL     1      -8.548   1.159   5.601  0.00  0.00    +0.001 A 
ATOM     36  C   UNL     1      -7.763   0.144   5.090  0.00  0.00    +0.008 A 
ENDBRANCH  28  31
ENDBRANCH  22  25
ENDBRANCH  20  22
ENDBRANCH  19  20
ENDBRANCH   1  19
TORSDOF 7
