REMARK  Name = ZINC64956206
REMARK  8 active torsions:
REMARK  status: ('A' for Active; 'I' for Inactive)
REMARK    1  A    between atoms: C_1  and  C_2
REMARK    2  A    between atoms: C_2  and  C_3
REMARK    3  A    between atoms: C_6  and  N_9
REMARK    4  A    between atoms: C_10  and  C_12
REMARK    5  A    between atoms: C_12  and  N_13
REMARK    6  A    between atoms: C_21  and  C_25
REMARK    7  A    between atoms: C_28  and  C_32
REMARK    8  A    between atoms: C_30  and  C_31
REMARK                            x       y       z     vdW  Elec       q    Type
REMARK                         _______ _______ _______ _____ _____    ______ ____
ROOT
ATOM      1  N   UNL     1       1.896  -2.528   8.133  0.00  0.00    -0.257 N 
ATOM      2  C   UNL     1       1.406  -3.814   8.416  0.00  0.00    +0.058 A 
ATOM      3  C   UNL     1       1.917  -4.761   7.545  0.00  0.00    +0.025 A 
ATOM      4  C   UNL     1       1.544  -6.088   7.672  0.00  0.00    +0.002 A 
ATOM      5  C   UNL     1       0.663  -6.471   8.665  0.00  0.00    +0.002 A 
ATOM      6  C   UNL     1       0.148  -5.529   9.540  0.00  0.00    +0.025 A 
ATOM      7  C   UNL     1       0.517  -4.200   9.418  0.00  0.00    +0.053 A 
ATOM      8  N   UNL     1      -0.103  -3.397  10.388  0.00  0.00    -0.312 N 
ATOM      9  C   UNL     1       0.023  -2.036  10.575  0.00  0.00    +0.044 C 
ATOM     10  C   UNL     1       0.773  -1.145   9.870  0.00  0.00    +0.091 C 
ATOM     11  C   UNL     1       1.624  -1.371   8.769  0.00  0.00    +0.246 C 
ATOM     12  O   UNL     1       2.187  -0.385   8.329  0.00  0.00    -0.270 OA
ATOM     13  H   UNL     1      -0.694  -3.856  11.004  0.00  0.00    +0.152 HD
ENDROOT
BRANCH   9  14
ATOM     14  C   UNL     1      -0.763  -1.468  11.689  0.00  0.00    -0.001 A 
ATOM     15  C   UNL     1      -0.127  -0.735  12.694  0.00  0.00    +0.010 A 
ATOM     16  C   UNL     1      -0.867  -0.208  13.732  0.00  0.00    +0.004 A 
ATOM     17  C   UNL     1      -2.236  -0.404  13.779  0.00  0.00    -0.050 A 
ATOM     18  C   UNL     1      -2.872  -1.130  12.788  0.00  0.00    +0.007 A 
ATOM     19  C   UNL     1      -2.145  -1.658  11.741  0.00  0.00    -0.041 A 
ATOM     20  C   UNL     1      -2.841  -2.442  10.658  0.00  0.00    +0.044 C 
ATOM     21  C   UNL     1      -3.038   0.175  14.916  0.00  0.00    +0.044 C 
ENDBRANCH   9  14
BRANCH   1  22
ATOM     22  C   UNL     1       2.827  -2.433   7.006  0.00  0.00    +0.210 C 
BRANCH  22  24
ATOM     23  N   UNL     1       2.701  -2.275   4.541  0.00  0.00    -0.284 N 
ATOM     24  C   UNL     1       2.050  -2.367   5.717  0.00  0.00    +0.235 C 
ATOM     25  O   UNL     1       0.837  -2.396   5.738  0.00  0.00    -0.274 OA
ATOM     26  H   UNL     1       3.670  -2.329   4.518  0.00  0.00    +0.155 HD
BRANCH  23  30
ATOM     27  C   UNL     1       0.559  -1.760   1.005  0.00  0.00    -0.048 A 
ATOM     28  C   UNL     1       0.028  -1.320   2.204  0.00  0.00    +0.005 A 
ATOM     29  C   UNL     1       0.736  -1.490   3.378  0.00  0.00    +0.023 A 
ATOM     30  C   UNL     1       1.982  -2.102   3.353  0.00  0.00    +0.033 A 
ATOM     31  C   UNL     1       2.512  -2.543   2.148  0.00  0.00    +0.023 A 
ATOM     32  C   UNL     1       1.797  -2.375   0.978  0.00  0.00    +0.005 A 
BRANCH  27  34
ATOM     33  C   UNL     1      -1.111  -2.792  -0.510  0.00  0.00    +0.009 C 
ATOM     34  C   UNL     1      -0.216  -1.573  -0.273  0.00  0.00    +0.032 C 
ENDBRANCH  27  34
ENDBRANCH  23  30
ENDBRANCH  22  24
ENDBRANCH   1  22
TORSDOF 5
