REMARK  Name = ZINC62959138
REMARK  4 active torsions:
REMARK  status: ('A' for Active; 'I' for Inactive)
REMARK    1  A    between atoms: C_1  and  C_2
REMARK    2  A    between atoms: C_2  and  C_3
REMARK    3  A    between atoms: C_3  and  C_20
REMARK    4  A    between atoms: C_14  and  O_19
REMARK                            x       y       z     vdW  Elec       q    Type
REMARK                         _______ _______ _______ _____ _____    ______ ____
ROOT
ATOM      1  C   UNL     1       0.742  -0.511   1.242  0.00  0.00    -0.029 C 
ATOM      2  C   UNL     1       0.026  -0.016   2.501  0.00  0.00    +0.025 C 
ATOM      3  C   UNL     1       0.790  -0.496   3.739  0.00  0.00    +0.107 C 
ATOM      4  N   UNL     1       0.940  -1.956   3.665  0.00  0.00    -0.310 N 
ATOM      5  C   UNL     1       1.534  -2.544   2.457  0.00  0.00    +0.107 C 
ATOM      6  C   UNL     1       0.763  -2.041   1.233  0.00  0.00    +0.025 C 
ATOM      7  C   UNL     1       0.530  -2.762   4.715  0.00  0.00    +0.161 A 
ATOM      8  N   UNL     1      -0.020  -2.404   5.855  0.00  0.00    -0.229 NA
ATOM      9  C   UNL     1      -0.366  -3.296   6.780  0.00  0.00    +0.056 A 
ATOM     10  C   UNL     1      -0.107  -4.587   6.453  0.00  0.00    +0.042 A 
ATOM     11  S   UNL     1       0.609  -4.441   4.840  0.00  0.00    -0.054 S 
ATOM     12  C   UNL     1      -0.373  -5.806   7.270  0.00  0.00    +0.153 C 
ATOM     13  C   UNL     1      -0.660  -5.362   8.713  0.00  0.00    +0.037 C 
ATOM     14  C   UNL     1      -1.666  -4.208   8.685  0.00  0.00    +0.009 C 
ATOM     15  C   UNL     1      -1.008  -2.950   8.116  0.00  0.00    +0.056 C 
ATOM     16  C   UNL     1       2.178   0.018   1.230  0.00  0.00    +0.011 C 
ENDROOT
BRANCH   1  18
ATOM     17  C   UNL     1      -0.019   1.526   0.010  0.00  0.00    +0.004 C 
ATOM     18  C   UNL     1       0.002  -0.004   0.002  0.00  0.00    +0.003 C 
ENDBRANCH   1  18
BRANCH  12  19
ATOM     19  O   UNL     1       0.770  -6.662   7.245  0.00  0.00    -0.387 OA
ATOM     20  H   UNL     1       1.018  -6.963   6.361  0.00  0.00    +0.210 HD
ENDBRANCH  12  19
TORSDOF 2
