REMARK  Name = ZINC20478121
REMARK  3 active torsions:
REMARK  status: ('A' for Active; 'I' for Inactive)
REMARK    1  A    between atoms: C_1  and  C_2
REMARK    2  A    between atoms: C_12  and  C_14
REMARK    3  A    between atoms: N_23  and  C_26
REMARK                            x       y       z     vdW  Elec       q    Type
REMARK                         _______ _______ _______ _____ _____    ______ ____
ROOT
ATOM      1  C   UNL     1       4.564   1.569   1.367  0.00  0.00    +0.066 C 
ATOM      2  C   UNL     1       3.339   2.054   0.634  0.00  0.00    +0.047 C 
ATOM      3  C   UNL     1       3.370   3.247  -0.027  0.00  0.00    +0.091 C 
ATOM      4  C   UNL     1       2.218   3.679  -0.711  0.00  0.00    +0.249 C 
ATOM      5  O   UNL     1       2.206   4.745  -1.304  0.00  0.00    -0.270 OA
ATOM      6  N   UNL     1       1.130   2.888  -0.696  0.00  0.00    -0.211 N 
ATOM      7  C   UNL     1       1.152   1.713   0.000  0.00  0.00    +0.229 C 
ATOM      8  N   UNL     1       2.229   1.315   0.634  0.00  0.00    -0.219 NA
ATOM      9  N   UNL     1      -0.011   0.966   0.007  0.00  0.00    -0.182 NA
ATOM     10  C   UNL     1      -1.201   1.685   0.017  0.00  0.00    +0.196 C 
ATOM     11  N   UNL     1      -1.258   2.804  -0.653  0.00  0.00    -0.335 N 
ATOM     12  C   UNL     1      -0.089   3.246  -1.426  0.00  0.00    +0.211 C 
ATOM     13  N   UNL     1      -2.294   1.232   0.717  0.00  0.00    -0.298 N 
ATOM     14  C   UNL     1      -2.237  -0.029   1.472  0.00  0.00    +0.127 C 
ATOM     15  C   UNL     1      -2.730   0.242   2.902  0.00  0.00    +0.124 C 
ATOM     16  N   UNL     1      -4.056   0.873   2.846  0.00  0.00    -0.327 N 
ATOM     17  C   UNL     1      -3.996   2.182   2.182  0.00  0.00    +0.124 C 
ATOM     18  C   UNL     1      -3.553   1.993   0.728  0.00  0.00    +0.127 C 
ATOM     19  H   UNL     1      -2.176   3.409  -0.636  0.00  0.00    +0.164 HD
ENDROOT
BRANCH  16  20
ATOM     20  C   UNL     1      -4.611   0.984   4.123  0.00  0.00    +0.031 A 
ATOM     21  C   UNL     1      -5.014   2.225   4.601  0.00  0.00    +0.023 A 
ATOM     22  C   UNL     1      -5.568   2.331   5.862  0.00  0.00    +0.003 A 
ATOM     23  C   UNL     1      -5.712   1.206   6.653  0.00  0.00    +0.020 A 
ATOM     24  C   UNL     1      -5.307  -0.031   6.182  0.00  0.00    +0.043 A 
ATOM     25  C   UNL     1      -4.757  -0.145   4.919  0.00  0.00    +0.043 A 
ATOM     26 CL   UNL     1      -5.490  -1.441   7.178  0.00  0.00    -0.083 Cl
ENDBRANCH  16  20
BRANCH  12  27
ATOM     27  C   UNL     1      -0.089   2.569  -2.772  0.00  0.00    -0.007 A 
ATOM     28  C   UNL     1       1.107   2.300  -3.410  0.00  0.00    +0.007 A 
ATOM     29  C   UNL     1       1.107   1.674  -4.643  0.00  0.00    +0.000 A 
ATOM     30  C   UNL     1      -0.089   1.326  -5.241  0.00  0.00    +0.000 A 
ATOM     31  C   UNL     1      -1.286   1.599  -4.605  0.00  0.00    +0.000 A 
ATOM     32  C   UNL     1      -1.286   2.220  -3.370  0.00  0.00    +0.007 A 
ENDBRANCH  12  27
TORSDOF 2
