REMARK  Name = ZINC14457384
REMARK  8 active torsions:
REMARK  status: ('A' for Active; 'I' for Inactive)
REMARK    1  A    between atoms: C_1  and  C_2
REMARK    2  A    between atoms: C_2  and  C_4
REMARK    3  A    between atoms: C_4  and  O_5
REMARK    4  A    between atoms: O_5  and  C_6
REMARK    5  A    between atoms: C_13  and  C_22
REMARK    6  A    between atoms: C_25  and  O_29
REMARK    7  A    between atoms: C_26  and  O_28
REMARK    8  A    between atoms: O_29  and  C_30
REMARK                            x       y       z     vdW  Elec       q    Type
REMARK                         _______ _______ _______ _____ _____    ______ ____
ROOT
ATOM      1  C   UNL     1      -1.573   6.516  -1.558  0.00  0.00    +0.142 A 
ATOM      2  C   UNL     1      -2.948   6.424  -1.649  0.00  0.00    +0.047 A 
ATOM      3  C   UNL     1      -3.600   5.292  -1.196  0.00  0.00    +0.004 A 
ATOM      4  C   UNL     1      -2.871   4.257  -0.643  0.00  0.00    +0.006 A 
ATOM      5  C   UNL     1      -1.498   4.343  -0.539  0.00  0.00    -0.016 A 
ATOM      6  C   UNL     1      -0.821   5.471  -1.006  0.00  0.00    +0.074 A 
ATOM      7  N   UNL     1       0.566   5.626  -0.963  0.00  0.00    -0.334 N 
ATOM      8  C   UNL     1       1.328   4.566  -0.283  0.00  0.00    +0.105 C 
ATOM      9  C   UNL     1       0.680   3.247  -0.649  0.00  0.00    +0.029 C 
ATOM     10  C   UNL     1      -0.708   3.251   0.063  0.00  0.00    +0.049 C 
ATOM     11  C   UNL     1      -1.111   1.824   0.017  0.00  0.00    -0.023 C 
ATOM     12  C   UNL     1      -0.013   1.076   0.008  0.00  0.00    -0.030 C 
ATOM     13  C   UNL     1       1.229   1.972   0.001  0.00  0.00    +0.033 C 
ATOM     14  H   UNL     1       0.938   5.806  -1.883  0.00  0.00    +0.147 HD
ENDROOT
BRANCH   8  15
ATOM     15  C   UNL     1       2.760   4.583  -0.752  0.00  0.00    -0.023 A 
ATOM     16  C   UNL     1       3.050   4.853  -2.076  0.00  0.00    +0.009 A 
ATOM     17  C   UNL     1       4.362   4.869  -2.511  0.00  0.00    +0.050 A 
ATOM     18  C   UNL     1       5.391   4.614  -1.619  0.00  0.00    +0.161 A 
ATOM     19  C   UNL     1       5.100   4.342  -0.286  0.00  0.00    +0.159 A 
ATOM     20  C   UNL     1       3.783   4.332   0.145  0.00  0.00    +0.054 A 
BRANCH  19  21
ATOM     21  O   UNL     1       6.106   4.091   0.594  0.00  0.00    -0.503 OA
ATOM     22  H   UNL     1       6.448   4.880   1.035  0.00  0.00    +0.292 HD
ENDBRANCH  19  21
BRANCH  18  23
ATOM     23  O   UNL     1       6.682   4.629  -2.045  0.00  0.00    -0.491 OA
ATOM     24  C   UNL     1       6.905   4.915  -3.428  0.00  0.00    +0.277 C 
ENDBRANCH  18  23
ENDBRANCH   8  15
BRANCH   1  25
ATOM     25  O   UNL     1      -0.942   7.633  -2.009  0.00  0.00    -0.486 OA
BRANCH  25  26
ATOM     26  C   UNL     1      -1.763   8.664  -2.560  0.00  0.00    +0.259 C 
BRANCH  26  28
ATOM     27  C   UNL     1      -1.523  11.036  -3.623  0.00  0.00    +0.042 C 
ATOM     28  C   UNL     1      -0.896   9.814  -3.003  0.00  0.00    -0.043 C 
ATOM     29  C   UNL     1       0.404   9.752  -2.849  0.00  0.00    +0.011 C 
ENDBRANCH  26  28
ENDBRANCH  25  26
ENDBRANCH   1  25
TORSDOF 6
