REMARK  Name = ZINC21899951
REMARK  10 active torsions:
REMARK  status: ('A' for Active; 'I' for Inactive)
REMARK    1  A    between atoms: C_4  and  C_7
REMARK    2  A    between atoms: C_7  and  O_8
REMARK    3  A    between atoms: O_8  and  C_9
REMARK    4  A    between atoms: N_11  and  C_12
REMARK    5  A    between atoms: C_12  and  C_14
REMARK    6  A    between atoms: C_12  and  C_25
REMARK    7  A    between atoms: C_14  and  C_15
REMARK    8  A    between atoms: N_27  and  C_28
REMARK    9  A    between atoms: C_28  and  C_29
REMARK   10  A    between atoms: C_29  and  C_30
REMARK                            x       y       z     vdW  Elec       q    Type
REMARK                         _______ _______ _______ _____ _____    ______ ____
ROOT
ATOM      1  C   UNL     1      -0.927   1.718   3.671  0.00  0.00    +0.166 C 
ENDROOT
BRANCH   1   4
ATOM      2  C   UNL     1      -0.878   1.089   6.024  0.00  0.00    +0.401 C 
ATOM      3  O   UNL     1      -2.060   1.362   6.092  0.00  0.00    -0.226 OA
ATOM      4  N   UNL     1      -0.219   1.233   4.858  0.00  0.00    -0.269 N 
ATOM      5  H   UNL     1       0.852   0.986   4.797  0.00  0.00    +0.153 HD
BRANCH   2   6
ATOM      6  O   UNL     1      -0.227   0.643   7.115  0.00  0.00    -0.446 OA
BRANCH   6   7
ATOM      7  C   UNL     1      -1.000   0.512   8.337  0.00  0.00    +0.269 C 
BRANCH   7  11
ATOM      8  C   UNL     1       1.520  -0.928  11.471  0.00  0.00    +0.000 A 
ATOM      9  C   UNL     1       1.389   0.431  11.259  0.00  0.00    +0.000 A 
ATOM     10  C   UNL     1       0.573   0.898  10.245  0.00  0.00    +0.007 A 
ATOM     11  C   UNL     1      -0.111   0.004   9.443  0.00  0.00    -0.010 A 
ATOM     12  C   UNL     1       0.016  -1.356   9.658  0.00  0.00    +0.007 A 
ATOM     13  C   UNL     1       0.835  -1.822  10.668  0.00  0.00    +0.000 A 
ENDBRANCH   7  11
ENDBRANCH   6   7
ENDBRANCH   2   6
ENDBRANCH   1   4
BRANCH   1  14
ATOM     14  C   UNL     1      -0.222   1.232   2.431  0.00  0.00    +0.234 C 
ATOM     15  O   UNL     1       0.774   0.548   2.529  0.00  0.00    -0.274 OA
ATOM     16  N   UNL     1      -0.698   1.558   1.213  0.00  0.00    -0.313 N 
ATOM     17  H   UNL     1      -1.602   2.179   1.124  0.00  0.00    +0.149 HD
BRANCH  16  18
ATOM     18  C   UNL     1      -0.013   1.086   0.008  0.00  0.00    +0.110 C 
BRANCH  18  19
ATOM     19  C   UNL     1      -0.753   1.593  -1.232  0.00  0.00    +0.074 C 
BRANCH  19  20
ATOM     20  C   UNL     1      -0.047   1.107  -2.471  0.00  0.00    +0.043 A 
ATOM     21  C   UNL     1      -0.752   0.396  -3.424  0.00  0.00    +0.023 A 
ATOM     22  C   UNL     1      -0.094  -0.046  -4.561  0.00  0.00    +0.003 A 
ATOM     23  C   UNL     1       1.255   0.244  -4.698  0.00  0.00    +0.020 A 
ATOM     24  C   UNL     1       1.893   0.960  -3.704  0.00  0.00    +0.111 A 
ATOM     25  N   UNL     1       1.234   1.369  -2.637  0.00  0.00    -0.260 NA
ENDBRANCH  19  20
ENDBRANCH  18  19
ENDBRANCH  16  18
ENDBRANCH   1  14
BRANCH   1  26
ATOM     26  C   UNL     1      -0.948   3.248   3.679  0.00  0.00    +0.069 C 
BRANCH  26  27
ATOM     27  C   UNL     1      -1.759   3.733   4.854  0.00  0.00    -0.020 A 
ATOM     28  C   UNL     1      -3.058   4.070   4.843  0.00  0.00    +0.087 A 
ATOM     29  N   UNL     1      -3.449   4.463   6.094  0.00  0.00    -0.360 N 
ATOM     30  H   UNL     1      -4.488   4.776   6.272  0.00  0.00    +0.165 HD
ATOM     31  C   UNL     1      -2.384   4.386   6.963  0.00  0.00    +0.047 A 
ATOM     32  C   UNL     1      -1.280   3.920   6.225  0.00  0.00    +0.003 A 
ATOM     33  C   UNL     1      -0.048   3.738   6.856  0.00  0.00    +0.010 A 
ATOM     34  C   UNL     1       0.078   4.010   8.190  0.00  0.00    +0.001 A 
ATOM     35  C   UNL     1      -1.009   4.466   8.922  0.00  0.00    +0.002 A 
ATOM     36  C   UNL     1      -2.232   4.661   8.318  0.00  0.00    +0.026 A 
ENDBRANCH  26  27
ENDBRANCH   1  26
TORSDOF 10
