REMARK  Name = ZINC32679261
REMARK  9 active torsions:
REMARK  status: ('A' for Active; 'I' for Inactive)
REMARK    1  A    between atoms: C_4  and  C_7
REMARK    2  A    between atoms: C_7  and  C_8
REMARK    3  A    between atoms: C_8  and  O_9
REMARK    4  A    between atoms: O_9  and  C_10
REMARK    5  A    between atoms: C_13  and  C_16
REMARK    6  A    between atoms: C_18  and  C_22
REMARK    7  A    between atoms: N_24  and  N_25
REMARK    8  A    between atoms: C_26  and  C_27
REMARK    9  A    between atoms: C_31  and  O_33
REMARK                            x       y       z     vdW  Elec       q    Type
REMARK                         _______ _______ _______ _____ _____    ______ ____
ROOT
ATOM      1  C   UNL     1      -6.979   4.537  -0.309  0.00  0.00    +0.093 A 
ATOM      2  C   UNL     1      -6.115   5.644  -0.397  0.00  0.00    +0.062 A 
ATOM      3  C   UNL     1      -4.844   5.129  -0.225  0.00  0.00    +0.122 A 
ATOM      4  N   UNL     1      -4.994   3.783  -0.039  0.00  0.00    -0.272 N 
ATOM      5  H   UNL     1      -4.111   3.149   0.125  0.00  0.00    +0.189 HD
ATOM      6  N   UNL     1      -6.239   3.471  -0.093  0.00  0.00    -0.173 NA
ENDROOT
BRANCH   1  10
ATOM      7  C   UNL     1     -11.218   4.625  -0.658  0.00  0.00    +0.121 A 
ATOM      8  C   UNL     1     -10.567   3.421  -0.430  0.00  0.00    +0.046 A 
ATOM      9  C   UNL     1      -9.193   3.389  -0.317  0.00  0.00    +0.013 A 
ATOM     10  C   UNL     1      -8.458   4.568  -0.431  0.00  0.00    +0.002 A 
ATOM     11  C   UNL     1      -9.116   5.776  -0.655  0.00  0.00    +0.013 A 
ATOM     12  C   UNL     1     -10.489   5.801  -0.773  0.00  0.00    +0.046 A 
BRANCH   7  13
ATOM     13  O   UNL     1     -12.572   4.653  -0.770  0.00  0.00    -0.492 OA
BRANCH  13  14
ATOM     14  C   UNL     1     -13.178   5.926  -1.004  0.00  0.00    +0.233 C 
BRANCH  14  15
ATOM     15  C   UNL     1     -14.696   5.758  -1.100  0.00  0.00    +0.076 C 
BRANCH  15  19
ATOM     16  C   UNL     1     -16.506   9.563  -1.801  0.00  0.00    +0.000 A 
ATOM     17  C   UNL     1     -16.120   8.775  -2.869  0.00  0.00    +0.000 A 
ATOM     18  C   UNL     1     -15.534   7.544  -2.642  0.00  0.00    +0.004 A 
ATOM     19  C   UNL     1     -15.334   7.101  -1.347  0.00  0.00    -0.044 A 
ATOM     20  C   UNL     1     -15.726   7.887  -0.280  0.00  0.00    +0.004 A 
ATOM     21  C   UNL     1     -16.307   9.121  -0.507  0.00  0.00    +0.000 A 
ENDBRANCH  15  19
ENDBRANCH  14  15
ENDBRANCH  13  14
ENDBRANCH   7  13
ENDBRANCH   1  10
BRANCH   3  22
ATOM     22  C   UNL     1      -3.580   5.881  -0.234  0.00  0.00    +0.281 C 
ATOM     23  O   UNL     1      -3.590   7.085  -0.411  0.00  0.00    -0.267 OA
ATOM     24  N   UNL     1      -2.411   5.237  -0.045  0.00  0.00    -0.202 N 
ATOM     25  H   UNL     1      -2.402   4.149   0.115  0.00  0.00    +0.178 HD
BRANCH  24  26
ATOM     26  N   UNL     1      -1.207   5.954  -0.054  0.00  0.00    -0.187 NA
ATOM     27  C   UNL     1      -0.075   5.321   0.000  0.00  0.00    +0.138 C 
BRANCH  27  28
ATOM     28  C   UNL     1       0.017   3.932  -0.485  0.00  0.00    -0.002 A 
ATOM     29  C   UNL     1      -1.003   3.396  -1.275  0.00  0.00    +0.010 A 
ATOM     30  C   UNL     1      -0.910   2.097  -1.732  0.00  0.00    +0.004 A 
ATOM     31  C   UNL     1       0.185   1.320  -1.401  0.00  0.00    +0.045 A 
ATOM     32  C   UNL     1       1.203   1.843  -0.616  0.00  0.00    +0.117 A 
ATOM     33  C   UNL     1       1.124   3.147  -0.157  0.00  0.00    +0.054 A 
BRANCH  32  34
ATOM     34  O   UNL     1       2.279   1.076  -0.299  0.00  0.00    -0.507 OA
ATOM     35  H   UNL     1       3.087   1.490   0.323  0.00  0.00    +0.292 HD
ENDBRANCH  32  34
ENDBRANCH  27  28
ENDBRANCH  24  26
ENDBRANCH   3  22
TORSDOF 9
