REMARK  Name = ZINC35079757
REMARK  8 active torsions:
REMARK  status: ('A' for Active; 'I' for Inactive)
REMARK    1  A    between atoms: C_1  and  C_2
REMARK    2  A    between atoms: C_5  and  S_8
REMARK    3  A    between atoms: S_8  and  N_11
REMARK    4  A    between atoms: N_14  and  C_17
REMARK    5  A    between atoms: C_17  and  C_18
REMARK    6  A    between atoms: N_20  and  N_21
REMARK    7  A    between atoms: C_22  and  C_23
REMARK    8  A    between atoms: C_32  and  O_33
REMARK                            x       y       z     vdW  Elec       q    Type
REMARK                         _______ _______ _______ _____ _____    ______ ____
ROOT
ATOM      1  C   UNL     1       6.526  -4.615   1.220  0.00  0.00    +0.246 C 
ATOM      2  O   UNL     1       6.039  -5.443   1.962  0.00  0.00    -0.273 OA
ATOM      3  N   UNL     1       7.821  -4.269   1.355  0.00  0.00    -0.206 N 
ATOM      4  H   UNL     1       8.210  -3.607   0.762  0.00  0.00    +0.177 HD
ENDROOT
BRANCH   3   5
ATOM      5  N   UNL     1       8.606  -4.864   2.351  0.00  0.00    -0.188 NA
ATOM      6  C   UNL     1       9.876  -4.599   2.423  0.00  0.00    +0.142 C 
BRANCH   6   7
ATOM      7  C   UNL     1      10.463  -3.571   1.551  0.00  0.00    +0.044 A 
ATOM      8  C   UNL     1      11.582  -3.892   0.667  0.00  0.00    -0.006 A 
ATOM      9  C   UNL     1      12.129  -5.179   0.619  0.00  0.00    +0.009 A 
ATOM     10  C   UNL     1      13.172  -5.437  -0.220  0.00  0.00    +0.001 A 
ATOM     11  C   UNL     1      13.701  -4.437  -1.032  0.00  0.00    +0.001 A 
ATOM     12  C   UNL     1      13.192  -3.174  -1.010  0.00  0.00    +0.008 A 
ATOM     13  C   UNL     1      12.117  -2.872  -0.157  0.00  0.00    -0.017 A 
ATOM     14  C   UNL     1      11.565  -1.580  -0.109  0.00  0.00    +0.012 A 
ATOM     15  C   UNL     1      10.524  -1.299   0.719  0.00  0.00    +0.046 A 
ATOM     16  C   UNL     1       9.960  -2.270   1.546  0.00  0.00    +0.126 A 
BRANCH  16  17
ATOM     17  O   UNL     1       8.918  -1.946   2.353  0.00  0.00    -0.506 OA
ATOM     18  H   UNL     1       9.178  -1.704   3.253  0.00  0.00    +0.292 HD
ENDBRANCH  16  17
ENDBRANCH   6   7
ENDBRANCH   3   5
BRANCH   1  19
ATOM     19  C   UNL     1       5.682  -3.974   0.149  0.00  0.00    +0.182 C 
BRANCH  19  23
ATOM     20  N   UNL     1       1.536  -4.598   0.349  0.00  0.00    -0.174 NA
ATOM     21  C   UNL     1       2.184  -4.828  -0.951  0.00  0.00    +0.125 C 
ATOM     22  C   UNL     1       3.532  -4.099  -0.959  0.00  0.00    +0.102 C 
ATOM     23  N   UNL     1       4.318  -4.517   0.210  0.00  0.00    -0.291 NA
ATOM     24  C   UNL     1       3.654  -4.134   1.463  0.00  0.00    +0.102 C 
ATOM     25  C   UNL     1       2.313  -4.859   1.570  0.00  0.00    +0.125 C 
BRANCH  20  26
ATOM     26  S   UNL     1      -0.025  -4.053   0.435  0.00  0.00    +0.061 S 
ATOM     27  O   UNL     1      -0.525  -4.452   1.705  0.00  0.00    -0.153 OA
ATOM     28  O   UNL     1      -0.654  -4.427  -0.783  0.00  0.00    -0.153 OA
BRANCH  26  33
ATOM     29  C   UNL     1       0.186   1.977   0.484  0.00  0.00    +0.044 C 
ATOM     30  C   UNL     1       0.133   0.470   0.472  0.00  0.00    -0.050 A 
ATOM     31  C   UNL     1       0.048  -0.208  -0.729  0.00  0.00    +0.005 A 
ATOM     32  C   UNL     1      -0.000  -1.590  -0.740  0.00  0.00    +0.029 A 
ATOM     33  C   UNL     1       0.037  -2.292   0.450  0.00  0.00    +0.105 A 
ATOM     34  C   UNL     1       0.124  -1.614   1.651  0.00  0.00    +0.029 A 
ATOM     35  C   UNL     1       0.176  -0.232   1.662  0.00  0.00    +0.005 A 
ENDBRANCH  26  33
ENDBRANCH  20  26
ENDBRANCH  19  23
ENDBRANCH   1  19
TORSDOF 7
