REMARK  Name = ZINC19868440
REMARK  7 active torsions:
REMARK  status: ('A' for Active; 'I' for Inactive)
REMARK    1  A    between atoms: C_3  and  O_24
REMARK    2  A    between atoms: C_4  and  C_8
REMARK    3  A    between atoms: C_8  and  N_9
REMARK    4  A    between atoms: C_12  and  N_15
REMARK    5  A    between atoms: N_18  and  C_21
REMARK    6  A    between atoms: C_21  and  C_22
REMARK    7  A    between atoms: C_22  and  O_23
REMARK                            x       y       z     vdW  Elec       q    Type
REMARK                         _______ _______ _______ _____ _____    ______ ____
ROOT
ATOM      1  N   UNL     1       5.070  -1.240   0.904  0.00  0.00    -0.298 NA
ATOM      2  C   UNL     1       4.072  -1.830   1.805  0.00  0.00    +0.083 C 
ATOM      3  C   UNL     1       4.511  -1.629   3.257  0.00  0.00    +0.000 C 
ATOM      4  C   UNL     1       5.874  -2.294   3.469  0.00  0.00    -0.066 C 
ATOM      5  C   UNL     1       6.883  -1.694   2.486  0.00  0.00    +0.000 C 
ATOM      6  C   UNL     1       6.376  -1.893   1.056  0.00  0.00    +0.083 C 
ENDROOT
BRANCH   4   7
ATOM      7  N   UNL     1       6.327  -2.054   4.846  0.00  0.00    +0.383 N 
ATOM      8  C   UNL     1       5.353  -2.621   5.788  0.00  0.00    -0.063 C 
ATOM      9  C   UNL     1       5.816  -2.355   7.222  0.00  0.00    +0.066 C 
ATOM     10  N   UNL     1       7.136  -2.966   7.429  0.00  0.00    -0.304 NA
ATOM     11  C   UNL     1       8.117  -2.426   6.476  0.00  0.00    +0.066 C 
ATOM     12  C   UNL     1       7.635  -2.692   5.048  0.00  0.00    -0.063 C 
ATOM     13  H   UNL     1       6.409  -1.061   5.005  0.00  0.00    -0.081 HD
BRANCH  10  14
ATOM     14  C   UNL     1       7.591  -2.781   8.814  0.00  0.00    +0.112 C 
BRANCH  14  15
ATOM     15  C   UNL     1       6.836  -3.745   9.731  0.00  0.00    +0.171 C 
BRANCH  15  16
ATOM     16  O   UNL     1       7.178  -5.091   9.393  0.00  0.00    -0.394 OA
ATOM     17  H   UNL     1       6.735  -5.758   9.935  0.00  0.00    +0.209 HD
ENDBRANCH  15  16
ENDBRANCH  14  15
ENDBRANCH  10  14
ENDBRANCH   4   7
BRANCH   1  18
ATOM     18  C   UNL     1       4.615  -1.291  -0.492  0.00  0.00    +0.123 C 
BRANCH  18  22
ATOM     19  C   UNL     1       1.184   1.216  -0.967  0.00  0.00    +0.019 A 
ATOM     20  C   UNL     1       2.447   1.775  -0.951  0.00  0.00    +0.047 A 
ATOM     21  C   UNL     1       3.562   0.964  -0.797  0.00  0.00    +0.121 A 
ATOM     22  C   UNL     1       3.406  -0.407  -0.659  0.00  0.00    +0.009 A 
ATOM     23  C   UNL     1       2.141  -0.963  -0.676  0.00  0.00    +0.023 A 
ATOM     24  C   UNL     1       1.030  -0.152  -0.830  0.00  0.00    +0.018 A 
ATOM     25 BR   UNL     1      -0.700  -0.915  -0.852  0.00  0.00    -0.050 Br
BRANCH  21  26
ATOM     26  O   UNL     1       4.805   1.513  -0.781  0.00  0.00    -0.506 OA
ATOM     27  H   UNL     1       5.113   1.766   0.100  0.00  0.00    +0.292 HD
ENDBRANCH  21  26
ENDBRANCH  18  22
ENDBRANCH   1  18
TORSDOF 7
