REMARK  Name = ZINC19851671
REMARK  11 active torsions:
REMARK  status: ('A' for Active; 'I' for Inactive)
REMARK    1  A    between atoms: C_1  and  C_2
REMARK    2  A    between atoms: C_2  and  O_3
REMARK    3  A    between atoms: O_3  and  C_4
REMARK    4  A    between atoms: C_7  and  C_13
REMARK    5  A    between atoms: C_9  and  O_10
REMARK    6  A    between atoms: O_10  and  C_11
REMARK    7  A    between atoms: C_11  and  C_12
REMARK    8  A    between atoms: C_14  and  C_23
REMARK    9  A    between atoms: C_15  and  N_22
REMARK   10  A    between atoms: C_17  and  N_21
REMARK   11  A    between atoms: C_18  and  C_19
REMARK                            x       y       z     vdW  Elec       q    Type
REMARK                         _______ _______ _______ _____ _____    ______ ____
ROOT
ATOM      1  C   UNL     1      -1.996  -6.097  -0.011  0.00  0.00    +0.105 C 
ATOM      2  C   UNL     1      -1.465  -6.635   1.269  0.00  0.00    +0.069 C 
ATOM      3  C   UNL     1      -0.246  -7.182   1.450  0.00  0.00    +0.079 C 
ATOM      4  S   UNL     1       0.891  -7.347   0.116  0.00  0.00    -0.058 S 
ATOM      5  C   UNL     1      -0.125  -7.184  -1.312  0.00  0.00    +0.079 C 
ATOM      6  C   UNL     1      -1.355  -6.637  -1.239  0.00  0.00    +0.069 C 
ENDROOT
BRANCH   1  10
ATOM      7  C   UNL     1      -1.498  -1.849   0.006  0.00  0.00    +0.162 A 
ATOM      8  C   UNL     1      -0.389  -2.680  -0.003  0.00  0.00    +0.050 A 
ATOM      9  C   UNL     1      -0.553  -4.052  -0.008  0.00  0.00    +0.008 A 
ATOM     10  C   UNL     1      -1.823  -4.600  -0.005  0.00  0.00    -0.030 A 
ATOM     11  C   UNL     1      -2.934  -3.777   0.004  0.00  0.00    +0.054 A 
ATOM     12  C   UNL     1      -2.776  -2.400   0.016  0.00  0.00    +0.162 A 
BRANCH   7  13
ATOM     13  O   UNL     1      -1.339  -0.499   0.012  0.00  0.00    -0.489 OA
BRANCH  13  15
ATOM     14  C   UNL     1      -0.019   1.526   0.010  0.00  0.00    +0.048 C 
ATOM     15  C   UNL     1       0.002  -0.004   0.002  0.00  0.00    +0.226 C 
ENDBRANCH  13  15
ENDBRANCH   7  13
BRANCH  12  16
ATOM     16  O   UNL     1      -3.868  -1.589   0.030  0.00  0.00    -0.489 OA
BRANCH  16  17
ATOM     17  C   UNL     1      -5.148  -2.225   0.039  0.00  0.00    +0.226 C 
ATOM     18  C   UNL     1      -6.246  -1.159   0.055  0.00  0.00    +0.048 C 
ENDBRANCH  16  17
ENDBRANCH  12  16
ENDBRANCH   1  10
BRANCH   5  19
ATOM     19  N   UNL     1       0.346  -7.622  -2.527  0.00  0.00    -0.352 N 
ATOM     20  H   UNL     1       1.230  -8.017  -2.591  0.00  0.00    +0.143 HD
ATOM     21  H   UNL     1      -0.205  -7.537  -3.321  0.00  0.00    +0.143 HD
ENDBRANCH   5  19
BRANCH   3  22
ATOM     22  N   UNL     1       0.117  -7.619   2.702  0.00  0.00    -0.352 N 
ATOM     23  H   UNL     1      -0.502  -7.532   3.444  0.00  0.00    +0.143 HD
ATOM     24  H   UNL     1       0.992  -8.014   2.844  0.00  0.00    +0.143 HD
ENDBRANCH   3  22
BRANCH   6  25
ATOM     25  C   UNL     1      -2.112  -6.570  -2.453  0.00  0.00    +0.098 C 
ATOM     26  N   UNL     1      -2.712  -6.517  -3.416  0.00  0.00    -0.191 NA
ENDBRANCH   6  25
BRANCH   2  27
ATOM     27  C   UNL     1      -2.324  -6.565   2.412  0.00  0.00    +0.098 C 
ATOM     28  N   UNL     1      -3.006  -6.510   3.319  0.00  0.00    -0.191 NA
ENDBRANCH   2  27
TORSDOF 9
