REMARK  Name = ZINC03544787
REMARK  5 active torsions:
REMARK  status: ('A' for Active; 'I' for Inactive)
REMARK    1  A    between atoms: C_1  and  C_2
REMARK    2  A    between atoms: C_2  and  C_4
REMARK    3  A    between atoms: C_2  and  S_15
REMARK    4  A    between atoms: S_15  and  C_16
REMARK    5  A    between atoms: N_26  and  C_27
REMARK                            x       y       z     vdW  Elec       q    Type
REMARK                         _______ _______ _______ _____ _____    ______ ____
ROOT
ATOM      1  C   UNL     1       2.264   0.741   1.341  0.00  0.00    +0.177 A 
ATOM      2  N   UNL     1       1.533  -0.051   2.086  0.00  0.00    -0.223 NA
ATOM      3  C   UNL     1       2.027  -0.620   3.211  0.00  0.00    +0.079 A 
ATOM      4  C   UNL     1       1.249  -1.465   4.007  0.00  0.00    +0.028 A 
ATOM      5  C   UNL     1       1.788  -2.018   5.134  0.00  0.00    +0.002 A 
ATOM      6  C   UNL     1       3.101  -1.754   5.502  0.00  0.00    +0.001 A 
ATOM      7  C   UNL     1       3.888  -0.931   4.744  0.00  0.00    +0.015 A 
ATOM      8  C   UNL     1       3.363  -0.353   3.588  0.00  0.00    +0.065 A 
ATOM      9  C   UNL     1       4.161   0.538   2.736  0.00  0.00    +0.267 A 
ATOM     10  O   UNL     1       5.316   0.805   3.009  0.00  0.00    -0.267 OA
ATOM     11  N   UNL     1       3.566   1.046   1.632  0.00  0.00    -0.255 N 
ENDROOT
BRANCH  11  12
ATOM     12  C   UNL     1       4.286   1.897   0.783  0.00  0.00    +0.052 A 
ATOM     13  C   UNL     1       3.949   3.241   0.695  0.00  0.00    +0.026 A 
ATOM     14  C   UNL     1       4.666   4.078  -0.138  0.00  0.00    +0.002 A 
ATOM     15  C   UNL     1       5.710   3.576  -0.893  0.00  0.00    +0.000 A 
ATOM     16  C   UNL     1       6.044   2.236  -0.812  0.00  0.00    +0.002 A 
ATOM     17  C   UNL     1       5.335   1.396   0.024  0.00  0.00    +0.026 A 
ENDBRANCH  11  12
BRANCH   1  18
ATOM     18  S   UNL     1       1.541   1.439  -0.106  0.00  0.00    -0.075 S 
BRANCH  18  20
ATOM     19  C   UNL     1      -0.833   1.260   1.236  0.00  0.00    +0.029 C 
ATOM     20  C   UNL     1      -0.118   0.721  -0.005  0.00  0.00    +0.137 C 
BRANCH  20  21
ATOM     21  C   UNL     1      -0.902   1.092  -1.237  0.00  0.00    +0.233 C 
ATOM     22  O   UNL     1      -0.629   2.104  -1.848  0.00  0.00    -0.274 OA
ATOM     23  N   UNL     1      -1.906   0.300  -1.661  0.00  0.00    -0.270 N 
ATOM     24  C   UNL     1      -2.396  -0.887  -0.954  0.00  0.00    +0.118 C 
ATOM     25  C   UNL     1      -3.536  -1.435  -1.828  0.00  0.00    +0.056 C 
ATOM     26  C   UNL     1      -3.600  -0.491  -3.007  0.00  0.00    -0.024 A 
ATOM     27  C   UNL     1      -2.630   0.486  -2.843  0.00  0.00    +0.040 A 
ATOM     28  C   UNL     1      -2.497   1.478  -3.815  0.00  0.00    +0.024 A 
ATOM     29  C   UNL     1      -3.321   1.484  -4.921  0.00  0.00    +0.002 A 
ATOM     30  C   UNL     1      -4.285   0.506  -5.075  0.00  0.00    +0.000 A 
ATOM     31  C   UNL     1      -4.423  -0.481  -4.116  0.00  0.00    +0.005 A 
ENDBRANCH  20  21
ENDBRANCH  18  20
ENDBRANCH   1  18
TORSDOF 4
