REMARK  Name = ZINC39888076
REMARK  9 active torsions:
REMARK  status: ('A' for Active; 'I' for Inactive)
REMARK    1  A    between atoms: C_1  and  O_2
REMARK    2  A    between atoms: O_2  and  C_3
REMARK    3  A    between atoms: C_5  and  C_17
REMARK    4  A    between atoms: C_8  and  O_9
REMARK    5  A    between atoms: O_9  and  C_10
REMARK    6  A    between atoms: C_10  and  C_11
REMARK    7  A    between atoms: N_18  and  N_19
REMARK    8  A    between atoms: C_24  and  C_27
REMARK    9  A    between atoms: C_27  and  C_28
REMARK                            x       y       z     vdW  Elec       q    Type
REMARK                         _______ _______ _______ _____ _____    ______ ____
ROOT
ATOM      1  C   UNL     1      -4.854   0.223   0.038  0.00  0.00    +0.143 C 
ATOM      2  N   UNL     1      -6.006  -0.391   0.045  0.00  0.00    -0.155 NA
ENDROOT
BRANCH   2   3
ATOM      3  N   UNL     1      -7.101   0.292   0.054  0.00  0.00    -0.127 NA
ATOM      4  C   UNL     1      -8.262  -0.327   0.062  0.00  0.00    +0.183 C 
ATOM      5  N   UNL     1      -8.504  -1.685   0.067  0.00  0.00    -0.263 N 
ATOM      6  C   UNL     1      -9.727  -2.188   0.075  0.00  0.00    +0.232 C 
ATOM      7  O   UNL     1      -9.931  -3.383   0.079  0.00  0.00    -0.274 OA
ATOM      8  C   UNL     1     -10.860  -1.174   0.078  0.00  0.00    +0.144 C 
ATOM      9  S   UNL     1      -9.897   0.395   0.075  0.00  0.00    -0.075 S 
ATOM     10  H   UNL     1      -7.749  -2.293   0.065  0.00  0.00    +0.157 HD
BRANCH   8  11
ATOM     11  C   UNL     1     -11.723  -1.304  -1.179  0.00  0.00    +0.059 C 
BRANCH  11  12
ATOM     12  C   UNL     1     -12.900  -0.368  -1.078  0.00  0.00    -0.044 A 
ATOM     13  C   UNL     1     -14.079  -0.801  -0.497  0.00  0.00    +0.005 A 
ATOM     14  C   UNL     1     -15.159   0.056  -0.405  0.00  0.00    +0.022 A 
ATOM     15  C   UNL     1     -15.062   1.347  -0.893  0.00  0.00    +0.059 A 
ATOM     16  C   UNL     1     -13.882   1.780  -1.474  0.00  0.00    +0.060 A 
ATOM     17  C   UNL     1     -12.800   0.923  -1.561  0.00  0.00    +0.025 A 
ATOM     18 CL   UNL     1     -13.759   3.399  -2.087  0.00  0.00    -0.082 Cl
ATOM     19 CL   UNL     1     -16.419   2.423  -0.777  0.00  0.00    -0.082 Cl
ENDBRANCH  11  12
ENDBRANCH   8  11
ENDBRANCH   2   3
BRANCH   1  22
ATOM     20  C   UNL     1      -1.201  -0.638   0.010  0.00  0.00    +0.162 A 
ATOM     21  C   UNL     1      -2.370   0.099   0.019  0.00  0.00    +0.059 A 
ATOM     22  C   UNL     1      -3.606  -0.556   0.027  0.00  0.00    -0.002 A 
ATOM     23  C   UNL     1      -3.651  -1.954   0.026  0.00  0.00    +0.013 A 
ATOM     24  C   UNL     1      -2.480  -2.681   0.016  0.00  0.00    +0.050 A 
ATOM     25  C   UNL     1      -1.255  -2.030   0.003  0.00  0.00    +0.162 A 
BRANCH  20  27
ATOM     26  C   UNL     1      -0.017   1.425   0.010  0.00  0.00    +0.277 C 
ATOM     27  O   UNL     1       0.002  -0.004   0.002  0.00  0.00    -0.491 OA
ENDBRANCH  20  27
BRANCH  25  28
ATOM     28  O   UNL     1      -0.103  -2.753  -0.011  0.00  0.00    -0.484 OA
BRANCH  28  29
ATOM     29  C   UNL     1      -0.231  -4.176  -0.018  0.00  0.00    +0.264 C 
BRANCH  29  30
ATOM     30  C   UNL     1       1.140  -4.803  -0.034  0.00  0.00    -0.010 A 
ATOM     31  C   UNL     1       1.760  -5.079  -1.238  0.00  0.00    +0.007 A 
ATOM     32  C   UNL     1       3.017  -5.654  -1.253  0.00  0.00    +0.000 A 
ATOM     33  C   UNL     1       3.654  -5.953  -0.063  0.00  0.00    +0.000 A 
ATOM     34  C   UNL     1       3.034  -5.676   1.141  0.00  0.00    +0.000 A 
ATOM     35  C   UNL     1       1.779  -5.097   1.156  0.00  0.00    +0.007 A 
ENDBRANCH  29  30
ENDBRANCH  28  29
ENDBRANCH  25  28
ENDBRANCH   1  22
TORSDOF 8
