REMARK  Name = ZINC09137294
REMARK  8 active torsions:
REMARK  status: ('A' for Active; 'I' for Inactive)
REMARK    1  A    between atoms: C_1  and  N_2
REMARK    2  A    between atoms: C_10  and  C_12
REMARK    3  A    between atoms: C_12  and  C_14
REMARK    4  A    between atoms: C_12  and  N_68
REMARK    5  A    between atoms: C_14  and  N_15
REMARK    6  A    between atoms: C_16  and  C_18
REMARK    7  A    between atoms: C_18  and  C_19
REMARK    8  A    between atoms: C_19  and  C_20
REMARK                            x       y       z     vdW  Elec       q    Type
REMARK                         _______ _______ _______ _____ _____    ______ ____
ROOT
ATOM      1  C   UNL     1       3.539  -1.951   4.166  0.00  0.00    -0.020 C 
ENDROOT
BRANCH   1  11
ATOM      2  C   UNL     1      -1.299  -1.734   0.110  0.00  0.00    +0.129 C 
ATOM      3  N   UNL     1      -0.182  -0.782   0.042  0.00  0.00    -0.333 N 
ATOM      4  C   UNL     1      -0.669   0.598   0.015  0.00  0.00    +0.105 C 
ATOM      5  C   UNL     1       0.538   1.544  -0.027  0.00  0.00    +0.024 C 
ATOM      6  C   UNL     1       1.262   1.444   1.318  0.00  0.00    +0.038 C 
ATOM      7  C   UNL     1       1.445  -0.006   1.689  0.00  0.00    -0.026 A 
ATOM      8  C   UNL     1       0.738  -1.019   1.063  0.00  0.00    +0.033 A 
ATOM      9  C   UNL     1       0.944  -2.342   1.456  0.00  0.00    +0.023 A 
ATOM     10  C   UNL     1       1.845  -2.641   2.456  0.00  0.00    +0.004 A 
ATOM     11  C   UNL     1       2.551  -1.626   3.075  0.00  0.00    -0.059 A 
ATOM     12  C   UNL     1       2.351  -0.315   2.691  0.00  0.00    +0.007 A 
ENDBRANCH   1  11
BRANCH   1  18
ATOM     13  C   UNL     1       3.542  -3.221   6.226  0.00  0.00    -0.078 C 
ATOM     14  C   UNL     1       3.004  -4.488   6.896  0.00  0.00    -0.019 C 
ATOM     15  C   UNL     1       3.582  -5.717   6.189  0.00  0.00    -0.004 C 
ATOM     16  C   UNL     1       3.211  -5.663   4.704  0.00  0.00    -0.019 C 
ATOM     17  C   UNL     1       3.742  -4.362   4.098  0.00  0.00    -0.078 C 
ATOM     18  N   UNL     1       3.130  -3.218   4.806  0.00  0.00    +0.385 N 
ATOM     19  H   UNL     1       2.108  -3.303   4.755  0.00  0.00    -0.081 HD
ENDBRANCH   1  18
BRANCH   1  20
ATOM     20  C   UNL     1       4.939  -2.084   3.563  0.00  0.00    +0.093 C 
BRANCH  20  21
ATOM     21  N   UNL     1       5.920  -2.252   4.638  0.00  0.00    -0.317 N 
ATOM     22  C   UNL     1       7.204  -2.533   4.341  0.00  0.00    +0.213 C 
ATOM     23  O   UNL     1       7.548  -2.647   3.184  0.00  0.00    -0.276 OA
ATOM     24  H   UNL     1       5.644  -2.161   5.564  0.00  0.00    +0.149 HD
BRANCH  22  25
ATOM     25  C   UNL     1       8.213  -2.706   5.448  0.00  0.00    +0.096 C 
BRANCH  25  26
ATOM     26  C   UNL     1       9.584  -3.016   4.844  0.00  0.00    +0.013 C 
BRANCH  26  27
ATOM     27  C   UNL     1      10.608  -3.192   5.967  0.00  0.00    -0.011 C 
ATOM     28  C   UNL     1      10.847  -1.845   6.679  0.00  0.00    +0.003 C 
ATOM     29  C   UNL     1      12.361  -1.852   7.007  0.00  0.00    +0.000 C 
ATOM     30  C   UNL     1      12.978  -2.529   5.758  0.00  0.00    +0.000 C 
ATOM     31  C   UNL     1      11.963  -3.627   5.381  0.00  0.00    +0.003 C 
ENDBRANCH  26  27
ENDBRANCH  25  26
ENDBRANCH  22  25
ENDBRANCH  20  21
ENDBRANCH   1  20
TORSDOF 7
