REMARK  Name = ZINC67551874
REMARK  3 active torsions:
REMARK  status: ('A' for Active; 'I' for Inactive)
REMARK    1  A    between atoms: C_5  and  C_6
REMARK    2  A    between atoms: C_8  and  C_11
REMARK    3  A    between atoms: C_17  and  C_19
REMARK                            x       y       z     vdW  Elec       q    Type
REMARK                         _______ _______ _______ _____ _____    ______ ____
ROOT
ATOM      1  C   UNL     1      -2.713  -4.264   0.014  0.00  0.00    +0.271 C 
ATOM      2  O   UNL     1      -1.843  -5.113   0.006  0.00  0.00    -0.268 OA
ATOM      3  N   UNL     1      -4.010  -4.629   0.022  0.00  0.00    -0.258 N 
ATOM      4  C   UNL     1      -4.354  -5.975   0.022  0.00  0.00    +0.188 A 
ATOM      5  N   UNL     1      -3.581  -7.053   0.021  0.00  0.00    -0.125 NA
ATOM      6  N   UNL     1      -4.064  -8.218   0.021  0.00  0.00    -0.139 NA
ATOM      7  C   UNL     1      -5.364  -8.439   0.023  0.00  0.00    +0.169 A 
ATOM      8  S   UNL     1      -5.967  -6.753   0.032  0.00  0.00    -0.030 S 
ATOM      9  H   UNL     1      -4.704  -3.951   0.029  0.00  0.00    +0.157 HD
ENDROOT
BRANCH   1  12
ATOM     10  C   UNL     1      -1.126  -0.946   0.008  0.00  0.00    +0.175 A 
ATOM     11  C   UNL     1      -1.036  -2.307   0.006  0.00  0.00    +0.086 A 
ATOM     12  C   UNL     1      -2.346  -2.827   0.014  0.00  0.00    +0.169 A 
ATOM     13  N   UNL     1      -3.185  -1.817   0.021  0.00  0.00    -0.073 NA
ATOM     14  O   UNL     1      -2.433  -0.618   0.024  0.00  0.00    -0.353 OA
BRANCH  10  19
ATOM     15  C   UNL     1      -0.017   1.379   0.010  0.00  0.00    +0.021 A 
ATOM     16  C   UNL     1       1.184   2.050   0.002  0.00  0.00    +0.028 A 
ATOM     17  C   UNL     1       2.343   1.338  -0.013  0.00  0.00    +0.079 A 
ATOM     18  S   UNL     1       1.754  -0.347  -0.017  0.00  0.00    -0.074 S 
ATOM     19  C   UNL     1       0.002  -0.004   0.002  0.00  0.00    +0.059 A 
ATOM     20 CL   UNL     1       3.978   1.920  -0.026  0.00  0.00    -0.076 Cl
ENDBRANCH  10  19
ENDBRANCH   1  12
BRANCH   7  21
ATOM     21  C   UNL     1      -6.125  -9.740   0.023  0.00  0.00    +0.398 C 
ATOM     22  F   UNL     1      -5.374 -10.719   0.681  0.00  0.00    -0.202 F 
ATOM     23  F   UNL     1      -7.346  -9.566   0.684  0.00  0.00    -0.202 F 
ENDBRANCH   7  21
TORSDOF 3
