REMARK  Name = ZINC00843346
REMARK  8 active torsions:
REMARK  status: ('A' for Active; 'I' for Inactive)
REMARK    1  A    between atoms: C_1  and  C_2
REMARK    2  A    between atoms: C_5  and  C_27
REMARK    3  A    between atoms: N_6  and  C_7
REMARK    4  A    between atoms: C_10  and  C_14
REMARK    5  A    between atoms: C_11  and  O_13
REMARK    6  A    between atoms: N_16  and  N_17
REMARK    7  A    between atoms: C_18  and  C_19
REMARK    8  A    between atoms: C_24  and  O_25
REMARK                            x       y       z     vdW  Elec       q    Type
REMARK                         _______ _______ _______ _____ _____    ______ ____
ROOT
ATOM      1  C   UNL     1       0.030  -0.377   2.433  0.00  0.00    +0.050 A 
ATOM      2  C   UNL     1       1.116   0.344   2.922  0.00  0.00    +0.027 A 
ATOM      3  C   UNL     1       1.130   0.776   4.228  0.00  0.00    +0.019 A 
ATOM      4  C   UNL     1       0.050   0.491   5.069  0.00  0.00    +0.080 A 
ATOM      5  C   UNL     1      -1.044  -0.235   4.576  0.00  0.00    +0.131 A 
ATOM      6  C   UNL     1      -1.049  -0.660   3.258  0.00  0.00    +0.072 A 
ENDROOT
BRANCH   1  12
ATOM      7  C   UNL     1      -0.018   1.503   0.010  0.00  0.00    +0.064 C 
ATOM      8  C   UNL     1       0.002  -0.004   0.002  0.00  0.00    +0.021 A 
ATOM      9  C   UNL     1       0.008  -0.789  -1.094  0.00  0.00    +0.023 A 
ATOM     10  C   UNL     1       0.029  -2.128  -0.656  0.00  0.00    +0.023 A 
ATOM     11  C   UNL     1       0.035  -2.114   0.692  0.00  0.00    +0.021 A 
ATOM     12  N   UNL     1       0.024  -0.811   1.104  0.00  0.00    -0.318 N 
ATOM     13  C   UNL     1       0.055  -3.325   1.589  0.00  0.00    +0.064 C 
ENDBRANCH   1  12
BRANCH   4  14
ATOM     14  C   UNL     1       0.062   0.951   6.469  0.00  0.00    +0.267 C 
ATOM     15  O   UNL     1      -0.879   0.702   7.199  0.00  0.00    -0.268 OA
ATOM     16  N   UNL     1       1.114   1.648   6.940  0.00  0.00    -0.203 N 
ATOM     17  H   UNL     1       1.865   1.847   6.358  0.00  0.00    +0.178 HD
BRANCH  16  18
ATOM     18  N   UNL     1       1.125   2.086   8.271  0.00  0.00    -0.187 NA
ATOM     19  C   UNL     1       2.139   2.757   8.725  0.00  0.00    +0.142 C 
BRANCH  19  20
ATOM     20  C   UNL     1       2.151   3.217  10.125  0.00  0.00    +0.037 A 
ATOM     21  C   UNL     1       3.237   3.945  10.616  0.00  0.00    +0.033 A 
ATOM     22  C   UNL     1       3.242   4.373  11.928  0.00  0.00    +0.042 A 
ATOM     23  C   UNL     1       2.173   4.083  12.761  0.00  0.00    +0.023 A 
ATOM     24  C   UNL     1       1.092   3.364  12.286  0.00  0.00    +0.047 A 
ATOM     25  C   UNL     1       1.069   2.932  10.970  0.00  0.00    +0.126 A 
ATOM     26 CL   UNL     1       4.592   5.277  12.538  0.00  0.00    -0.084 Cl
BRANCH  25  27
ATOM     27  O   UNL     1       0.005   2.230  10.501  0.00  0.00    -0.506 OA
ATOM     28  H   UNL     1       0.086   1.273  10.610  0.00  0.00    +0.292 HD
ENDBRANCH  25  27
ENDBRANCH  19  20
ENDBRANCH  16  18
ENDBRANCH   4  14
BRANCH   5  29
ATOM     29  O   UNL     1      -2.096  -0.516   5.386  0.00  0.00    -0.506 OA
ATOM     30  H   UNL     1      -2.790   0.156   5.376  0.00  0.00    +0.292 HD
ENDBRANCH   5  29
TORSDOF 6
