REMARK  Name = ZINC27322675
REMARK  10 active torsions:
REMARK  status: ('A' for Active; 'I' for Inactive)
REMARK    1  A    between atoms: C_1  and  C_2
REMARK    2  A    between atoms: C_2  and  C_3
REMARK    3  A    between atoms: C_3  and  C_5
REMARK    4  A    between atoms: C_3  and  C_11
REMARK    5  A    between atoms: N_13  and  C_14
REMARK    6  A    between atoms: C_21  and  C_25
REMARK    7  A    between atoms: C_22  and  C_23
REMARK    8  A    between atoms: C_22  and  C_24
REMARK    9  A    between atoms: C_25  and  S_26
REMARK   10  A    between atoms: S_26  and  N_29
REMARK                            x       y       z     vdW  Elec       q    Type
REMARK                         _______ _______ _______ _____ _____    ______ ____
ROOT
ATOM      1  C   UNL     1       2.104   1.242   3.819  0.00  0.00    +0.081 C 
ATOM      2  C   UNL     1       2.739  -0.153   3.619  0.00  0.00    +0.027 C 
ATOM      3  C   UNL     1       4.278   0.100   3.709  0.00  0.00    -0.003 C 
ATOM      4  C   UNL     1       4.623   0.884   2.406  0.00  0.00    +0.005 C 
ATOM      5  C   UNL     1       3.973   2.294   2.602  0.00  0.00    +0.011 C 
ATOM      6  C   UNL     1       3.315   2.205   4.013  0.00  0.00    +0.015 C 
ATOM      7  C   UNL     1       4.319   1.261   4.765  0.00  0.00    -0.023 C 
ATOM      8  C   UNL     1       5.712   1.882   4.881  0.00  0.00    +0.012 C 
ATOM      9  C   UNL     1       3.780   0.820   6.127  0.00  0.00    +0.012 C 
ENDROOT
BRANCH   1  12
ATOM     10  C   UNL     1       0.090   1.133   2.452  0.00  0.00    +0.222 C 
ATOM     11  O   UNL     1      -0.386   0.371   3.267  0.00  0.00    -0.275 OA
ATOM     12  N   UNL     1       1.331   1.625   2.635  0.00  0.00    -0.311 N 
ATOM     13  H   UNL     1       1.763   2.316   1.896  0.00  0.00    +0.149 HD
BRANCH  10  14
ATOM     14  C   UNL     1      -0.705   1.527   1.234  0.00  0.00    +0.125 C 
BRANCH  14  15
ATOM     15  C   UNL     1      -2.048   0.844   1.268  0.00  0.00    +0.071 A 
ATOM     16  C   UNL     1      -2.295  -0.393   1.740  0.00  0.00    +0.108 A 
ATOM     17  N   UNL     1      -3.636  -0.616   1.585  0.00  0.00    -0.351 N 
ATOM     18  H   UNL     1      -4.077  -1.570   1.910  0.00  0.00    +0.166 HD
ATOM     19  C   UNL     1      -4.161   0.490   1.015  0.00  0.00    +0.196 A 
ATOM     20  N   UNL     1      -3.206   1.359   0.829  0.00  0.00    -0.240 NA
ENDBRANCH  14  15
BRANCH  14  22
ATOM     21  C   UNL     1      -0.694   1.615  -1.262  0.00  0.00    +0.005 C 
ATOM     22  C   UNL     1       0.051   1.105  -0.027  0.00  0.00    +0.015 C 
ENDBRANCH  14  22
ENDBRANCH  10  14
ENDBRANCH   1  12
BRANCH   6  23
ATOM     23  C   UNL     1       3.005   3.541   4.692  0.00  0.00    +0.194 C 
BRANCH  23  24
ATOM     24  S   UNL     1       1.810   4.466   3.689  0.00  0.00    +0.032 S 
ATOM     25  O   UNL     1       2.407   4.869   2.464  0.00  0.00    -0.158 OA
ATOM     26  O   UNL     1       0.550   3.809   3.699  0.00  0.00    -0.158 OA
BRANCH  24  27
ATOM     27  N   UNL     1       1.559   5.876   4.520  0.00  0.00    -0.181 NA
ATOM     28  C   UNL     1       0.490   5.973   5.523  0.00  0.00    +0.110 C 
ATOM     29  C   UNL     1       1.105   6.458   6.846  0.00  0.00    +0.028 C 
ATOM     30  C   UNL     1       1.871   7.755   6.600  0.00  0.00    -0.001 C 
ATOM     31  C   UNL     1       0.909   8.844   6.088  0.00  0.00    +0.016 C 
ATOM     32  C   UNL     1       1.486  10.123   6.733  0.00  0.00    +0.036 C 
ATOM     33  C   UNL     1       2.208   9.650   7.977  0.00  0.00    -0.044 A 
ATOM     34  C   UNL     1       2.431   8.287   7.899  0.00  0.00    -0.038 A 
ATOM     35  C   UNL     1       3.083   7.636   8.932  0.00  0.00    +0.004 A 
ATOM     36  C   UNL     1       3.511   8.341  10.039  0.00  0.00    +0.000 A 
ATOM     37  C   UNL     1       3.287   9.703  10.118  0.00  0.00    +0.000 A 
ATOM     38  C   UNL     1       2.636  10.355   9.089  0.00  0.00    +0.004 A 
ATOM     39  C   UNL     1       2.993   7.535   5.590  0.00  0.00    +0.028 C 
ATOM     40  C   UNL     1       2.397   7.056   4.262  0.00  0.00    +0.110 C 
ENDBRANCH  24  27
ENDBRANCH  23  24
ENDBRANCH   6  23
TORSDOF 7
