REMARK  Name = ZINC09345426
REMARK  8 active torsions:
REMARK  status: ('A' for Active; 'I' for Inactive)
REMARK    1  A    between atoms: C_1  and  O_2
REMARK    2  A    between atoms: O_2  and  C_3
REMARK    3  A    between atoms: C_6  and  C_11
REMARK    4  A    between atoms: C_8  and  O_9
REMARK    5  A    between atoms: O_9  and  C_10
REMARK    6  A    between atoms: C_22  and  C_24
REMARK    7  A    between atoms: C_34  and  S_36
REMARK    8  A    between atoms: S_36  and  C_37
REMARK                            x       y       z     vdW  Elec       q    Type
REMARK                         _______ _______ _______ _____ _____    ______ ____
ROOT
ATOM      1  C   UNL     1      -4.987  -2.627   0.035  0.00  0.00    +0.159 C 
ATOM      2  C   UNL     1      -5.495  -2.691  -1.388  0.00  0.00    +0.025 C 
ATOM      3  C   UNL     1      -6.687  -2.122  -1.663  0.00  0.00    +0.058 C 
ATOM      4  C   UNL     1      -7.168  -2.185  -3.067  0.00  0.00    +0.040 A 
ATOM      5  C   UNL     1      -8.492  -1.924  -3.392  0.00  0.00    +0.013 A 
ATOM      6  C   UNL     1      -8.897  -1.996  -4.711  0.00  0.00    +0.001 A 
ATOM      7  C   UNL     1      -7.989  -2.326  -5.702  0.00  0.00    +0.004 A 
ATOM      8  C   UNL     1      -6.668  -2.586  -5.386  0.00  0.00    +0.046 A 
ATOM      9  C   UNL     1      -6.248  -2.517  -4.070  0.00  0.00    +0.131 A 
ATOM     10  O   UNL     1      -4.956  -2.761  -3.733  0.00  0.00    -0.479 OA
ATOM     11  C   UNL     1      -4.707  -3.376  -2.467  0.00  0.00    +0.234 C 
ATOM     12  N   UNL     1      -7.421  -1.513  -0.701  0.00  0.00    -0.326 N 
ATOM     13  C   UNL     1      -7.054  -1.412   0.559  0.00  0.00    +0.216 C 
ATOM     14  N   UNL     1      -5.858  -1.938   0.996  0.00  0.00    -0.209 N 
ATOM     15  N   UNL     1      -5.769  -1.660   2.362  0.00  0.00    -0.239 N 
ATOM     16  C   UNL     1      -6.913  -0.981   2.691  0.00  0.00    +0.174 C 
ATOM     17  N   UNL     1      -7.656  -0.848   1.622  0.00  0.00    -0.192 NA
ATOM     18  H   UNL     1      -8.272  -1.125  -0.957  0.00  0.00    +0.169 HD
ATOM     19  H   UNL     1      -5.043  -1.900   2.958  0.00  0.00    +0.172 HD
ENDROOT
BRANCH   1  23
ATOM     20  C   UNL     1      -1.201  -0.638   0.010  0.00  0.00    +0.162 A 
ATOM     21  C   UNL     1      -2.374   0.099   0.019  0.00  0.00    +0.050 A 
ATOM     22  C   UNL     1      -3.596  -0.546   0.027  0.00  0.00    +0.009 A 
ATOM     23  C   UNL     1      -3.652  -1.928   0.026  0.00  0.00    -0.017 A 
ATOM     24  C   UNL     1      -2.485  -2.669   0.017  0.00  0.00    +0.055 A 
ATOM     25  C   UNL     1      -1.257  -2.028   0.003  0.00  0.00    +0.162 A 
BRANCH  20  27
ATOM     26  C   UNL     1      -0.017   1.425   0.010  0.00  0.00    +0.277 C 
ATOM     27  O   UNL     1       0.002  -0.004   0.002  0.00  0.00    -0.491 OA
ENDBRANCH  20  27
BRANCH  25  28
ATOM     28  O   UNL     1      -0.108  -2.756  -0.012  0.00  0.00    -0.491 OA
ATOM     29  C   UNL     1      -0.242  -4.179  -0.018  0.00  0.00    +0.277 C 
ENDBRANCH  25  28
ENDBRANCH   1  23
BRANCH  11  30
ATOM     30  C   UNL     1      -5.107  -4.827  -2.531  0.00  0.00    -0.003 A 
ATOM     31  C   UNL     1      -6.205  -5.210  -3.279  0.00  0.00    +0.007 A 
ATOM     32  C   UNL     1      -6.571  -6.541  -3.338  0.00  0.00    +0.000 A 
ATOM     33  C   UNL     1      -5.839  -7.491  -2.649  0.00  0.00    +0.000 A 
ATOM     34  C   UNL     1      -4.741  -7.108  -1.902  0.00  0.00    +0.000 A 
ATOM     35  C   UNL     1      -4.372  -5.777  -1.847  0.00  0.00    +0.007 A 
ENDBRANCH  11  30
BRANCH  16  36
ATOM     36  S   UNL     1      -7.321  -0.386   4.299  0.00  0.00    -0.092 S 
ATOM     37  C   UNL     1      -8.935   0.411   4.075  0.00  0.00    +0.093 C 
ENDBRANCH  16  36
TORSDOF 5
