REMARK  Name = ZINC54619455
REMARK  8 active torsions:
REMARK  status: ('A' for Active; 'I' for Inactive)
REMARK    1  A    between atoms: C_1  and  C_2
REMARK    2  A    between atoms: C_8  and  C_13
REMARK    3  A    between atoms: C_9  and  O_12
REMARK    4  A    between atoms: C_13  and  C_15
REMARK    5  A    between atoms: C_13  and  N_20
REMARK    6  A    between atoms: N_20  and  C_21
REMARK    7  A    between atoms: C_24  and  O_27
REMARK    8  A    between atoms: O_27  and  C_28
REMARK                            x       y       z     vdW  Elec       q    Type
REMARK                         _______ _______ _______ _____ _____    ______ ____
ROOT
ATOM      1  C   UNL     1       0.086  -4.769   3.747  0.00  0.00    +0.141 C 
ENDROOT
BRANCH   1   9
ATOM      2  C   UNL     1       0.200   1.365  -0.211  0.00  0.00    +0.065 C 
ATOM      3  C   UNL     1       0.261  -0.139  -0.161  0.00  0.00    +0.039 A 
ATOM      4  C   UNL     1       0.407  -0.852  -1.349  0.00  0.00    +0.023 A 
ATOM      5  C   UNL     1       0.465  -2.216  -1.323  0.00  0.00    +0.012 A 
ATOM      6  C   UNL     1       0.372  -2.861  -0.075  0.00  0.00    +0.004 A 
ATOM      7  C   UNL     1       0.423  -4.261   0.030  0.00  0.00    +0.010 A 
ATOM      8  C   UNL     1       0.331  -4.849   1.255  0.00  0.00    +0.010 A 
ATOM      9  C   UNL     1       0.185  -4.083   2.408  0.00  0.00    +0.021 A 
ATOM     10  C   UNL     1       0.131  -2.720   2.345  0.00  0.00    +0.148 A 
ATOM     11  C   UNL     1       0.224  -2.075   1.094  0.00  0.00    +0.113 A 
ATOM     12  N   UNL     1       0.180  -0.743   1.000  0.00  0.00    -0.248 NA
BRANCH  10  13
ATOM     13  O   UNL     1      -0.011  -1.989   3.481  0.00  0.00    -0.504 OA
ATOM     14  H   UNL     1       0.826  -1.739   3.896  0.00  0.00    +0.292 HD
ENDBRANCH  10  13
ENDBRANCH   1   9
BRANCH   1  15
ATOM     15  C   UNL     1       1.459  -4.882   4.357  0.00  0.00    +0.014 A 
ATOM     16  C   UNL     1       2.033  -4.113   5.314  0.00  0.00    +0.013 A 
ATOM     17  C   UNL     1       3.320  -4.405   5.726  0.00  0.00    +0.008 A 
ATOM     18  C   UNL     1       3.969  -5.452   5.161  0.00  0.00    +0.045 A 
ATOM     19  S   UNL     1       2.748  -6.067   4.013  0.00  0.00    -0.099 S 
ENDBRANCH   1  15
BRANCH   1  20
ATOM     20  N   UNL     1      -0.481  -6.108   3.568  0.00  0.00    -0.332 N 
ATOM     21  H   UNL     1      -0.394  -6.562   2.715  0.00  0.00    +0.147 HD
BRANCH  20  22
ATOM     22  C   UNL     1      -1.147  -6.733   4.628  0.00  0.00    +0.028 A 
ATOM     23  C   UNL     1      -1.277  -6.082   5.847  0.00  0.00    +0.026 A 
ATOM     24  C   UNL     1      -1.936  -6.699   6.893  0.00  0.00    +0.047 A 
ATOM     25  C   UNL     1      -2.467  -7.969   6.725  0.00  0.00    +0.120 A 
ATOM     26  C   UNL     1      -2.338  -8.620   5.508  0.00  0.00    +0.047 A 
ATOM     27  C   UNL     1      -1.684  -8.002   4.459  0.00  0.00    +0.026 A 
BRANCH  25  28
ATOM     28  O   UNL     1      -3.116  -8.576   7.755  0.00  0.00    -0.495 OA
ATOM     29  C   UNL     1      -3.638  -9.883   7.512  0.00  0.00    +0.277 C 
ENDBRANCH  25  28
ENDBRANCH  20  22
ENDBRANCH   1  20
TORSDOF 6
