REMARK  Name = ZINC20831730
REMARK  8 active torsions:
REMARK  status: ('A' for Active; 'I' for Inactive)
REMARK    1  A    between atoms: C_4  and  C_7
REMARK    2  A    between atoms: N_8  and  N_9
REMARK    3  A    between atoms: C_12  and  S_15
REMARK    4  A    between atoms: S_15  and  C_16
REMARK    5  A    between atoms: C_16  and  C_17
REMARK    6  A    between atoms: N_19  and  C_20
REMARK    7  A    between atoms: C_23  and  S_26
REMARK    8  A    between atoms: S_26  and  N_29
REMARK                            x       y       z     vdW  Elec       q    Type
REMARK                         _______ _______ _______ _____ _____    ______ ____
ROOT
ATOM      1  C   UNL     1      -0.519   6.699   0.626  0.00  0.00    +0.227 C 
ATOM      2  O   UNL     1      -0.386   7.778   1.164  0.00  0.00    -0.275 OA
ATOM      3  N   UNL     1      -1.692   6.376   0.045  0.00  0.00    -0.285 N 
ATOM      4  H   UNL     1      -1.789   5.430  -0.508  0.00  0.00    +0.155 HD
ENDROOT
BRANCH   3   5
ATOM      5  C   UNL     1      -2.785   7.243   0.145  0.00  0.00    +0.034 A 
ATOM      6  C   UNL     1      -4.073   6.732   0.239  0.00  0.00    +0.025 A 
ATOM      7  C   UNL     1      -5.149   7.591   0.345  0.00  0.00    +0.030 A 
ATOM      8  C   UNL     1      -4.947   8.959   0.344  0.00  0.00    +0.106 A 
ATOM      9  C   UNL     1      -3.666   9.471   0.245  0.00  0.00    +0.030 A 
ATOM     10  C   UNL     1      -2.585   8.617   0.146  0.00  0.00    +0.025 A 
BRANCH   8  11
ATOM     11  S   UNL     1      -6.323  10.051   0.472  0.00  0.00    +0.061 S 
ATOM     12  O   UNL     1      -7.366   9.319   1.101  0.00  0.00    -0.153 OA
ATOM     13  O   UNL     1      -5.825  11.273   0.998  0.00  0.00    -0.153 OA
BRANCH  11  14
ATOM     14  N   UNL     1      -6.836  10.375  -1.070  0.00  0.00    -0.177 NA
ATOM     15  C   UNL     1      -6.269  11.509  -1.765  0.00  0.00    +0.109 C 
ATOM     16  C   UNL     1      -7.103  12.774  -1.472  0.00  0.00    +0.017 C 
ATOM     17  C   UNL     1      -8.404  12.696  -2.154  0.00  0.00    +0.001 C 
ATOM     18  C   UNL     1      -9.289  11.543  -1.689  0.00  0.00    +0.001 C 
ATOM     19  C   UNL     1      -8.922  10.293  -2.449  0.00  0.00    +0.017 C 
ATOM     20  C   UNL     1      -7.856   9.497  -1.675  0.00  0.00    +0.109 C 
ENDBRANCH  11  14
ENDBRANCH   8  11
ENDBRANCH   3   5
BRANCH   1  21
ATOM     21  C   UNL     1       0.626   5.720   0.608  0.00  0.00    +0.173 C 
BRANCH  21  22
ATOM     22  S   UNL     1       2.053   6.442   1.464  0.00  0.00    -0.075 S 
BRANCH  22  26
ATOM     23  N   UNL     1       6.506   3.782   1.921  0.00  0.00    -0.205 N 
ATOM     24  C   UNL     1       5.200   4.100   1.578  0.00  0.00    +0.232 A 
ATOM     25  N   UNL     1       4.557   5.272   1.863  0.00  0.00    -0.186 NA
ATOM     26  C   UNL     1       3.291   5.192   1.357  0.00  0.00    +0.211 A 
ATOM     27  N   UNL     1       3.156   4.020   0.784  0.00  0.00    -0.144 NA
ATOM     28  N   UNL     1       4.366   3.328   0.924  0.00  0.00    -0.245 N 
ATOM     29  H   UNL     1       7.122   4.507   2.474  0.00  0.00    +0.177 HD
ATOM     30  H   UNL     1       4.684   2.328   0.595  0.00  0.00    +0.192 HD
BRANCH  23  32
ATOM     31  C   UNL     1       8.264   2.240   1.885  0.00  0.00    +0.138 C 
ATOM     32  N   UNL     1       7.042   2.537   1.564  0.00  0.00    -0.188 NA
BRANCH  31  36
ATOM     33  C   UNL     1       9.886  -1.530   0.802  0.00  0.00    +0.000 A 
ATOM     34  C   UNL     1      10.663  -0.620   1.498  0.00  0.00    +0.001 A 
ATOM     35  C   UNL     1      10.143   0.607   1.853  0.00  0.00    +0.009 A 
ATOM     36  C   UNL     1       8.828   0.930   1.509  0.00  0.00    -0.005 A 
ATOM     37  C   UNL     1       8.047   0.005   0.812  0.00  0.00    +0.009 A 
ATOM     38  C   UNL     1       8.583  -1.216   0.458  0.00  0.00    +0.001 A 
ENDBRANCH  31  36
ENDBRANCH  23  32
ENDBRANCH  22  26
ENDBRANCH  21  22
ENDBRANCH   1  21
TORSDOF 8
