REMARK  Name = ZINC63571822
REMARK  2 active torsions:
REMARK  status: ('A' for Active; 'I' for Inactive)
REMARK    1  A    between atoms: C_8  and  C_29
REMARK    2  A    between atoms: N_18  and  C_19
REMARK                            x       y       z     vdW  Elec       q    Type
REMARK                         _______ _______ _______ _____ _____    ______ ____
ROOT
ATOM      1  C   UNL     1      -0.292   1.076   0.079  0.00  0.00    +0.001 A 
ATOM      2  C   UNL     1       0.843   1.897   0.118  0.00  0.00    +0.002 A 
ATOM      3  C   UNL     1       2.099   1.403   0.109  0.00  0.00    +0.026 A 
ATOM      4  C   UNL     1       2.322   0.001   0.059  0.00  0.00    +0.043 A 
ATOM      5  N   UNL     1       3.429  -0.707   0.020  0.00  0.00    -0.375 N 
ATOM      6  C   UNL     1       3.075  -2.124   0.054  0.00  0.00    +0.131 C 
ATOM      7  C   UNL     1       3.637  -2.882  -1.154  0.00  0.00    +0.134 C 
ATOM      8  N   UNL     1       2.917  -4.161  -1.260  0.00  0.00    -0.276 N 
ATOM      9  C   UNL     1       1.462  -4.186  -1.444  0.00  0.00    +0.114 C 
ATOM     10  C   UNL     1       0.788  -3.443  -0.276  0.00  0.00    +0.052 C 
ATOM     11  C   UNL     1       1.559  -2.163  -0.044  0.00  0.00    -0.035 C 
ATOM     12  C   UNL     1       1.138  -0.892   0.010  0.00  0.00    -0.001 A 
ATOM     13  C   UNL     1      -0.193  -0.272   0.027  0.00  0.00    +0.010 A 
ATOM     14  C   UNL     1       3.601  -5.320  -1.187  0.00  0.00    +0.303 C 
ATOM     15  O   UNL     1       4.791  -5.309  -0.938  0.00  0.00    -0.253 OA
ATOM     16  N   UNL     1       2.966  -6.491  -1.390  0.00  0.00    -0.294 N 
ATOM     17  H   UNL     1       2.035  -6.497  -1.662  0.00  0.00    +0.151 HD
ATOM     18  H   UNL     1       4.329  -0.349  -0.023  0.00  0.00    +0.160 HD
ENDROOT
BRANCH  16  19
ATOM     19  C   UNL     1       3.682  -7.755  -1.200  0.00  0.00    +0.037 C 
ATOM     20  C   UNL     1       4.877  -7.813  -2.153  0.00  0.00    +0.029 C 
ATOM     21  C   UNL     1       5.624  -9.133  -1.954  0.00  0.00    -0.008 C 
ATOM     22  C   UNL     1       4.681 -10.302  -2.247  0.00  0.00    +0.007 C 
ATOM     23  C   UNL     1       3.486 -10.245  -1.294  0.00  0.00    -0.008 C 
ATOM     24  C   UNL     1       2.739  -8.924  -1.493  0.00  0.00    +0.029 C 
ATOM     25  C   UNL     1       3.981 -10.338   0.151  0.00  0.00    +0.007 C 
ATOM     26  C   UNL     1       4.924  -9.169   0.444  0.00  0.00    -0.008 C 
ATOM     27  C   UNL     1       6.119  -9.227  -0.510  0.00  0.00    +0.007 C 
ATOM     28  C   UNL     1       4.176  -7.849   0.245  0.00  0.00    +0.029 C 
ENDBRANCH  16  19
BRANCH   7  29
ATOM     29  C   UNL     1       3.426  -2.072  -2.408  0.00  0.00    -0.025 A 
ATOM     30  C   UNL     1       2.146  -1.742  -2.809  0.00  0.00    +0.008 A 
ATOM     31  C   UNL     1       1.951  -0.999  -3.958  0.00  0.00    +0.038 A 
ATOM     32  C   UNL     1       3.040  -0.586  -4.707  0.00  0.00    +0.123 A 
ATOM     33  C   UNL     1       4.322  -0.918  -4.304  0.00  0.00    +0.038 A 
ATOM     34  C   UNL     1       4.514  -1.656  -3.152  0.00  0.00    +0.008 A 
ATOM     35  F   UNL     1       2.851   0.140  -5.831  0.00  0.00    -0.205 F 
ENDBRANCH   7  29
TORSDOF 2
