REMARK  Name = ZINC40847506
REMARK  11 active torsions:
REMARK  status: ('A' for Active; 'I' for Inactive)
REMARK    1  A    between atoms: C_1  and  C_2
REMARK    2  A    between atoms: C_4  and  O_10
REMARK    3  A    between atoms: C_6  and  C_9
REMARK    4  A    between atoms: O_10  and  C_11
REMARK    5  A    between atoms: C_11  and  C_13
REMARK    6  A    between atoms: C_11  and  C_14
REMARK    7  A    between atoms: N_16  and  N_17
REMARK    8  A    between atoms: C_18  and  C_19
REMARK    9  A    between atoms: C_22  and  O_27
REMARK   10  A    between atoms: C_23  and  O_25
REMARK   11  A    between atoms: O_25  and  C_26
REMARK                            x       y       z     vdW  Elec       q    Type
REMARK                         _______ _______ _______ _____ _____    ______ ____
ROOT
ATOM      1  C   UNL     1       0.634  -5.048  -4.250  0.00  0.00    +0.273 C 
ATOM      2  O   UNL     1      -0.059  -4.228  -4.814  0.00  0.00    -0.270 OA
ATOM      3  N   UNL     1       0.295  -6.352  -4.282  0.00  0.00    -0.204 N 
ATOM      4  H   UNL     1       0.849  -7.009  -3.831  0.00  0.00    +0.177 HD
ENDROOT
BRANCH   1   5
ATOM      5  C   UNL     1       1.874  -4.610  -3.514  0.00  0.00    +0.257 C 
ATOM      6  C   UNL     1       3.109  -5.196  -4.201  0.00  0.00    +0.062 C 
BRANCH   5   7
ATOM      7  O   UNL     1       1.955  -3.183  -3.525  0.00  0.00    -0.480 OA
BRANCH   7  11
ATOM      8  C   UNL     1       4.925  -3.647   0.320  0.00  0.00    +0.045 C 
ATOM      9  C   UNL     1       4.170  -2.793  -0.665  0.00  0.00    -0.028 A 
ATOM     10  C   UNL     1       3.404  -3.387  -1.649  0.00  0.00    +0.050 A 
ATOM     11  C   UNL     1       2.709  -2.600  -2.556  0.00  0.00    +0.122 A 
ATOM     12  C   UNL     1       2.785  -1.218  -2.473  0.00  0.00    +0.050 A 
ATOM     13  C   UNL     1       3.552  -0.627  -1.487  0.00  0.00    -0.028 A 
ATOM     14  C   UNL     1       4.240  -1.413  -0.580  0.00  0.00    +0.047 A 
ATOM     15 CL   UNL     1       5.198  -0.669   0.661  0.00  0.00    -0.083 Cl
ATOM     16  C   UNL     1       3.635   0.875  -1.396  0.00  0.00    +0.045 C 
ENDBRANCH   7  11
ENDBRANCH   5   7
ENDBRANCH   1   5
BRANCH   3  17
ATOM     17  N   UNL     1      -0.857  -6.760  -4.966  0.00  0.00    -0.188 NA
ATOM     18  C   UNL     1      -1.265  -7.989  -4.876  0.00  0.00    +0.138 C 
BRANCH  18  19
ATOM     19  C   UNL     1      -0.762  -8.855  -3.794  0.00  0.00    -0.002 A 
ATOM     20  C   UNL     1      -0.203  -8.288  -2.646  0.00  0.00    +0.013 A 
ATOM     21  C   UNL     1       0.267  -9.100  -1.635  0.00  0.00    +0.050 A 
ATOM     22  C   UNL     1       0.186 -10.479  -1.754  0.00  0.00    +0.158 A 
ATOM     23  C   UNL     1      -0.370 -11.052  -2.896  0.00  0.00    +0.162 A 
ATOM     24  C   UNL     1      -0.849 -10.244  -3.911  0.00  0.00    +0.058 A 
BRANCH  23  25
ATOM     25  O   UNL     1      -0.447 -12.405  -3.010  0.00  0.00    -0.491 OA
ATOM     26  C   UNL     1      -1.030 -12.923  -4.208  0.00  0.00    +0.277 C 
ENDBRANCH  23  25
BRANCH  22  27
ATOM     27  O   UNL     1       0.652 -11.275  -0.755  0.00  0.00    -0.503 OA
ATOM     28  H   UNL     1      -0.010 -11.492  -0.085  0.00  0.00    +0.292 HD
ENDBRANCH  22  27
ENDBRANCH  18  19
ENDBRANCH   3  17
TORSDOF 7
