REMARK  Name = ZINC46756919
REMARK  10 active torsions:
REMARK  status: ('A' for Active; 'I' for Inactive)
REMARK    1  A    between atoms: C_1  and  C_2
REMARK    2  A    between atoms: C_2  and  C_3
REMARK    3  A    between atoms: C_2  and  N_4
REMARK    4  A    between atoms: N_4  and  C_5
REMARK    5  A    between atoms: N_4  and  C_6
REMARK    6  A    between atoms: C_6  and  C_7
REMARK    7  A    between atoms: C_12  and  C_13
REMARK    8  A    between atoms: C_13  and  N_14
REMARK    9  A    between atoms: C_15  and  C_17
REMARK   10  A    between atoms: N_23  and  C_24
REMARK                            x       y       z     vdW  Elec       q    Type
REMARK                         _______ _______ _______ _____ _____    ______ ____
ROOT
ATOM      1  N   UNL     1      -1.292  -3.557   3.410  0.00  0.00    -0.306 N 
ATOM      2  C   UNL     1      -2.631  -3.405   3.426  0.00  0.00    +0.263 C 
ATOM      3  O   UNL     1      -3.126  -2.428   3.957  0.00  0.00    -0.269 OA
ATOM      4  H   UNL     1      -0.897  -4.336   2.988  0.00  0.00    +0.149 HD
ENDROOT
BRANCH   2   5
ATOM      5  C   UNL     1      -3.491  -4.416   2.803  0.00  0.00    +0.127 A 
ATOM      6  C   UNL     1      -3.089  -5.592   2.270  0.00  0.00    +0.116 A 
ATOM      7  N   UNL     1      -4.199  -6.240   1.796  0.00  0.00    -0.339 N 
ATOM      8  H   UNL     1      -4.205  -7.107   1.363  0.00  0.00    +0.167 HD
ATOM      9  C   UNL     1      -5.280  -5.473   2.033  0.00  0.00    +0.163 A 
ATOM     10  S   UNL     1      -6.894  -5.866   1.617  0.00  0.00    -0.013 S 
ATOM     11  N   UNL     1      -4.880  -4.347   2.655  0.00  0.00    -0.284 N 
BRANCH  11  12
ATOM     12  C   UNL     1      -5.705  -3.297   3.075  0.00  0.00    +0.049 A 
ATOM     13  C   UNL     1      -5.622  -2.056   2.457  0.00  0.00    +0.026 A 
ATOM     14  C   UNL     1      -6.437  -1.022   2.873  0.00  0.00    +0.002 A 
ATOM     15  C   UNL     1      -7.336  -1.222   3.905  0.00  0.00    +0.000 A 
ATOM     16  C   UNL     1      -7.421  -2.456   4.524  0.00  0.00    +0.002 A 
ATOM     17  C   UNL     1      -6.612  -3.495   4.108  0.00  0.00    +0.026 A 
ENDBRANCH  11  12
ENDBRANCH   2   5
BRANCH   1  18
ATOM     18  C   UNL     1      -0.432  -2.547   4.033  0.00  0.00    +0.140 C 
BRANCH  18  24
ATOM     19  C   UNL     1       1.596  -2.549   2.567  0.00  0.00    -0.059 A 
ATOM     20  C   UNL     1       2.923  -2.856   2.330  0.00  0.00    +0.002 A 
ATOM     21  C   UNL     1       3.665  -3.507   3.299  0.00  0.00    +0.000 A 
ATOM     22  C   UNL     1       3.080  -3.850   4.503  0.00  0.00    +0.000 A 
ATOM     23  C   UNL     1       1.753  -3.542   4.740  0.00  0.00    +0.005 A 
ATOM     24  C   UNL     1       1.012  -2.887   3.773  0.00  0.00    -0.029 A 
BRANCH  19  25
ATOM     25  C   UNL     1       0.787  -1.840   1.511  0.00  0.00    -0.043 C 
BRANCH  25  26
ATOM     26  N   UNL     1      -0.013  -2.821   0.766  0.00  0.00    +0.382 N 
ATOM     27  C   UNL     1       0.882  -3.726   0.032  0.00  0.00    -0.095 C 
ATOM     28  H   UNL     1      -0.576  -3.355   1.410  0.00  0.00    -0.081 HD
BRANCH  26  30
ATOM     29  C   UNL     1      -1.720  -3.141  -0.961  0.00  0.00    -0.014 C 
ATOM     30  C   UNL     1      -0.886  -2.120  -0.184  0.00  0.00    -0.075 C 
ATOM     31  C   UNL     1      -1.818  -1.177   0.580  0.00  0.00    -0.014 C 
ENDBRANCH  26  30
ENDBRANCH  25  26
ENDBRANCH  19  25
ENDBRANCH  18  24
ENDBRANCH   1  18
TORSDOF 7
