REMARK  Name = ZINC62038895
REMARK  9 active torsions:
REMARK  status: ('A' for Active; 'I' for Inactive)
REMARK    1  A    between atoms: C_1  and  C_2
REMARK    2  A    between atoms: C_6  and  C_9
REMARK    3  A    between atoms: C_15  and  S_17
REMARK    4  A    between atoms: S_17  and  C_18
REMARK    5  A    between atoms: C_18  and  C_20
REMARK    6  A    between atoms: C_18  and  C_21
REMARK    7  A    between atoms: N_23  and  C_24
REMARK    8  A    between atoms: C_26  and  C_31
REMARK    9  A    between atoms: C_29  and  O_30
REMARK                            x       y       z     vdW  Elec       q    Type
REMARK                         _______ _______ _______ _____ _____    ______ ____
ROOT
ATOM      1  S   UNL     1       0.526  -3.023   2.667  0.00  0.00    -0.093 S 
ENDROOT
BRANCH   1  10
ATOM      2  C   UNL     1       0.684   1.354   0.029  0.00  0.00    +0.088 C 
ATOM      3  C   UNL     1       0.555  -0.147  -0.017  0.00  0.00    +0.128 A 
ATOM      4  N   UNL     1       0.413  -0.747  -1.183  0.00  0.00    -0.225 NA
ATOM      5  C   UNL     1       0.297  -2.059  -1.250  0.00  0.00    +0.113 A 
ATOM      6  C   UNL     1       0.322  -2.859  -0.088  0.00  0.00    +0.047 A 
ATOM      7  C   UNL     1       0.184  -4.292  -0.325  0.00  0.00    +0.001 A 
ATOM      8  C   UNL     1       0.046  -4.731  -1.599  0.00  0.00    +0.056 A 
ATOM      9  S   UNL     1       0.095  -3.233  -2.563  0.00  0.00    -0.076 S 
ATOM     10  C   UNL     1       0.478  -2.153   1.135  0.00  0.00    +0.110 A 
ATOM     11  N   UNL     1       0.592  -0.834   1.110  0.00  0.00    -0.225 NA
BRANCH   7  12
ATOM     12  C   UNL     1       0.194  -5.248   0.806  0.00  0.00    -0.017 A 
ATOM     13  C   UNL     1      -0.756  -5.141   1.822  0.00  0.00    +0.008 A 
ATOM     14  C   UNL     1      -0.742  -6.035   2.873  0.00  0.00    +0.001 A 
ATOM     15  C   UNL     1       0.212  -7.036   2.921  0.00  0.00    +0.000 A 
ATOM     16  C   UNL     1       1.157  -7.147   1.916  0.00  0.00    +0.001 A 
ATOM     17  C   UNL     1       1.149  -6.263   0.857  0.00  0.00    +0.008 A 
ENDBRANCH   7  12
ENDBRANCH   1  10
BRANCH   1  18
ATOM     18  C   UNL     1       0.733  -1.717   3.908  0.00  0.00    +0.136 C 
ATOM     19  C   UNL     1      -0.507  -0.821   3.917  0.00  0.00    +0.029 C 
BRANCH  18  20
ATOM     20  C   UNL     1       0.913  -2.340   5.268  0.00  0.00    +0.230 C 
ATOM     21  O   UNL     1       0.552  -3.481   5.465  0.00  0.00    -0.274 OA
ATOM     22  N   UNL     1       1.475  -1.629   6.266  0.00  0.00    -0.282 N 
ATOM     23  H   UNL     1       1.700  -0.696   6.129  0.00  0.00    +0.155 HD
BRANCH  22  24
ATOM     24  C   UNL     1       1.735  -2.239   7.500  0.00  0.00    +0.076 A 
ATOM     25  C   UNL     1       2.089  -3.574   7.551  0.00  0.00    +0.038 A 
ATOM     26  C   UNL     1       2.347  -4.179   8.786  0.00  0.00    +0.016 A 
ATOM     27  C   UNL     1       2.246  -3.429   9.964  0.00  0.00    +0.015 A 
ATOM     28  C   UNL     1       1.893  -2.099   9.905  0.00  0.00    +0.048 A 
ATOM     29  C   UNL     1       1.642  -1.497   8.679  0.00  0.00    +0.138 A 
BRANCH  29  30
ATOM     30  O   UNL     1       1.300  -0.184   8.627  0.00  0.00    -0.505 OA
ATOM     31  H   UNL     1       0.348  -0.024   8.683  0.00  0.00    +0.292 HD
ENDBRANCH  29  30
BRANCH  26  32
ATOM     32  C   UNL     1       2.723  -5.598   8.847  0.00  0.00    +0.258 C 
ATOM     33  O   UNL     1       2.947  -6.121   9.918  0.00  0.00    -0.296 OA
ENDBRANCH  26  32
ENDBRANCH  22  24
ENDBRANCH  18  20
ENDBRANCH   1  18
TORSDOF 7
