REMARK  Name = ZINC01137001
REMARK  7 active torsions:
REMARK  status: ('A' for Active; 'I' for Inactive)
REMARK    1  A    between atoms: C_1  and  S_2
REMARK    2  A    between atoms: S_2  and  N_5
REMARK    3  A    between atoms: N_5  and  C_6
REMARK    4  A    between atoms: N_5  and  C_17
REMARK    5  A    between atoms: C_6  and  C_7
REMARK    6  A    between atoms: N_9  and  C_10
REMARK    7  A    between atoms: C_10  and  C_11
REMARK                            x       y       z     vdW  Elec       q    Type
REMARK                         _______ _______ _______ _____ _____    ______ ____
ROOT
ATOM      1  N   UNL     1      -0.083   6.255   0.035  0.00  0.00    -0.199 N 
ENDROOT
BRANCH   1   2
ATOM      2  C   UNL     1      -0.109   4.863  -0.083  0.00  0.00    +0.051 A 
ATOM      3  C   UNL     1       0.807   4.087   0.617  0.00  0.00    +0.026 A 
ATOM      4  C   UNL     1       0.778   2.712   0.497  0.00  0.00    +0.016 A 
ATOM      5  C   UNL     1      -0.161   2.106  -0.318  0.00  0.00    +0.013 A 
ATOM      6  C   UNL     1      -1.070   2.876  -1.021  0.00  0.00    +0.016 A 
ATOM      7  C   UNL     1      -1.050   4.252  -0.902  0.00  0.00    +0.026 A 
ATOM      8  I   UNL     1      -0.200   0.019  -0.497  0.00  0.00    -0.044 I 
ENDBRANCH   1   2
BRANCH   1  10
ATOM      9  C   UNL     1       0.885   7.578  -2.175  0.00  0.00    +0.218 C 
ATOM     10  S   UNL     1       1.249   7.103  -0.463  0.00  0.00    +0.043 S 
ATOM     11  O   UNL     1       1.277   8.255   0.369  0.00  0.00    -0.155 OA
ATOM     12  O   UNL     1       2.312   6.161  -0.431  0.00  0.00    -0.155 OA
ENDBRANCH   1  10
BRANCH   1  13
ATOM     13  C   UNL     1      -1.234   6.963   0.601  0.00  0.00    +0.226 C 
BRANCH  13  14
ATOM     14  C   UNL     1      -1.126   6.977   2.104  0.00  0.00    +0.232 C 
ATOM     15  O   UNL     1      -0.181   6.447   2.649  0.00  0.00    -0.274 OA
ATOM     16  N   UNL     1      -2.080   7.578   2.842  0.00  0.00    -0.311 N 
ATOM     17  H   UNL     1      -2.836   8.002   2.406  0.00  0.00    +0.149 HD
BRANCH  16  18
ATOM     18  C   UNL     1      -1.975   7.592   4.304  0.00  0.00    +0.135 C 
BRANCH  18  19
ATOM     19  C   UNL     1      -3.177   8.332   4.894  0.00  0.00    +0.135 C 
ATOM     20  C   UNL     1      -3.077   8.351   6.432  0.00  0.00    +0.035 C 
ATOM     21  C   UNL     1      -3.075   9.857   6.792  0.00  0.00    +0.031 C 
ATOM     22  C   UNL     1      -3.708  10.494   5.529  0.00  0.00    +0.160 C 
ATOM     23  O   UNL     1      -3.177   9.698   4.448  0.00  0.00    -0.375 OA
ENDBRANCH  18  19
ENDBRANCH  16  18
ENDBRANCH  13  14
ENDBRANCH   1  13
TORSDOF 6
