REMARK  Name = ZINC45529204
REMARK  4 active torsions:
REMARK  status: ('A' for Active; 'I' for Inactive)
REMARK    1  A    between atoms: C_6  and  S_7
REMARK    2  A    between atoms: S_7  and  N_10
REMARK    3  A    between atoms: N_18  and  S_19
REMARK    4  A    between atoms: S_19  and  C_22
REMARK                            x       y       z     vdW  Elec       q    Type
REMARK                         _______ _______ _______ _____ _____    ______ ____
ROOT
ATOM      1  C   UNL     1      -0.017   1.378   0.010  0.00  0.00    +0.030 A 
ATOM      2  C   UNL     1       1.165   2.089   0.002  0.00  0.00    +0.027 A 
ATOM      3  C   UNL     1       2.390   1.418  -0.013  0.00  0.00    +0.055 A 
ATOM      4  C   UNL     1       2.397   0.032  -0.021  0.00  0.00    -0.021 A 
ATOM      5  C   UNL     1       1.211  -0.675  -0.014  0.00  0.00    +0.034 A 
ATOM      6  C   UNL     1       0.002  -0.004   0.002  0.00  0.00    +0.106 A 
ATOM      7  C   UNL     1       3.834  -0.441  -0.036  0.00  0.00    +0.058 C 
ATOM      8  C   UNL     1       4.665   0.852  -0.037  0.00  0.00    +0.136 C 
ATOM      9  N   UNL     1       3.684   1.940  -0.022  0.00  0.00    -0.202 N 
ENDROOT
BRANCH   6  10
ATOM     10  S   UNL     1      -1.510  -0.908   0.012  0.00  0.00    +0.061 S 
ATOM     11  O   UNL     1      -1.215  -2.188   0.553  0.00  0.00    -0.153 OA
ATOM     12  O   UNL     1      -2.493  -0.050   0.576  0.00  0.00    -0.153 OA
BRANCH  10  13
ATOM     13  N   UNL     1      -1.946  -1.151  -1.568  0.00  0.00    -0.177 NA
ATOM     14  C   UNL     1      -2.786  -0.172  -2.271  0.00  0.00    +0.109 C 
ATOM     15  C   UNL     1      -2.083   0.239  -3.568  0.00  0.00    +0.017 C 
ATOM     16  C   UNL     1      -1.756  -1.012  -4.386  0.00  0.00    +0.003 C 
ATOM     17  C   UNL     1      -0.810  -1.913  -3.589  0.00  0.00    +0.017 C 
ATOM     18  C   UNL     1      -1.494  -2.345  -2.293  0.00  0.00    +0.109 C 
ENDBRANCH  10  13
ENDBRANCH   6  10
BRANCH   9  19
ATOM     19  S   UNL     1       4.056   3.554  -0.017  0.00  0.00    +0.075 S 
ATOM     20  O   UNL     1       5.356   3.672  -0.579  0.00  0.00    -0.150 OA
ATOM     21  O   UNL     1       2.929   4.232  -0.554  0.00  0.00    -0.150 OA
BRANCH  19  22
ATOM     22  C   UNL     1       4.189   4.052   1.668  0.00  0.00    +0.112 A 
ATOM     23  C   UNL     1       3.072   4.511   2.341  0.00  0.00    +0.032 A 
ATOM     24  C   UNL     1       3.168   4.904   3.663  0.00  0.00    +0.051 A 
ATOM     25  C   UNL     1       4.389   4.835   4.313  0.00  0.00    +0.162 A 
ATOM     26  C   UNL     1       5.510   4.374   3.638  0.00  0.00    +0.164 A 
ATOM     27  C   UNL     1       5.410   3.978   2.315  0.00  0.00    +0.078 A 
ATOM     28  O   UNL     1       6.709   4.309   4.287  0.00  0.00    -0.488 OA
ATOM     29  C   UNL     1       7.302   5.563   4.631  0.00  0.00    +0.232 C 
ATOM     30  C   UNL     1       6.744   6.081   5.947  0.00  0.00    +0.082 C 
ATOM     31  C   UNL     1       5.260   6.403   5.860  0.00  0.00    +0.232 C 
ATOM     32  O   UNL     1       4.498   5.218   5.618  0.00  0.00    -0.488 OA
ENDBRANCH  19  22
ENDBRANCH   9  19
TORSDOF 4
