REMARK  Name = ZINC43474189
REMARK  5 active torsions:
REMARK  status: ('A' for Active; 'I' for Inactive)
REMARK    1  A    between atoms: C_1  and  C_2
REMARK    2  A    between atoms: C_2  and  C_4
REMARK    3  A    between atoms: C_2  and  N_10
REMARK    4  A    between atoms: N_10  and  C_11
REMARK    5  A    between atoms: C_14  and  N_18
REMARK                            x       y       z     vdW  Elec       q    Type
REMARK                         _______ _______ _______ _____ _____    ______ ____
ROOT
ATOM      1  N   UNL     1       0.711  -0.489   1.189  0.00  0.00    -0.335 N 
ATOM      2  H   UNL     1       0.213  -0.731   1.986  0.00  0.00    +0.147 HD
ENDROOT
BRANCH   1   3
ATOM      3  C   UNL     1       2.104  -0.604   1.173  0.00  0.00    +0.063 A 
ATOM      4  C   UNL     1       2.818  -0.253   0.036  0.00  0.00    +0.028 A 
ATOM      5  C   UNL     1       4.195  -0.367   0.023  0.00  0.00    +0.035 A 
ATOM      6  C   UNL     1       4.863  -0.830   1.142  0.00  0.00    +0.129 A 
ATOM      7  C   UNL     1       4.156  -1.181   2.277  0.00  0.00    +0.073 A 
ATOM      8  C   UNL     1       2.779  -1.065   2.299  0.00  0.00    +0.146 A 
ATOM      9  F   UNL     1       2.088  -1.403   3.410  0.00  0.00    -0.203 F 
BRANCH   6  10
ATOM     10  N   UNL     1       6.338  -0.950   1.124  0.00  0.00    +0.057 N 
ATOM     11  O   UNL     1       6.958  -0.643   0.132  0.00  0.00    -0.126 OA
ATOM     12  O   UNL     1       6.924  -1.355   2.101  0.00  0.00    -0.126 OA
ENDBRANCH   6  10
ENDBRANCH   1   3
BRANCH   1  14
ATOM     13  C   UNL     1      -0.019   1.526   0.010  0.00  0.00    +0.033 C 
ATOM     14  C   UNL     1       0.002  -0.004   0.002  0.00  0.00    +0.105 C 
BRANCH  14  15
ATOM     15  C   UNL     1      -1.412  -0.526   0.013  0.00  0.00    +0.024 A 
ATOM     16  C   UNL     1      -2.126  -1.077  -0.999  0.00  0.00    +0.030 A 
ATOM     17  C   UNL     1      -3.423  -1.490  -0.757  0.00  0.00    +0.023 A 
ATOM     18  C   UNL     1      -3.942  -1.332   0.486  0.00  0.00    +0.046 A 
ATOM     19  S   UNL     1      -2.578  -0.586   1.363  0.00  0.00    -0.099 S 
ATOM     20 BR   UNL     1      -1.361  -1.276  -2.717  0.00  0.00    -0.049 Br
ENDBRANCH  14  15
ENDBRANCH   1  14
TORSDOF 4
