REMARK  Name = ZINC54019674
REMARK  7 active torsions:
REMARK  status: ('A' for Active; 'I' for Inactive)
REMARK    1  A    between atoms: C_1  and  C_2
REMARK    2  A    between atoms: N_14  and  C_15
REMARK    3  A    between atoms: C_15  and  C_17
REMARK    4  A    between atoms: C_15  and  C_25
REMARK    5  A    between atoms: C_22  and  O_23
REMARK    6  A    between atoms: O_23  and  C_24
REMARK    7  A    between atoms: N_29  and  C_30
REMARK                            x       y       z     vdW  Elec       q    Type
REMARK                         _______ _______ _______ _____ _____    ______ ____
ROOT
ATOM      1  C   UNL     1       3.177   0.783   3.626  0.00  0.00    +0.174 C 
ENDROOT
BRANCH   1  14
ATOM      2  C   UNL     1       0.327   1.844  -0.192  0.00  0.00    +0.033 C 
ATOM      3  C   UNL     1       0.492   0.341  -0.427  0.00  0.00    +0.105 C 
ATOM      4  C   UNL     1      -0.882  -0.321  -0.520  0.00  0.00    -0.017 A 
ATOM      5  C   UNL     1      -1.919   0.180  -1.305  0.00  0.00    +0.013 A 
ATOM      6  C   UNL     1      -3.109  -0.462  -1.343  0.00  0.00    +0.046 A 
ATOM      7  S   UNL     1      -2.819  -1.841  -0.244  0.00  0.00    -0.101 S 
ATOM      8  C   UNL     1      -1.141  -1.457   0.183  0.00  0.00    -0.004 A 
ATOM      9  C   UNL     1      -0.224  -2.198   1.100  0.00  0.00    +0.062 C 
ATOM     10  C   UNL     1       1.216  -1.728   0.844  0.00  0.00    +0.115 C 
ATOM     11  N   UNL     1       1.207  -0.264   0.704  0.00  0.00    -0.278 N 
ATOM     12  C   UNL     1       1.846   0.512   1.603  0.00  0.00    +0.303 C 
ATOM     13  O   UNL     1       1.772   1.723   1.522  0.00  0.00    -0.253 OA
ATOM     14  N   UNL     1       2.567  -0.055   2.591  0.00  0.00    -0.285 N 
ATOM     15  H   UNL     1       2.681  -1.018   2.616  0.00  0.00    +0.151 HD
ENDBRANCH   1  14
BRANCH   1  16
ATOM     16  C   UNL     1       4.316   0.037   4.270  0.00  0.00    +0.022 A 
ATOM     17  C   UNL     1       4.313  -1.345   4.292  0.00  0.00    +0.009 A 
ATOM     18  C   UNL     1       5.358  -2.030   4.883  0.00  0.00    +0.001 A 
ATOM     19  C   UNL     1       6.409  -1.336   5.453  0.00  0.00    +0.004 A 
ATOM     20  C   UNL     1       6.418   0.045   5.433  0.00  0.00    +0.046 A 
ATOM     21  C   UNL     1       5.373   0.736   4.835  0.00  0.00    +0.125 A 
BRANCH  21  22
ATOM     22  O   UNL     1       5.381   2.094   4.809  0.00  0.00    -0.495 OA
ATOM     23  C   UNL     1       6.501   2.748   5.411  0.00  0.00    +0.277 C 
ENDBRANCH  21  22
ENDBRANCH   1  16
BRANCH   1  24
ATOM     24  C   UNL     1       2.145   1.123   4.670  0.00  0.00    +0.135 A 
ATOM     25  N   UNL     1       1.304   0.283   5.210  0.00  0.00    -0.238 NA
ATOM     26  C   UNL     1       0.537   0.934   6.097  0.00  0.00    +0.130 A 
ATOM     27  C   UNL     1       0.918   2.226   6.109  0.00  0.00    +0.106 A 
ATOM     28  N   UNL     1       1.941   2.345   5.207  0.00  0.00    -0.336 N 
ATOM     29  C   UNL     1       2.676   3.570   4.884  0.00  0.00    +0.150 C 
ENDBRANCH   1  24
TORSDOF 4
