REMARK  Name = ZINC62578718
REMARK  7 active torsions:
REMARK  status: ('A' for Active; 'I' for Inactive)
REMARK    1  A    between atoms: C_1  and  C_2
REMARK    2  A    between atoms: C_4  and  C_28
REMARK    3  A    between atoms: C_5  and  S_9
REMARK    4  A    between atoms: C_6  and  C_8
REMARK    5  A    between atoms: S_9  and  N_12
REMARK    6  A    between atoms: N_15  and  C_18
REMARK    7  A    between atoms: C_25  and  C_27
REMARK                            x       y       z     vdW  Elec       q    Type
REMARK                         _______ _______ _______ _____ _____    ______ ____
ROOT
ATOM      1  N   UNL     1       0.183  -5.340   0.828  0.00  0.00    -0.174 NA
ATOM      2  C   UNL     1       0.705  -6.183  -0.257  0.00  0.00    +0.128 C 
ATOM      3  C   UNL     1       2.224  -5.989  -0.341  0.00  0.00    +0.122 C 
ATOM      4  N   UNL     1       2.792  -6.137   1.006  0.00  0.00    -0.327 N 
ATOM      5  C   UNL     1       2.270  -5.294   2.091  0.00  0.00    +0.122 C 
ATOM      6  C   UNL     1       0.755  -5.484   2.174  0.00  0.00    +0.128 C 
ENDROOT
BRANCH   4   7
ATOM      7  C   UNL     1       3.810  -7.064   1.252  0.00  0.00    +0.032 A 
ATOM      8  C   UNL     1       4.399  -7.745   0.188  0.00  0.00    +0.025 A 
ATOM      9  C   UNL     1       5.394  -8.653   0.411  0.00  0.00    +0.032 A 
ATOM     10  C   UNL     1       5.830  -8.906   1.715  0.00  0.00    +0.089 A 
ATOM     11  C   UNL     1       5.238  -8.221   2.789  0.00  0.00    +0.068 A 
ATOM     12  C   UNL     1       4.231  -7.296   2.550  0.00  0.00    +0.051 A 
ATOM     13  N   UNL     1       5.871  -8.679   3.928  0.00  0.00    -0.342 N 
ATOM     14  C   UNL     1       6.798  -9.596   3.535  0.00  0.00    +0.105 A 
ATOM     15  N   UNL     1       6.774  -9.729   2.242  0.00  0.00    -0.233 NA
ATOM     16  C   UNL     1       7.716 -10.347   4.464  0.00  0.00    +0.086 C 
ATOM     17  H   UNL     1       5.689  -8.398   4.839  0.00  0.00    +0.167 HD
ENDBRANCH   4   7
BRANCH   1  18
ATOM     18  S   UNL     1      -1.022  -4.243   0.537  0.00  0.00    +0.061 S 
ATOM     19  O   UNL     1      -1.713  -4.063   1.765  0.00  0.00    -0.153 OA
ATOM     20  O   UNL     1      -1.678  -4.666  -0.651  0.00  0.00    -0.153 OA
BRANCH  18  25
ATOM     21  C   UNL     1       1.633   1.023  -0.739  0.00  0.00    +0.044 C 
ATOM     22  C   UNL     1       0.969  -0.292  -0.420  0.00  0.00    -0.050 A 
ATOM     23  C   UNL     1       0.613  -0.589   0.882  0.00  0.00    +0.008 A 
ATOM     24  C   UNL     1       0.005  -1.796   1.174  0.00  0.00    -0.024 A 
ATOM     25  C   UNL     1      -0.248  -2.705   0.164  0.00  0.00    +0.111 A 
ATOM     26  C   UNL     1       0.107  -2.407  -1.138  0.00  0.00    -0.024 A 
ATOM     27  C   UNL     1       0.712  -1.199  -1.431  0.00  0.00    +0.008 A 
ATOM     28  C   UNL     1      -0.168  -3.399  -2.240  0.00  0.00    +0.046 C 
ATOM     29  C   UNL     1      -0.383  -2.120   2.594  0.00  0.00    +0.046 C 
ENDBRANCH  18  25
ENDBRANCH   1  18
TORSDOF 3
