REMARK  Name = ZINC38743100
REMARK  8 active torsions:
REMARK  status: ('A' for Active; 'I' for Inactive)
REMARK    1  A    between atoms: C_4  and  C_7
REMARK    2  A    between atoms: C_7  and  O_8
REMARK    3  A    between atoms: O_8  and  C_9
REMARK    4  A    between atoms: C_13  and  O_15
REMARK    5  A    between atoms: O_15  and  C_16
REMARK    6  A    between atoms: C_16  and  C_17
REMARK    7  A    between atoms: C_20  and  C_27
REMARK    8  A    between atoms: C_30  and  C_33
REMARK                            x       y       z     vdW  Elec       q    Type
REMARK                         _______ _______ _______ _____ _____    ______ ____
ROOT
ATOM      1  C   UNL     1       9.059  -3.716   5.694  0.00  0.00    +0.132 C 
ATOM      2  N   UNL     1       8.388  -3.353   6.736  0.00  0.00    -0.175 NA
ATOM      3  N   UNL     1       8.831  -3.548   8.027  0.00  0.00    -0.206 N 
ATOM      4  C   UNL     1       8.689  -3.098   9.431  0.00  0.00    +0.206 C 
ATOM      5  N   UNL     1      10.061  -3.114   9.991  0.00  0.00    -0.231 NA
ATOM      6  N   UNL     1      10.935  -3.672   8.945  0.00  0.00    -0.224 NA
ATOM      7  C   UNL     1      10.002  -4.476   8.131  0.00  0.00    +0.240 C 
ATOM      8  S   UNL     1      10.502  -4.526   6.371  0.00  0.00    -0.064 S 
ATOM      9  H   UNL     1      10.102  -3.670  10.832  0.00  0.00    +0.143 HD
ATOM     10  H   UNL     1      11.656  -4.253   9.348  0.00  0.00    +0.144 HD
ENDROOT
BRANCH   4  11
ATOM     11  C   UNL     1       8.111  -1.682   9.477  0.00  0.00    +0.190 C 
ATOM     12  C   UNL     1       8.023  -1.186  10.910  0.00  0.00    +0.034 C 
ATOM     13  C   UNL     1       6.705  -0.977  11.098  0.00  0.00    +0.091 C 
ATOM     14  N   UNL     1       6.011  -1.283   9.971  0.00  0.00    -0.154 NA
ATOM     15  N   UNL     1       6.709  -1.677   9.029  0.00  0.00    -0.176 NA
BRANCH  13  16
ATOM     16  C   UNL     1       6.098  -0.483  12.358  0.00  0.00    +0.002 A 
ATOM     17  C   UNL     1       6.905  -0.194  13.457  0.00  0.00    +0.010 A 
ATOM     18  C   UNL     1       6.335   0.266  14.627  0.00  0.00    +0.001 A 
ATOM     19  C   UNL     1       4.965   0.439  14.710  0.00  0.00    +0.000 A 
ATOM     20  C   UNL     1       4.159   0.154  13.623  0.00  0.00    +0.001 A 
ATOM     21  C   UNL     1       4.719  -0.301  12.446  0.00  0.00    +0.010 A 
ENDBRANCH  13  16
ENDBRANCH   4  11
BRANCH   1  22
ATOM     22  C   UNL     1       8.705  -3.511   4.244  0.00  0.00    +0.293 C 
BRANCH  22  23
ATOM     23  O   UNL     1       7.460  -2.815   4.152  0.00  0.00    -0.485 OA
BRANCH  23  28
ATOM     24  C   UNL     1       5.319  -1.605   1.466  0.00  0.00    +0.124 A 
ATOM     25  C   UNL     1       6.048  -2.007   0.356  0.00  0.00    +0.046 A 
ATOM     26  C   UNL     1       7.245  -2.677   0.521  0.00  0.00    +0.007 A 
ATOM     27  C   UNL     1       7.719  -2.948   1.790  0.00  0.00    +0.046 A 
ATOM     28  C   UNL     1       6.994  -2.548   2.903  0.00  0.00    +0.125 A 
ATOM     29  C   UNL     1       5.795  -1.870   2.741  0.00  0.00    +0.091 A 
BRANCH  24  30
ATOM     30  O   UNL     1       4.141  -0.946   1.304  0.00  0.00    -0.487 OA
BRANCH  30  31
ATOM     31  C   UNL     1       3.711  -0.707  -0.038  0.00  0.00    +0.264 C 
BRANCH  31  35
ATOM     32  C   UNL     1      -0.017   1.378   0.010  0.00  0.00    +0.000 A 
ATOM     33  C   UNL     1       1.171   2.086   0.002  0.00  0.00    +0.000 A 
ATOM     34  C   UNL     1       2.377   1.411  -0.013  0.00  0.00    +0.007 A 
ATOM     35  C   UNL     1       2.396   0.029  -0.020  0.00  0.00    -0.010 A 
ATOM     36  C   UNL     1       1.208  -0.679  -0.012  0.00  0.00    +0.007 A 
ATOM     37  C   UNL     1       0.002  -0.004   0.002  0.00  0.00    +0.000 A 
ENDBRANCH  31  35
ENDBRANCH  30  31
ENDBRANCH  24  30
ENDBRANCH  23  28
ENDBRANCH  22  23
ENDBRANCH   1  22
TORSDOF 8
