REMARK  Name = ZINC42360110
REMARK  7 active torsions:
REMARK  status: ('A' for Active; 'I' for Inactive)
REMARK    1  A    between atoms: C_1  and  C_2
REMARK    2  A    between atoms: C_3  and  C_19
REMARK    3  A    between atoms: C_7  and  C_8
REMARK    4  A    between atoms: C_8  and  N_9
REMARK    5  A    between atoms: N_10  and  C_11
REMARK    6  A    between atoms: N_10  and  C_12
REMARK    7  A    between atoms: C_12  and  C_13
REMARK                            x       y       z     vdW  Elec       q    Type
REMARK                         _______ _______ _______ _____ _____    ______ ____
ROOT
ATOM      1  C   UNL     1      -0.167   1.102   0.095  0.00  0.00    +0.046 C 
ATOM      2  C   UNL     1      -0.815   1.591  -1.174  0.00  0.00    -0.022 A 
ATOM      3  C   UNL     1      -0.052   1.909  -2.289  0.00  0.00    +0.035 A 
ATOM      4  N   UNL     1      -0.639   2.335  -3.390  0.00  0.00    -0.280 N 
ATOM      5  N   UNL     1      -1.912   2.474  -3.478  0.00  0.00    -0.158 NA
ATOM      6  C   UNL     1      -2.722   2.196  -2.467  0.00  0.00    +0.146 A 
ATOM      7  C   UNL     1      -2.191   1.733  -1.264  0.00  0.00    +0.012 A 
ATOM      8  N   UNL     1      -4.096   2.361  -2.607  0.00  0.00    -0.312 N 
ATOM      9  C   UNL     1      -4.918   1.258  -3.110  0.00  0.00    +0.131 C 
ATOM     10  C   UNL     1       1.447   1.765  -2.243  0.00  0.00    +0.065 C 
ATOM     11  H   UNL     1      -0.090   2.553  -4.159  0.00  0.00    +0.189 HD
ENDROOT
BRANCH   7  12
ATOM     12  C   UNL     1      -3.084   1.402  -0.096  0.00  0.00    +0.117 C 
BRANCH  12  13
ATOM     13  N   UNL     1      -3.262   2.598   0.739  0.00  0.00    -0.326 NA
ATOM     14  H   UNL     1      -3.857   2.402   1.529  0.00  0.00    +0.119 HD
ATOM     15  H   UNL     1      -2.371   2.965   1.039  0.00  0.00    +0.119 HD
ENDBRANCH  12  13
ENDBRANCH   7  12
BRANCH   8  16
ATOM     16  C   UNL     1      -4.720   3.638  -2.250  0.00  0.00    +0.142 C 
BRANCH  16  17
ATOM     17  C   UNL     1      -4.743   4.540  -3.457  0.00  0.00    -0.022 A 
ATOM     18  C   UNL     1      -3.686   5.392  -3.717  0.00  0.00    +0.028 A 
ATOM     19  C   UNL     1      -3.739   6.191  -4.812  0.00  0.00    +0.055 A 
ATOM     20  S   UNL     1      -5.318   5.747  -5.516  0.00  0.00    -0.090 S 
ATOM     21  C   UNL     1      -5.798   4.523  -4.308  0.00  0.00    +0.051 A 
ATOM     22 BR   UNL     1      -2.470   7.448  -5.431  0.00  0.00    -0.043 Br
ENDBRANCH  16  17
ENDBRANCH   8  16
TORSDOF 4
