REMARK  Name = ZINC20134148
REMARK  8 active torsions:
REMARK  status: ('A' for Active; 'I' for Inactive)
REMARK    1  A    between atoms: C_1  and  C_2
REMARK    2  A    between atoms: C_5  and  C_9
REMARK    3  A    between atoms: C_6  and  C_8
REMARK    4  A    between atoms: C_9  and  S_10
REMARK    5  A    between atoms: S_10  and  C_11
REMARK    6  A    between atoms: C_16  and  C_26
REMARK    7  A    between atoms: C_29  and  O_32
REMARK    8  A    between atoms: O_32  and  C_33
REMARK                            x       y       z     vdW  Elec       q    Type
REMARK                         _______ _______ _______ _____ _____    ______ ____
ROOT
ATOM      1  C   UNL     1       0.423  -1.867  -7.255  0.00  0.00    +0.211 A 
ATOM      2  N   UNL     1       1.501  -1.103  -7.487  0.00  0.00    -0.187 NA
ATOM      3  C   UNL     1       2.354  -1.244  -6.510  0.00  0.00    +0.219 A 
ATOM      4  N   UNL     1       1.828  -2.113  -5.612  0.00  0.00    -0.220 N 
ATOM      5  N   UNL     1       0.587  -2.502  -6.114  0.00  0.00    -0.141 NA
ATOM      6  C   UNL     1       2.504  -2.503  -4.382  0.00  0.00    +0.175 C 
ATOM      7  C   UNL     1       3.958  -2.086  -4.435  0.00  0.00    +0.041 C 
ATOM      8  C   UNL     1       4.423  -1.222  -5.362  0.00  0.00    +0.020 C 
ATOM      9  N   UNL     1       3.600  -0.671  -6.315  0.00  0.00    -0.287 N 
ATOM     10  C   UNL     1       5.881  -0.829  -5.394  0.00  0.00    +0.052 C 
ATOM     11  C   UNL     1       6.454  -0.860  -3.976  0.00  0.00    +0.014 C 
ATOM     12  C   UNL     1       6.275  -2.275  -3.415  0.00  0.00    +0.080 C 
ATOM     13  C   UNL     1       4.817  -2.639  -3.468  0.00  0.00    +0.163 C 
ATOM     14  O   UNL     1       4.372  -3.429  -2.659  0.00  0.00    -0.292 OA
ATOM     15  H   UNL     1       3.905   0.200  -6.915  0.00  0.00    +0.155 HD
ENDROOT
BRANCH   6  16
ATOM     16  C   UNL     1       1.835  -1.835  -3.209  0.00  0.00    -0.018 A 
ATOM     17  C   UNL     1       1.275  -2.602  -2.204  0.00  0.00    +0.009 A 
ATOM     18  C   UNL     1       0.661  -1.992  -1.128  0.00  0.00    +0.046 A 
ATOM     19  C   UNL     1       0.606  -0.607  -1.056  0.00  0.00    +0.120 A 
ATOM     20  C   UNL     1       1.163   0.161  -2.068  0.00  0.00    +0.046 A 
ATOM     21  C   UNL     1       1.781  -0.455  -3.140  0.00  0.00    +0.009 A 
BRANCH  19  22
ATOM     22  O   UNL     1       0.002  -0.004   0.002  0.00  0.00    -0.495 OA
ATOM     23  C   UNL     1      -0.017   1.425   0.010  0.00  0.00    +0.277 C 
ENDBRANCH  19  22
ENDBRANCH   6  16
BRANCH   1  24
ATOM     24  S   UNL     1      -0.984  -1.997  -8.306  0.00  0.00    -0.080 S 
BRANCH  24  25
ATOM     25  C   UNL     1      -0.600  -0.892  -9.693  0.00  0.00    +0.112 C 
BRANCH  25  30
ATOM     26  C   UNL     1      -4.965  -0.961 -13.479  0.00  0.00    +0.044 C 
ATOM     27  C   UNL     1      -3.827  -0.943 -12.492  0.00  0.00    -0.050 A 
ATOM     28  C   UNL     1      -3.824  -0.026 -11.457  0.00  0.00    +0.003 A 
ATOM     29  C   UNL     1      -2.780  -0.009 -10.552  0.00  0.00    +0.005 A 
ATOM     30  C   UNL     1      -1.739  -0.910 -10.680  0.00  0.00    -0.034 A 
ATOM     31  C   UNL     1      -1.740  -1.824 -11.717  0.00  0.00    -0.046 A 
ATOM     32  C   UNL     1      -2.786  -1.844 -12.620  0.00  0.00    +0.007 A 
ATOM     33  C   UNL     1      -0.602  -2.802 -11.861  0.00  0.00    +0.044 C 
ENDBRANCH  25  30
ENDBRANCH  24  25
ENDBRANCH   1  24
TORSDOF 5
