REMARK  Name = ZINC39671445
REMARK  7 active torsions:
REMARK  status: ('A' for Active; 'I' for Inactive)
REMARK    1  A    between atoms: C_1  and  C_2
REMARK    2  A    between atoms: C_2  and  C_3
REMARK    3  A    between atoms: C_3  and  C_5
REMARK    4  A    between atoms: C_3  and  C_6
REMARK    5  A    between atoms: C_10  and  C_19
REMARK    6  A    between atoms: N_21  and  C_22
REMARK    7  A    between atoms: C_22  and  C_23
REMARK                            x       y       z     vdW  Elec       q    Type
REMARK                         _______ _______ _______ _____ _____    ______ ____
ROOT
ATOM      1  C   UNL     1      -1.378  -2.194  -0.100  0.00  0.00    +0.218 C 
ATOM      2  O   UNL     1      -0.340  -2.803  -0.249  0.00  0.00    -0.275 OA
ATOM      3  N   UNL     1      -2.555  -2.848  -0.145  0.00  0.00    -0.300 N 
ATOM      4  C   UNL     1      -3.916  -2.280   0.007  0.00  0.00    +0.121 C 
ATOM      5  C   UNL     1      -4.774  -3.039  -1.029  0.00  0.00    +0.100 C 
ATOM      6  C   UNL     1      -4.026  -4.363  -1.264  0.00  0.00    -0.004 C 
ATOM      7  C   UNL     1      -2.783  -4.296  -0.366  0.00  0.00    +0.115 C 
ATOM      8  C   UNL     1      -4.905  -5.544  -0.866  0.00  0.00    -0.010 C 
ATOM      9  C   UNL     1      -4.162  -6.850  -1.163  0.00  0.00    -0.082 C 
ATOM     10  N   UNL     1      -3.838  -6.916  -2.593  0.00  0.00    +0.379 N 
ATOM     11  C   UNL     1      -2.917  -5.829  -2.948  0.00  0.00    -0.082 C 
ATOM     12  C   UNL     1      -3.607  -4.480  -2.727  0.00  0.00    -0.010 C 
ATOM     13  H   UNL     1      -3.403  -7.803  -2.797  0.00  0.00    -0.086 HD
ATOM     14  H   UNL     1      -4.685  -6.828  -3.133  0.00  0.00    -0.086 HD
ENDROOT
BRANCH   5  15
ATOM     15  C   UNL     1      -6.151  -3.303  -0.478  0.00  0.00    +0.219 C 
ATOM     16  O   UNL     1      -6.307  -3.460   0.714  0.00  0.00    -0.275 OA
ATOM     17  N   UNL     1      -7.210  -3.365  -1.310  0.00  0.00    -0.309 N 
ATOM     18  H   UNL     1      -7.085  -3.239  -2.264  0.00  0.00    +0.149 HD
BRANCH  17  19
ATOM     19  C   UNL     1      -8.549  -3.621  -0.774  0.00  0.00    +0.157 C 
BRANCH  19  20
ATOM     20  C   UNL     1      -9.547  -3.640  -1.903  0.00  0.00    +0.034 A 
ATOM     21  H   UNL     1     -10.018  -1.624  -2.129  0.00  0.00    +0.166 HD
ATOM     22  C   UNL     1      -9.970  -4.744  -2.539  0.00  0.00    +0.032 A 
ATOM     23  C   UNL     1     -10.928  -4.311  -3.559  0.00  0.00    -0.000 A 
ATOM     24  C   UNL     1     -11.693  -4.977  -4.518  0.00  0.00    +0.010 A 
ATOM     25  C   UNL     1     -12.516  -4.265  -5.344  0.00  0.00    +0.001 A 
ATOM     26  C   UNL     1     -12.598  -2.884  -5.238  0.00  0.00    +0.002 A 
ATOM     27  C   UNL     1     -11.851  -2.206  -4.299  0.00  0.00    +0.026 A 
ATOM     28  C   UNL     1     -11.007  -2.910  -3.447  0.00  0.00    +0.047 A 
ATOM     29  N   UNL     1     -10.160  -2.536  -2.428  0.00  0.00    -0.357 N 
ENDBRANCH  19  20
ENDBRANCH  17  19
ENDBRANCH   5  15
BRANCH   1  30
ATOM     30  C   UNL     1      -1.351  -0.706   0.137  0.00  0.00    +0.072 C 
ATOM     31  C   UNL     1      -2.000  -0.393   1.487  0.00  0.00    +0.017 C 
BRANCH  30  33
ATOM     32  C   UNL     1       0.122   1.309   0.258  0.00  0.00    +0.004 C 
ATOM     33  C   UNL     1       0.099  -0.217   0.143  0.00  0.00    +0.009 C 
ENDBRANCH  30  33
ENDBRANCH   1  30
TORSDOF 5
