REMARK  Name = ZINC62729892
REMARK  9 active torsions:
REMARK  status: ('A' for Active; 'I' for Inactive)
REMARK    1  A    between atoms: C_1  and  C_2
REMARK    2  A    between atoms: C_2  and  C_3
REMARK    3  A    between atoms: C_2  and  C_4
REMARK    4  A    between atoms: C_2  and  N_5
REMARK    5  A    between atoms: N_5  and  C_6
REMARK    6  A    between atoms: C_6  and  C_7
REMARK    7  A    between atoms: C_12  and  O_13
REMARK    8  A    between atoms: O_13  and  C_14
REMARK    9  A    between atoms: C_20  and  O_22
REMARK                            x       y       z     vdW  Elec       q    Type
REMARK                         _______ _______ _______ _____ _____    ______ ____
ROOT
ATOM      1  C   UNL     1       2.610  -0.588  -2.519  0.00  0.00    -0.022 A 
ATOM      2  C   UNL     1       3.461  -1.674  -2.450  0.00  0.00    +0.020 A 
ATOM      3  C   UNL     1       4.272  -1.988  -3.526  0.00  0.00    +0.018 A 
ATOM      4  C   UNL     1       4.233  -1.215  -4.673  0.00  0.00    +0.019 A 
ATOM      5  C   UNL     1       3.384  -0.128  -4.745  0.00  0.00    +0.047 A 
ATOM      6  C   UNL     1       2.565   0.185  -3.670  0.00  0.00    +0.122 A 
ATOM      7 BR   UNL     1       5.436  -3.475  -3.429  0.00  0.00    -0.050 Br
ENDROOT
BRANCH   1   8
ATOM      8  C   UNL     1       1.726  -0.247  -1.347  0.00  0.00    -0.042 C 
BRANCH   8   9
ATOM      9  N   UNL     1       0.370  -0.756  -1.591  0.00  0.00    +0.385 N 
ATOM     10  H   UNL     1       0.403  -1.758  -1.708  0.00  0.00    -0.085 HD
ATOM     11  H   UNL     1      -0.002  -0.332  -2.428  0.00  0.00    -0.085 HD
BRANCH   9  13
ATOM     12  C   UNL     1      -0.540   1.096  -0.272  0.00  0.00    -0.011 C 
ATOM     13  C   UNL     1      -0.491  -0.423  -0.449  0.00  0.00    -0.077 C 
ATOM     14  C   UNL     1       0.074  -1.066   0.820  0.00  0.00    -0.011 C 
ATOM     15  C   UNL     1      -1.903  -0.953  -0.703  0.00  0.00    -0.011 C 
ENDBRANCH   9  13
ENDBRANCH   8   9
ENDBRANCH   1   8
BRANCH   6  16
ATOM     16  O   UNL     1       1.725   1.251  -3.741  0.00  0.00    -0.486 OA
BRANCH  16  17
ATOM     17  C   UNL     1       1.647   1.932  -4.995  0.00  0.00    +0.202 C 
ATOM     18  C   UNL     1       2.772   2.965  -5.085  0.00  0.00    +0.047 C 
ATOM     19  C   UNL     1       2.688   3.695  -6.427  0.00  0.00    +0.004 C 
ATOM     20  C   UNL     1       1.336   4.402  -6.540  0.00  0.00    +0.003 C 
ATOM     21  C   UNL     1       0.211   3.369  -6.450  0.00  0.00    +0.035 C 
ATOM     22  C   UNL     1       0.295   2.640  -5.107  0.00  0.00    +0.155 C 
BRANCH  22  23
ATOM     23  O   UNL     1      -0.756   1.675  -5.023  0.00  0.00    -0.388 OA
ATOM     24  H   UNL     1      -1.643   2.054  -5.087  0.00  0.00    +0.210 HD
ENDBRANCH  22  23
ENDBRANCH  16  17
ENDBRANCH   6  16
TORSDOF 6
