REMARK  Name = ZINC67336224
REMARK  8 active torsions:
REMARK  status: ('A' for Active; 'I' for Inactive)
REMARK    1  A    between atoms: C_1  and  N_2
REMARK    2  A    between atoms: N_2  and  C_3
REMARK    3  A    between atoms: C_3  and  C_4
REMARK    4  A    between atoms: C_13  and  S_17
REMARK    5  A    between atoms: C_14  and  N_16
REMARK    6  A    between atoms: S_17  and  C_20
REMARK    7  A    between atoms: C_25  and  O_26
REMARK    8  A    between atoms: O_26  and  C_27
REMARK                            x       y       z     vdW  Elec       q    Type
REMARK                         _______ _______ _______ _____ _____    ______ ____
ROOT
ATOM      1  C   UNL     1      -0.018   1.461   0.010  0.00  0.00    +0.132 C 
ATOM      2  N   UNL     1       0.002  -0.004   0.002  0.00  0.00    -0.298 N 
ATOM      3  C   UNL     1       0.000  -0.690  -1.200  0.00  0.00    +0.220 A 
ATOM      4  N   UNL     1       0.013  -2.014  -1.188  0.00  0.00    -0.221 NA
ATOM      5  C   UNL     1       0.011  -2.705  -2.319  0.00  0.00    +0.145 A 
ATOM      6  C   UNL     1      -0.005  -2.030  -3.524  0.00  0.00    +0.151 A 
ATOM      7  C   UNL     1      -0.018  -0.634  -3.505  0.00  0.00    +0.147 A 
ATOM      8  N   UNL     1      -0.020  -0.005  -2.334  0.00  0.00    -0.198 NA
ENDROOT
BRANCH   7   9
ATOM      9  N   UNL     1      -0.034   0.085  -4.689  0.00  0.00    -0.341 N 
ATOM     10  H   UNL     1      -0.035  -0.382  -5.539  0.00  0.00    +0.144 HD
ATOM     11  H   UNL     1      -0.043   1.054  -4.668  0.00  0.00    +0.144 HD
ENDBRANCH   7   9
BRANCH   6  12
ATOM     12  S   UNL     1      -0.007  -2.911  -5.050  0.00  0.00    +0.033 S 
ATOM     13  O   UNL     1       1.007  -2.328  -5.857  0.00  0.00    -0.164 OA
ATOM     14  O   UNL     1      -0.018  -4.293  -4.721  0.00  0.00    -0.164 OA
BRANCH  12  15
ATOM     15  C   UNL     1      -1.542  -2.570  -5.846  0.00  0.00    +0.137 A 
ATOM     16  C   UNL     1      -1.562  -1.880  -7.043  0.00  0.00    +0.051 A 
ATOM     17  C   UNL     1      -2.767  -1.612  -7.668  0.00  0.00    +0.043 A 
ATOM     18  C   UNL     1      -3.954  -2.034  -7.095  0.00  0.00    +0.024 A 
ATOM     19  C   UNL     1      -3.938  -2.724  -5.899  0.00  0.00    +0.049 A 
ATOM     20  C   UNL     1      -2.731  -2.999  -5.273  0.00  0.00    +0.145 A 
ATOM     21 CL   UNL     1      -2.789  -0.745  -9.171  0.00  0.00    -0.083 Cl
BRANCH  20  22
ATOM     22  O   UNL     1      -2.712  -3.683  -4.099  0.00  0.00    -0.493 OA
ATOM     23  C   UNL     1      -3.974  -4.093  -3.568  0.00  0.00    +0.277 C 
ENDBRANCH  20  22
ENDBRANCH  12  15
ENDBRANCH   6  12
BRANCH   2  24
ATOM     24  C   UNL     1       0.024  -0.743   1.267  0.00  0.00    +0.142 C 
BRANCH  24  25
ATOM     25  C   UNL     1      -1.389  -1.016   1.714  0.00  0.00    -0.030 A 
ATOM     26  C   UNL     1      -2.047  -0.105   2.518  0.00  0.00    +0.005 A 
ATOM     27  C   UNL     1      -3.344  -0.355   2.929  0.00  0.00    +0.000 A 
ATOM     28  C   UNL     1      -3.981  -1.516   2.534  0.00  0.00    +0.000 A 
ATOM     29  C   UNL     1      -3.323  -2.427   1.728  0.00  0.00    +0.000 A 
ATOM     30  C   UNL     1      -2.029  -2.175   1.315  0.00  0.00    +0.005 A 
ENDBRANCH  24  25
ENDBRANCH   2  24
TORSDOF 6
