REMARK  Name = ZINC39373009
REMARK  4 active torsions:
REMARK  status: ('A' for Active; 'I' for Inactive)
REMARK    1  A    between atoms: C_1  and  O_2
REMARK    2  A    between atoms: O_2  and  C_3
REMARK    3  A    between atoms: C_12  and  C_13
REMARK    4  A    between atoms: N_14  and  N_15
REMARK                            x       y       z     vdW  Elec       q    Type
REMARK                         _______ _______ _______ _____ _____    ______ ____
ROOT
ATOM      1  N   UNL     1       2.196  -2.904  -0.034  0.00  0.00    -0.247 N 
ATOM      2  C   UNL     1       3.377  -2.298  -0.042  0.00  0.00    +0.231 C 
ATOM      3  N   UNL     1       3.441  -0.897  -0.029  0.00  0.00    -0.288 N 
ATOM      4  C   UNL     1       4.638  -0.351   0.613  0.00  0.00    +0.220 C 
ATOM      5  C   UNL     1       5.796  -1.201   0.106  0.00  0.00    +0.113 C 
ATOM      6  C   UNL     1       6.770  -0.304  -0.252  0.00  0.00    +0.025 A 
ATOM      7  C   UNL     1       8.110  -0.483  -0.667  0.00  0.00    +0.012 A 
ATOM      8  C   UNL     1       8.816   0.643  -0.973  0.00  0.00    +0.001 A 
ATOM      9  C   UNL     1       8.282   1.929  -0.893  0.00  0.00    +0.002 A 
ATOM     10  C   UNL     1       7.006   2.189  -0.495  0.00  0.00    +0.026 A 
ATOM     11  C   UNL     1       6.200   1.068  -0.150  0.00  0.00    +0.046 A 
ATOM     12  N   UNL     1       4.970   1.021   0.275  0.00  0.00    -0.361 N 
ATOM     13  N   UNL     1       5.678  -2.510  -0.070  0.00  0.00    -0.147 NA
ATOM     14  N   UNL     1       4.494  -3.028  -0.057  0.00  0.00    -0.113 NA
ATOM     15  H   UNL     1       4.374   1.783   0.354  0.00  0.00    +0.162 HD
ATOM     16  H   UNL     1       2.749  -0.336  -0.414  0.00  0.00    +0.151 HD
ATOM     17  H   UNL     1       2.148  -3.872  -0.039  0.00  0.00    +0.192 HD
ENDROOT
BRANCH   1  19
ATOM     18  C   UNL     1      -0.062  -2.806  -0.012  0.00  0.00    +0.144 C 
ATOM     19  N   UNL     1       1.113  -2.204  -0.020  0.00  0.00    -0.179 NA
BRANCH  18  29
ATOM     20  C   UNL     1      -1.197  -0.636   0.010  0.00  0.00    +0.129 A 
ATOM     21  C   UNL     1      -2.373   0.110   0.019  0.00  0.00    +0.047 A 
ATOM     22  C   UNL     1      -3.598  -0.482   0.028  0.00  0.00    +0.012 A 
ATOM     23  C   UNL     1      -3.724  -1.884   0.027  0.00  0.00    -0.017 A 
ATOM     24  C   UNL     1      -4.986  -2.501   0.035  0.00  0.00    +0.008 A 
ATOM     25  C   UNL     1      -5.072  -3.861   0.033  0.00  0.00    +0.001 A 
ATOM     26  C   UNL     1      -3.926  -4.651   0.023  0.00  0.00    +0.001 A 
ATOM     27  C   UNL     1      -2.685  -4.082   0.016  0.00  0.00    +0.009 A 
ATOM     28  C   UNL     1      -2.562  -2.691   0.017  0.00  0.00    -0.006 A 
ATOM     29  C   UNL     1      -1.248  -2.040   0.003  0.00  0.00    +0.044 A 
BRANCH  20  31
ATOM     30  C   UNL     1      -0.017   1.425   0.010  0.00  0.00    +0.277 C 
ATOM     31  O   UNL     1       0.002  -0.004   0.002  0.00  0.00    -0.494 OA
ENDBRANCH  20  31
ENDBRANCH  18  29
ENDBRANCH   1  19
TORSDOF 3
