REMARK  Name = ZINC25579504
REMARK  9 active torsions:
REMARK  status: ('A' for Active; 'I' for Inactive)
REMARK    1  A    between atoms: C_4  and  C_7
REMARK    2  A    between atoms: C_7  and  O_8
REMARK    3  A    between atoms: O_8  and  C_9
REMARK    4  A    between atoms: N_11  and  C_12
REMARK    5  A    between atoms: C_12  and  C_14
REMARK    6  A    between atoms: C_12  and  N_18
REMARK    7  A    between atoms: N_18  and  C_19
REMARK    8  A    between atoms: C_19  and  N_21
REMARK    9  A    between atoms: N_21  and  C_22
REMARK                            x       y       z     vdW  Elec       q    Type
REMARK                         _______ _______ _______ _____ _____    ______ ____
ROOT
ATOM      1  C   UNL     1       2.910   1.117   0.124  0.00  0.00    +0.214 C 
ENDROOT
BRANCH   1   4
ATOM      2  C   UNL     1       0.533   0.818   0.573  0.00  0.00    +0.402 C 
ATOM      3  O   UNL     1       0.713  -0.384   0.566  0.00  0.00    -0.226 OA
ATOM      4  N   UNL     1       1.568   1.656   0.362  0.00  0.00    -0.259 N 
ATOM      5  H   UNL     1       1.405   2.744   0.368  0.00  0.00    +0.154 HD
BRANCH   2   6
ATOM      6  O   UNL     1      -0.700   1.313   0.786  0.00  0.00    -0.446 OA
BRANCH   6   7
ATOM      7  C   UNL     1      -1.768   0.352   1.000  0.00  0.00    +0.269 C 
BRANCH   7  11
ATOM      8  C   UNL     1      -5.449   2.429   1.623  0.00  0.00    +0.000 A 
ATOM      9  C   UNL     1      -5.067   2.068   0.344  0.00  0.00    +0.000 A 
ATOM     10  C   UNL     1      -3.875   1.396   0.143  0.00  0.00    +0.007 A 
ATOM     11  C   UNL     1      -3.066   1.085   1.220  0.00  0.00    -0.010 A 
ATOM     12  C   UNL     1      -3.451   1.441   2.499  0.00  0.00    +0.007 A 
ATOM     13  C   UNL     1      -4.640   2.118   2.700  0.00  0.00    +0.000 A 
ENDBRANCH   7  11
ENDBRANCH   6   7
ENDBRANCH   2   6
ENDBRANCH   1   4
BRANCH   1  14
ATOM     14  C   UNL     1       3.928   1.900   0.955  0.00  0.00    +0.225 C 
ATOM     15 CL   UNL     1       3.521   1.747   2.705  0.00  0.00    -0.080 Cl
ATOM     16 CL   UNL     1       5.579   1.237   0.662  0.00  0.00    -0.080 Cl
ATOM     17 CL   UNL     1       3.885   3.638   0.477  0.00  0.00    -0.080 Cl
ENDBRANCH   1  14
BRANCH   1  18
ATOM     18  N   UNL     1       3.241   1.241  -1.298  0.00  0.00    -0.305 N 
ATOM     19  H   UNL     1       3.507   2.223  -1.717  0.00  0.00    +0.150 HD
BRANCH  18  20
ATOM     20  C   UNL     1       3.219   0.152  -2.092  0.00  0.00    +0.136 C 
ATOM     21  S   UNL     1       2.805  -1.375  -1.440  0.00  0.00    -0.019 S 
BRANCH  20  22
ATOM     22  N   UNL     1       3.524   0.267  -3.400  0.00  0.00    -0.296 N 
ATOM     23  H   UNL     1       3.720   1.258  -3.835  0.00  0.00    +0.154 HD
BRANCH  22  24
ATOM     24  C   UNL     1       3.589  -0.876  -4.205  0.00  0.00    +0.053 A 
ATOM     25  C   UNL     1       2.574  -1.821  -4.157  0.00  0.00    +0.044 A 
ATOM     26  C   UNL     1       2.639  -2.946  -4.957  0.00  0.00    +0.043 A 
ATOM     27  C   UNL     1       3.721  -3.136  -5.799  0.00  0.00    +0.021 A 
ATOM     28  C   UNL     1       4.737  -2.200  -5.846  0.00  0.00    +0.023 A 
ATOM     29  C   UNL     1       4.675  -1.070  -5.052  0.00  0.00    +0.062 A 
ATOM     30 CL   UNL     1       5.951   0.106  -5.112  0.00  0.00    -0.082 Cl
ATOM     31 CL   UNL     1       1.366  -4.125  -4.902  0.00  0.00    -0.083 Cl
ENDBRANCH  22  24
ENDBRANCH  20  22
ENDBRANCH  18  20
ENDBRANCH   1  18
TORSDOF 9
