REMARK  Name = ZINC17188747
REMARK  12 active torsions:
REMARK  status: ('A' for Active; 'I' for Inactive)
REMARK    1  A    between atoms: C_1  and  C_2
REMARK    2  A    between atoms: C_2  and  C_3
REMARK    3  A    between atoms: C_3  and  C_5
REMARK    4  A    between atoms: C_3  and  C_6
REMARK    5  A    between atoms: C_6  and  C_7
REMARK    6  A    between atoms: C_8  and  C_34
REMARK    7  A    between atoms: C_15  and  S_17
REMARK    8  A    between atoms: S_17  and  C_18
REMARK    9  A    between atoms: C_18  and  C_19
REMARK   10  A    between atoms: N_21  and  N_22
REMARK   11  A    between atoms: C_23  and  C_25
REMARK   12  A    between atoms: C_29  and  N_31
REMARK                            x       y       z     vdW  Elec       q    Type
REMARK                         _______ _______ _______ _____ _____    ______ ____
ROOT
ATOM      1  S   UNL     1       7.604  -3.151  -2.469  0.00  0.00    -0.078 S 
ENDROOT
BRANCH   1  10
ATOM      2  C   UNL     1       1.661  -2.496  -2.382  0.00  0.00    -0.023 A 
ATOM      3  C   UNL     1       1.059  -2.809  -3.541  0.00  0.00    -0.007 A 
ATOM      4  S   UNL     1       2.417  -3.301  -4.587  0.00  0.00    -0.075 S 
ATOM      5  C   UNL     1       3.745  -3.069  -3.436  0.00  0.00    +0.092 A 
ATOM      6  C   UNL     1       3.104  -2.614  -2.280  0.00  0.00    +0.075 A 
ATOM      7  C   UNL     1       3.997  -2.329  -1.131  0.00  0.00    +0.282 A 
ATOM      8  O   UNL     1       3.533  -1.931  -0.074  0.00  0.00    -0.265 OA
ATOM      9  N   UNL     1       5.313  -2.511  -1.264  0.00  0.00    -0.185 NA
ATOM     10  C   UNL     1       5.857  -2.939  -2.385  0.00  0.00    +0.171 A 
ATOM     11  N   UNL     1       5.096  -3.231  -3.478  0.00  0.00    -0.328 N 
ATOM     12  C   UNL     1      -0.409  -2.758  -3.876  0.00  0.00    +0.052 C 
ATOM     13  H   UNL     1       5.521  -3.545  -4.292  0.00  0.00    +0.168 HD
BRANCH   2  14
ATOM     14  C   UNL     1       0.849  -2.021  -1.205  0.00  0.00    +0.040 C 
BRANCH  14  15
ATOM     15  C   UNL     1       0.718  -0.497  -1.257  0.00  0.00    -0.010 C 
ATOM     16  C   UNL     1      -0.089  -0.097  -2.493  0.00  0.00    +0.008 C 
BRANCH  15  18
ATOM     17  C   UNL     1      -0.019   1.526   0.010  0.00  0.00    +0.004 C 
ATOM     18  C   UNL     1       0.002  -0.004   0.002  0.00  0.00    +0.000 C 
ENDBRANCH  15  18
ENDBRANCH  14  15
ENDBRANCH   2  14
ENDBRANCH   1  10
BRANCH   1  19
ATOM     19  C   UNL     1       8.185  -2.666  -0.820  0.00  0.00    +0.174 C 
BRANCH  19  20
ATOM     20  C   UNL     1       9.684  -2.803  -0.756  0.00  0.00    +0.239 C 
ATOM     21  O   UNL     1      10.300  -3.188  -1.726  0.00  0.00    -0.273 OA
ATOM     22  N   UNL     1      10.341  -2.496   0.381  0.00  0.00    -0.233 N 
ATOM     23  H   UNL     1       9.848  -2.187   1.157  0.00  0.00    +0.173 HD
BRANCH  22  24
ATOM     24  N   UNL     1      11.735  -2.623   0.441  0.00  0.00    -0.230 N 
ATOM     25  C   UNL     1      12.391  -2.316   1.577  0.00  0.00    +0.260 C 
ATOM     26  O   UNL     1      11.773  -1.929   2.550  0.00  0.00    -0.269 OA
ATOM     27  H   UNL     1      12.227  -2.931  -0.336  0.00  0.00    +0.173 HD
BRANCH  25  28
ATOM     28  C   UNL     1      13.862  -2.450   1.641  0.00  0.00    +0.040 A 
ATOM     29  C   UNL     1      14.575  -2.888   0.523  0.00  0.00    +0.013 A 
ATOM     30  C   UNL     1      15.947  -3.010   0.589  0.00  0.00    +0.003 A 
ATOM     31  C   UNL     1      16.617  -2.699   1.759  0.00  0.00    +0.033 A 
ATOM     32  C   UNL     1      15.917  -2.264   2.870  0.00  0.00    +0.127 A 
ATOM     33  C   UNL     1      14.544  -2.133   2.816  0.00  0.00    +0.045 A 
BRANCH  32  34
ATOM     34  N   UNL     1      16.642  -1.934   4.117  0.00  0.00    +0.056 N 
ATOM     35  O   UNL     1      17.845  -2.045   4.165  0.00  0.00    -0.126 OA
ATOM     36  O   UNL     1      16.031  -1.554   5.089  0.00  0.00    -0.126 OA
ENDBRANCH  32  34
ENDBRANCH  25  28
ENDBRANCH  22  24
ENDBRANCH  19  20
ENDBRANCH   1  19
TORSDOF 9
