REMARK  Name = ZINC24177323
REMARK  12 active torsions:
REMARK  status: ('A' for Active; 'I' for Inactive)
REMARK    1  A    between atoms: C_1  and  C_2
REMARK    2  A    between atoms: C_5  and  C_9
REMARK    3  A    between atoms: C_6  and  C_8
REMARK    4  A    between atoms: N_11  and  N_12
REMARK    5  A    between atoms: C_13  and  C_15
REMARK    6  A    between atoms: C_15  and  C_17
REMARK    7  A    between atoms: C_15  and  N_21
REMARK    8  A    between atoms: C_17  and  C_18
REMARK    9  A    between atoms: C_18  and  S_19
REMARK   10  A    between atoms: S_19  and  C_20
REMARK   11  A    between atoms: N_21  and  S_22
REMARK   12  A    between atoms: S_22  and  C_25
REMARK                            x       y       z     vdW  Elec       q    Type
REMARK                         _______ _______ _______ _____ _____    ______ ____
ROOT
ATOM      1  C   UNL     1       5.427   0.223  -1.973  0.00  0.00    +0.164 C 
ENDROOT
BRANCH   1   3
ATOM      2  N   UNL     1       6.141   0.888  -4.246  0.00  0.00    -0.233 N 
ATOM      3  C   UNL     1       5.956  -0.099  -3.347  0.00  0.00    +0.248 C 
ATOM      4  O   UNL     1       6.214  -1.246  -3.644  0.00  0.00    -0.273 OA
ATOM      5  H   UNL     1       5.907   1.929  -3.977  0.00  0.00    +0.173 HD
BRANCH   2   8
ATOM      6  C   UNL     1       6.818   1.576  -6.422  0.00  0.00    +0.260 C 
ATOM      7  O   UNL     1       6.559   2.726  -6.125  0.00  0.00    -0.269 OA
ATOM      8  N   UNL     1       6.633   0.589  -5.523  0.00  0.00    -0.230 N 
ATOM      9  H   UNL     1       6.867  -0.451  -5.793  0.00  0.00    +0.173 HD
BRANCH   6  14
ATOM     10  C   UNL     1       8.836   0.348 -11.669  0.00  0.00    +0.044 C 
ATOM     11  C   UNL     1       8.308   0.669 -10.295  0.00  0.00    -0.050 A 
ATOM     12  C   UNL     1       8.238  -0.324  -9.334  0.00  0.00    +0.004 A 
ATOM     13  C   UNL     1       7.755  -0.036  -8.075  0.00  0.00    +0.013 A 
ATOM     14  C   UNL     1       7.337   1.261  -7.770  0.00  0.00    +0.041 A 
ATOM     15  C   UNL     1       7.405   2.256  -8.746  0.00  0.00    -0.038 A 
ATOM     16  C   UNL     1       7.894   1.956 -10.000  0.00  0.00    +0.007 A 
ATOM     17  C   UNL     1       6.950   3.657  -8.428  0.00  0.00    +0.044 C 
ENDBRANCH   6  14
ENDBRANCH   2   8
ENDBRANCH   1   3
BRANCH   1  18
ATOM     18  N   UNL     1       5.316  -1.011  -1.191  0.00  0.00    -0.178 NA
ATOM     19  H   UNL     1       4.350  -1.533  -1.121  0.00  0.00    +0.149 HD
BRANCH  18  20
ATOM     20  S   UNL     1       6.566  -1.488  -0.216  0.00  0.00    +0.059 S 
ATOM     21  O   UNL     1       7.738  -1.471  -1.019  0.00  0.00    -0.153 OA
ATOM     22  O   UNL     1       6.127  -2.656   0.465  0.00  0.00    -0.153 OA
BRANCH  20  23
ATOM     23  C   UNL     1       6.777  -0.240   1.009  0.00  0.00    +0.109 A 
ATOM     24  C   UNL     1       6.001  -0.258   2.154  0.00  0.00    +0.032 A 
ATOM     25  C   UNL     1       6.163   0.721   3.116  0.00  0.00    +0.051 A 
ATOM     26  C   UNL     1       7.104   1.724   2.936  0.00  0.00    +0.162 A 
ATOM     27  C   UNL     1       7.885   1.741   1.787  0.00  0.00    +0.164 A 
ATOM     28  C   UNL     1       7.717   0.756   0.825  0.00  0.00    +0.078 A 
ATOM     29  O   UNL     1       8.820   2.711   1.595  0.00  0.00    -0.485 OA
ATOM     30  C   UNL     1       8.701   3.888   2.401  0.00  0.00    +0.270 C 
ATOM     31  C   UNL     1       8.454   3.454   3.852  0.00  0.00    +0.270 C 
ATOM     32  O   UNL     1       7.245   2.686   3.889  0.00  0.00    -0.485 OA
ENDBRANCH  20  23
ENDBRANCH  18  20
ENDBRANCH   1  18
BRANCH   1  33
ATOM     33  C   UNL     1       4.048   0.874  -2.097  0.00  0.00    +0.040 C 
BRANCH  33  34
ATOM     34  C   UNL     1       3.583   1.349  -0.719  0.00  0.00    +0.071 C 
BRANCH  34  35
ATOM     35  S   UNL     1       1.896   2.005  -0.843  0.00  0.00    -0.164 S 
ATOM     36  C   UNL     1       1.555   2.655   0.816  0.00  0.00    +0.084 C 
ENDBRANCH  34  35
ENDBRANCH  33  34
ENDBRANCH   1  33
TORSDOF 9
