REMARK  Name = ZINC00933069
REMARK  5 active torsions:
REMARK  status: ('A' for Active; 'I' for Inactive)
REMARK    1  A    between atoms: C_1  and  C_2
REMARK    2  A    between atoms: C_7  and  C_26
REMARK    3  A    between atoms: C_10  and  C_12
REMARK    4  A    between atoms: C_12  and  S_13
REMARK    5  A    between atoms: S_13  and  C_14
REMARK                            x       y       z     vdW  Elec       q    Type
REMARK                         _______ _______ _______ _____ _____    ______ ____
ROOT
ATOM      1  S   UNL     1      -2.826   3.810   0.130  0.00  0.00    -0.096 S 
ENDROOT
BRANCH   1   2
ATOM      2  C   UNL     1      -1.256   3.011   0.154  0.00  0.00    +0.109 A 
ATOM      3  C   UNL     1      -0.056   3.775   0.167  0.00  0.00    +0.043 A 
ATOM      4  C   UNL     1       0.095   5.239   0.162  0.00  0.00    -0.025 A 
ATOM      5  C   UNL     1       1.349   5.720   0.174  0.00  0.00    -0.004 A 
ATOM      6  S   UNL     1       2.395   4.282   0.197  0.00  0.00    -0.073 S 
ATOM      7  C   UNL     1       1.138   3.033   0.186  0.00  0.00    +0.113 A 
ATOM      8  N   UNL     1       1.129   1.714   0.193  0.00  0.00    -0.228 NA
ATOM      9  C   UNL     1      -0.015   1.056   0.180  0.00  0.00    +0.223 A 
ATOM     10  N   UNL     1      -1.174   1.689   0.157  0.00  0.00    -0.229 NA
ATOM     11  C   UNL     1       1.381   7.225   0.163  0.00  0.00    +0.043 C 
ATOM     12  C   UNL     1      -0.034   7.640  -0.294  0.00  0.00    +0.010 C 
ATOM     13  C   UNL     1      -0.874   6.425   0.148  0.00  0.00    +0.037 C 
ENDBRANCH   1   2
BRANCH   1  14
ATOM     14  C   UNL     1      -3.915   2.364   0.121  0.00  0.00    +0.171 C 
BRANCH  14  22
ATOM     15  C   UNL     1      -6.587  -0.051  -1.365  0.00  0.00    +0.028 C 
ATOM     16  C   UNL     1      -6.046   0.473  -0.033  0.00  0.00    +0.073 C 
ATOM     17  C   UNL     1      -6.723  -0.269   1.130  0.00  0.00    +0.022 C 
ATOM     18  C   UNL     1      -8.217   0.062   1.139  0.00  0.00    +0.004 C 
ATOM     19  C   UNL     1      -8.406   1.566   1.352  0.00  0.00    +0.022 C 
ATOM     20  C   UNL     1      -7.749   2.328   0.198  0.00  0.00    +0.073 C 
ATOM     21  N   UNL     1      -6.345   1.906   0.091  0.00  0.00    -0.295 N 
ATOM     22  C   UNL     1      -5.352   2.817   0.100  0.00  0.00    +0.226 C 
ATOM     23  O   UNL     1      -5.614   4.001   0.091  0.00  0.00    -0.275 OA
ATOM     24  C   UNL     1      -7.812   3.832   0.474  0.00  0.00    +0.028 C 
ENDBRANCH  14  22
ENDBRANCH   1  14
TORSDOF 3
