REMARK  Name = ZINC04819194
REMARK  3 active torsions:
REMARK  status: ('A' for Active; 'I' for Inactive)
REMARK    1  A    between atoms: C_3  and  N_28
REMARK    2  A    between atoms: C_6  and  C_7
REMARK    3  A    between atoms: C_20  and  C_23
REMARK                            x       y       z     vdW  Elec       q    Type
REMARK                         _______ _______ _______ _____ _____    ______ ____
ROOT
ATOM      1  C   UNL     1      -2.553   3.869   0.045  0.00  0.00    +0.105 C 
ATOM      2  C   UNL     1      -3.067   4.013  -1.378  0.00  0.00    +0.029 C 
ATOM      3  C   UNL     1      -4.537   4.499  -1.372  0.00  0.00    +0.033 C 
ATOM      4  C   UNL     1      -5.117   3.866  -2.623  0.00  0.00    -0.030 C 
ATOM      5  C   UNL     1      -4.400   2.835  -2.990  0.00  0.00    -0.023 C 
ATOM      6  C   UNL     1      -3.211   2.630  -2.045  0.00  0.00    +0.049 C 
ATOM      7  C   UNL     1      -3.596   1.574  -1.043  0.00  0.00    -0.017 A 
ATOM      8  C   UNL     1      -3.828   0.289  -1.517  0.00  0.00    +0.026 A 
ATOM      9  C   UNL     1      -4.184  -0.726  -0.652  0.00  0.00    +0.042 A 
ATOM     10  C   UNL     1      -4.312  -0.469   0.702  0.00  0.00    +0.034 A 
ATOM     11  C   UNL     1      -4.084   0.804   1.181  0.00  0.00    +0.077 A 
ATOM     12  C   UNL     1      -3.725   1.831   0.309  0.00  0.00    +0.043 A 
ATOM     13  N   UNL     1      -3.519   3.120   0.853  0.00  0.00    -0.336 N 
ATOM     14 CL   UNL     1      -4.469  -2.326  -1.262  0.00  0.00    -0.084 Cl
ATOM     15  H   UNL     1      -3.217   3.060   1.813  0.00  0.00    +0.147 HD
ENDROOT
BRANCH   1  21
ATOM     16  C   UNL     1      -0.450   3.148  -1.106  0.00  0.00    +0.008 A 
ATOM     17  C   UNL     1       0.754   2.470  -1.122  0.00  0.00    +0.033 A 
ATOM     18  C   UNL     1       1.175   1.784   0.002  0.00  0.00    +0.126 A 
ATOM     19  C   UNL     1       0.391   1.773   1.139  0.00  0.00    +0.033 A 
ATOM     20  C   UNL     1      -0.816   2.447   1.154  0.00  0.00    +0.008 A 
ATOM     21  C   UNL     1      -1.238   3.133   0.030  0.00  0.00    -0.027 A 
BRANCH  18  22
ATOM     22  N   UNL     1       2.468   1.062  -0.013  0.00  0.00    +0.056 N 
ATOM     23  O   UNL     1       3.159   1.072  -1.016  0.00  0.00    -0.126 OA
ATOM     24  O   UNL     1       2.839   0.458   0.977  0.00  0.00    -0.126 OA
ENDBRANCH  18  22
ENDBRANCH   1  21
BRANCH  11  25
ATOM     25  C   UNL     1      -4.224   1.086   2.655  0.00  0.00    +0.419 C 
ATOM     26  F   UNL     1      -4.589  -0.088   3.322  0.00  0.00    -0.166 F 
ATOM     27  F   UNL     1      -3.005   1.550   3.159  0.00  0.00    -0.166 F 
ATOM     28  F   UNL     1      -5.210   2.059   2.851  0.00  0.00    -0.166 F 
ENDBRANCH  11  25
TORSDOF 3
