REMARK  Name = ZINC49546075
REMARK  5 active torsions:
REMARK  status: ('A' for Active; 'I' for Inactive)
REMARK    1  A    between atoms: C_1  and  N_2
REMARK    2  A    between atoms: C_8  and  C_20
REMARK    3  A    between atoms: N_13  and  C_14
REMARK    4  A    between atoms: C_25  and  O_26
REMARK    5  A    between atoms: O_26  and  C_27
REMARK                            x       y       z     vdW  Elec       q    Type
REMARK                         _______ _______ _______ _____ _____    ______ ____
ROOT
ATOM      1  C   UNL     1      -0.155   1.556   0.842  0.00  0.00    +0.154 C 
ATOM      2  N   UNL     1      -0.059   0.095   0.780  0.00  0.00    -0.293 N 
ATOM      3  C   UNL     1      -1.168  -0.654   0.491  0.00  0.00    +0.126 A 
ATOM      4  C   UNL     1      -0.963  -1.988   0.452  0.00  0.00    +0.042 A 
ATOM      5  S   UNL     1       0.756  -2.151   0.827  0.00  0.00    -0.029 S 
ATOM      6  C   UNL     1       1.123  -0.517   1.002  0.00  0.00    +0.292 A 
ATOM      7  O   UNL     1       2.198  -0.008   1.268  0.00  0.00    -0.259 OA
ATOM      8  C   UNL     1      -1.992  -3.024   0.149  0.00  0.00    +0.071 C 
ATOM      9  C   UNL     1      -3.364  -2.470   0.561  0.00  0.00    +0.110 C 
ATOM     10  C   UNL     1      -3.491  -1.028   0.159  0.00  0.00    +0.226 C 
ATOM     11  O   UNL     1      -4.564  -0.630  -0.242  0.00  0.00    -0.275 OA
ATOM     12  N   UNL     1      -2.466  -0.159   0.224  0.00  0.00    -0.225 N 
ENDROOT
BRANCH  12  13
ATOM     13  C   UNL     1      -2.681   1.211   0.033  0.00  0.00    +0.043 A 
ATOM     14  C   UNL     1      -2.467   1.781  -1.216  0.00  0.00    +0.024 A 
ATOM     15  C   UNL     1      -2.679   3.133  -1.401  0.00  0.00    +0.002 A 
ATOM     16  C   UNL     1      -3.104   3.919  -0.346  0.00  0.00    +0.000 A 
ATOM     17  C   UNL     1      -3.318   3.355   0.898  0.00  0.00    +0.002 A 
ATOM     18  C   UNL     1      -3.114   2.002   1.089  0.00  0.00    +0.024 A 
ENDBRANCH  12  13
BRANCH   8  19
ATOM     19  C   UNL     1      -1.695  -4.279   0.928  0.00  0.00    +0.003 A 
ATOM     20  C   UNL     1      -1.664  -4.245   2.309  0.00  0.00    +0.008 A 
ATOM     21  C   UNL     1      -1.391  -5.397   3.024  0.00  0.00    +0.001 A 
ATOM     22  C   UNL     1      -1.148  -6.585   2.360  0.00  0.00    +0.004 A 
ATOM     23  C   UNL     1      -1.178  -6.624   0.979  0.00  0.00    +0.046 A 
ATOM     24  C   UNL     1      -1.457  -5.471   0.260  0.00  0.00    +0.124 A 
BRANCH  24  25
ATOM     25  O   UNL     1      -1.493  -5.508  -1.099  0.00  0.00    -0.495 OA
ATOM     26  C   UNL     1      -1.238  -6.770  -1.720  0.00  0.00    +0.277 C 
ENDBRANCH  24  25
ENDBRANCH   8  19
TORSDOF 3
