REMARK  Name = ZINC08413657
REMARK  3 active torsions:
REMARK  status: ('A' for Active; 'I' for Inactive)
REMARK    1  A    between atoms: C_1  and  C_2
REMARK    2  A    between atoms: C_5  and  C_7
REMARK    3  A    between atoms: N_13  and  C_14
REMARK                            x       y       z     vdW  Elec       q    Type
REMARK                         _______ _______ _______ _____ _____    ______ ____
ROOT
ATOM      1  C   UNL     1       2.335   3.550   0.325  0.00  0.00    +0.066 C 
ATOM      2  C   UNL     1       1.238   2.748   0.212  0.00  0.00    +0.081 C 
ATOM      3  C   UNL     1       1.163   1.293   0.005  0.00  0.00    +0.257 C 
ATOM      4  O   UNL     1       2.168   0.612  -0.093  0.00  0.00    -0.269 OA
ATOM      5  N   UNL     1      -0.044   0.758  -0.070  0.00  0.00    -0.260 N 
ATOM      6  C   UNL     1      -1.169   1.546   0.037  0.00  0.00    +0.166 C 
ATOM      7  N   UNL     1      -2.431   1.181  -0.019  0.00  0.00    -0.225 NA
ATOM      8  S   UNL     1      -0.494   3.182   0.275  0.00  0.00    -0.049 S 
ATOM      9  H   UNL     1      -0.156  -0.326  -0.220  0.00  0.00    +0.157 HD
ENDROOT
BRANCH   7  10
ATOM     10  C   UNL     1      -3.417   2.130  -0.016  0.00  0.00    +0.080 A 
ATOM     11  C   UNL     1      -3.334   3.232  -0.870  0.00  0.00    +0.029 A 
ATOM     12  C   UNL     1      -4.334   4.182  -0.864  0.00  0.00    +0.002 A 
ATOM     13  C   UNL     1      -5.414   4.050  -0.008  0.00  0.00    +0.001 A 
ATOM     14  C   UNL     1      -5.501   2.963   0.845  0.00  0.00    +0.017 A 
ATOM     15  C   UNL     1      -4.510   2.003   0.846  0.00  0.00    +0.043 A 
ATOM     16 BR   UNL     1      -4.630   0.519   2.013  0.00  0.00    -0.048 Br
ENDBRANCH   7  10
BRANCH   1  21
ATOM     17  C   UNL     1       5.936   0.163   0.728  0.00  0.00    +0.086 C 
ATOM     18  C   UNL     1       5.230   1.489   0.601  0.00  0.00    +0.103 A 
ATOM     19  C   UNL     1       5.834   2.696   0.538  0.00  0.00    +0.045 A 
ATOM     20  C   UNL     1       4.822   3.661   0.419  0.00  0.00    +0.049 A 
ATOM     21  C   UNL     1       3.624   2.976   0.423  0.00  0.00    +0.129 A 
ATOM     22  O   UNL     1       3.902   1.660   0.531  0.00  0.00    -0.461 OA
ENDBRANCH   1  21
TORSDOF 2
