REMARK  Name = ZINC06198540
REMARK  14 active torsions:
REMARK  status: ('A' for Active; 'I' for Inactive)
REMARK    1  A    between atoms: C_1  and  N_64
REMARK    2  A    between atoms: C_2  and  N_64
REMARK    3  A    between atoms: C_3  and  C_4
REMARK    4  A    between atoms: C_3  and  N_64
REMARK    5  A    between atoms: C_4  and  C_5
REMARK    6  A    between atoms: C_5  and  N_6
REMARK    7  A    between atoms: N_6  and  C_7
REMARK    8  A    between atoms: C_7  and  N_9
REMARK    9  A    between atoms: N_9  and  C_10
REMARK   10  A    between atoms: N_9  and  C_20
REMARK   11  A    between atoms: C_10  and  C_11
REMARK   12  A    between atoms: C_20  and  C_21
REMARK   13  A    between atoms: C_25  and  O_33
REMARK   14  A    between atoms: O_33  and  C_34
REMARK                            x       y       z     vdW  Elec       q    Type
REMARK                         _______ _______ _______ _____ _____    ______ ____
ROOT
ATOM      1  N   UNL     1      -2.925   0.716   1.401  0.00  0.00    -0.304 N 
ENDROOT
BRANCH   1   2
ATOM      2  C   UNL     1      -2.515  -0.404   2.028  0.00  0.00    +0.133 C 
ATOM      3  S   UNL     1      -2.997  -0.706   3.643  0.00  0.00    -0.019 S 
BRANCH   2   4
ATOM      4  N   UNL     1      -1.726  -1.286   1.384  0.00  0.00    -0.326 N 
ATOM      5  H   UNL     1      -1.453  -1.115   0.469  0.00  0.00    +0.148 HD
BRANCH   4   6
ATOM      6  C   UNL     1      -1.280  -2.504   2.066  0.00  0.00    +0.101 C 
BRANCH   6   7
ATOM      7  C   UNL     1      -0.403  -3.326   1.120  0.00  0.00    +0.000 C 
BRANCH   7   8
ATOM      8  C   UNL     1       0.063  -4.598   1.832  0.00  0.00    -0.078 C 
BRANCH   8  11
ATOM      9  C   UNL     1       1.562  -6.489   1.640  0.00  0.00    -0.097 C 
ATOM     10  C   UNL     1       0.125  -5.890  -0.214  0.00  0.00    -0.097 C 
ATOM     11  N   UNL     1       0.926  -5.370   0.914  0.00  0.00    +0.376 N 
ATOM     12  H   UNL     1       1.658  -4.752   0.546  0.00  0.00    -0.083 HD
ENDBRANCH   8  11
ENDBRANCH   7   8
ENDBRANCH   6   7
ENDBRANCH   4   6
ENDBRANCH   2   4
ENDBRANCH   1   2
BRANCH   1  13
ATOM     13  C   UNL     1      -2.513   0.975   0.019  0.00  0.00    +0.142 C 
BRANCH  13  14
ATOM     14  C   UNL     1      -1.220   1.749   0.017  0.00  0.00    -0.026 A 
ATOM     15  C   UNL     1      -0.013   1.076   0.008  0.00  0.00    +0.009 A 
ATOM     16  C   UNL     1       1.176   1.782   0.000  0.00  0.00    +0.050 A 
ATOM     17  C   UNL     1       1.160   3.167   0.008  0.00  0.00    +0.166 A 
ATOM     18  C   UNL     1      -0.057   3.845   0.022  0.00  0.00    +0.167 A 
ATOM     19  C   UNL     1      -1.244   3.131   0.031  0.00  0.00    +0.054 A 
ATOM     20  O   UNL     1       0.192   5.188   0.026  0.00  0.00    -0.453 OA
ATOM     21  C   UNL     1       1.561   5.326  -0.398  0.00  0.00    +0.466 C 
ATOM     22  O   UNL     1       2.171   4.084   0.002  0.00  0.00    -0.453 OA
ENDBRANCH  13  14
ENDBRANCH   1  13
BRANCH   1  23
ATOM     23  C   UNL     1      -3.783   1.675   2.101  0.00  0.00    +0.147 C 
BRANCH  23  24
ATOM     24  C   UNL     1      -5.229   1.319   1.869  0.00  0.00    +0.035 A 
ATOM     25  C   UNL     1      -5.891   0.557   2.775  0.00  0.00    +0.020 A 
ATOM     26  C   UNL     1      -7.294   0.228   2.521  0.00  0.00    +0.002 A 
ATOM     27  C   UNL     1      -8.027  -0.554   3.420  0.00  0.00    +0.055 A 
ATOM     28  C   UNL     1      -9.349  -0.845   3.150  0.00  0.00    +0.121 A 
ATOM     29  C   UNL     1      -9.951  -0.365   1.990  0.00  0.00    +0.047 A 
ATOM     30  C   UNL     1      -9.241   0.405   1.097  0.00  0.00    +0.030 A 
ATOM     31  C   UNL     1      -7.907   0.711   1.349  0.00  0.00    +0.049 A 
ATOM     32  N   UNL     1      -7.178   1.481   0.467  0.00  0.00    -0.322 N 
ATOM     33  H   UNL     1      -7.613   1.820  -0.367  0.00  0.00    +0.169 HD
ATOM     34  C   UNL     1      -5.891   1.783   0.712  0.00  0.00    +0.254 A 
ATOM     35  O   UNL     1      -5.279   2.471  -0.087  0.00  0.00    -0.268 OA
BRANCH  28  36
ATOM     36  O   UNL     1     -10.066  -1.605   4.021  0.00  0.00    -0.495 OA
ATOM     37  C   UNL     1     -11.428  -1.869   3.681  0.00  0.00    +0.277 C 
ENDBRANCH  28  36
ENDBRANCH  23  24
ENDBRANCH   1  23
TORSDOF 11
