REMARK  Name = ZINC36579123
REMARK  15 active torsions:
REMARK  status: ('A' for Active; 'I' for Inactive)
REMARK    1  A    between atoms: C_1  and  C_2
REMARK    2  A    between atoms: C_2  and  C_3
REMARK    3  A    between atoms: C_2  and  C_4
REMARK    4  A    between atoms: C_2  and  N_5
REMARK    5  A    between atoms: C_6  and  C_8
REMARK    6  A    between atoms: C_8  and  C_10
REMARK    7  A    between atoms: C_8  and  N_17
REMARK    8  A    between atoms: C_13  and  O_16
REMARK    9  A    between atoms: N_17  and  C_34
REMARK   10  A    between atoms: C_18  and  C_20
REMARK   11  A    between atoms: C_20  and  C_28
REMARK   12  A    between atoms: C_21  and  C_22
REMARK   13  A    between atoms: C_34  and  C_35
REMARK   14  A    between atoms: C_34  and  C_36
REMARK   15  A    between atoms: C_34  and  C_37
REMARK                            x       y       z     vdW  Elec       q    Type
REMARK                         _______ _______ _______ _____ _____    ______ ____
ROOT
ATOM      1  N   UNL     1       4.136  -1.505  -2.464  0.00  0.00    -0.277 N 
ATOM      2  C   UNL     1       4.631  -0.255  -2.557  0.00  0.00    +0.248 C 
ATOM      3  O   UNL     1       4.405   0.417  -3.546  0.00  0.00    -0.270 OA
ENDROOT
BRANCH   1   4
ATOM      4  C   UNL     1       4.398  -2.309  -1.268  0.00  0.00    +0.030 C 
ATOM      5  C   UNL     1       4.307  -3.795  -1.622  0.00  0.00    +0.031 C 
ATOM      6  C   UNL     1       5.800  -1.996  -0.740  0.00  0.00    +0.031 C 
ATOM      7  C   UNL     1       3.362  -1.977  -0.193  0.00  0.00    +0.031 C 
ENDBRANCH   1   4
BRANCH   2   8
ATOM      8  C   UNL     1       5.445   0.298  -1.463  0.00  0.00    +0.045 C 
ATOM      9  C   UNL     1       4.841   0.895  -0.401  0.00  0.00    +0.021 C 
BRANCH   9  10
ATOM     10  C   UNL     1       3.414   1.236  -0.464  0.00  0.00    -0.024 A 
ATOM     11  C   UNL     1       2.622   1.164   0.688  0.00  0.00    +0.008 A 
ATOM     12  C   UNL     1       1.283   1.486   0.621  0.00  0.00    +0.001 A 
ATOM     13  C   UNL     1       0.722   1.880  -0.582  0.00  0.00    +0.000 A 
ATOM     14  C   UNL     1       1.498   1.954  -1.726  0.00  0.00    +0.001 A 
ATOM     15  C   UNL     1       2.840   1.641  -1.674  0.00  0.00    +0.008 A 
ENDBRANCH   9  10
BRANCH   8  16
ATOM     16  C   UNL     1       6.922   0.203  -1.518  0.00  0.00    -0.013 A 
ATOM     17  C   UNL     1       7.601   0.531  -2.692  0.00  0.00    +0.008 A 
ATOM     18  C   UNL     1       8.977   0.441  -2.737  0.00  0.00    +0.001 A 
ATOM     19  C   UNL     1       9.684   0.027  -1.621  0.00  0.00    +0.000 A 
ATOM     20  C   UNL     1       9.015  -0.300  -0.455  0.00  0.00    +0.001 A 
ATOM     21  C   UNL     1       7.640  -0.208  -0.395  0.00  0.00    +0.008 A 
ENDBRANCH   8  16
ENDBRANCH   2   8
BRANCH   1  22
ATOM     22  C   UNL     1       3.337  -2.060  -3.559  0.00  0.00    +0.193 C 
BRANCH  22  23
ATOM     23  C   UNL     1       2.041  -1.298  -3.671  0.00  0.00    -0.018 A 
ATOM     24  C   UNL     1       1.969  -0.174  -4.473  0.00  0.00    +0.009 A 
ATOM     25  C   UNL     1       0.783   0.527  -4.577  0.00  0.00    +0.046 A 
ATOM     26  C   UNL     1      -0.336   0.101  -3.877  0.00  0.00    +0.117 A 
ATOM     27  C   UNL     1      -0.261  -1.027  -3.073  0.00  0.00    +0.046 A 
ATOM     28  C   UNL     1       0.926  -1.727  -2.976  0.00  0.00    +0.009 A 
BRANCH  26  29
ATOM     29  O   UNL     1      -1.504   0.789  -3.977  0.00  0.00    -0.507 OA
ATOM     30  H   UNL     1      -2.080   0.484  -4.692  0.00  0.00    +0.292 HD
ENDBRANCH  26  29
ENDBRANCH  22  23
BRANCH  22  32
ATOM     31  N   UNL     1       3.601  -2.471  -5.984  0.00  0.00    -0.309 N 
ATOM     32  C   UNL     1       4.103  -1.941  -4.851  0.00  0.00    +0.239 C 
ATOM     33  O   UNL     1       5.172  -1.367  -4.872  0.00  0.00    -0.273 OA
ATOM     34  H   UNL     1       2.746  -2.930  -5.967  0.00  0.00    +0.149 HD
BRANCH  31  36
ATOM     35  C   UNL     1       5.710  -3.031  -7.088  0.00  0.00    +0.031 C 
ATOM     36  C   UNL     1       4.346  -2.355  -7.240  0.00  0.00    +0.026 C 
ATOM     37  C   UNL     1       4.545  -0.877  -7.581  0.00  0.00    +0.031 C 
ATOM     38  C   UNL     1       3.561  -3.037  -8.363  0.00  0.00    +0.031 C 
ENDBRANCH  31  36
ENDBRANCH  22  32
ENDBRANCH   1  22
TORSDOF 9
