REMARK  Name = ZINC39674175
REMARK  10 active torsions:
REMARK  status: ('A' for Active; 'I' for Inactive)
REMARK    1  A    between atoms: C_1  and  C_2
REMARK    2  A    between atoms: C_4  and  C_9
REMARK    3  A    between atoms: C_5  and  C_8
REMARK    4  A    between atoms: C_9  and  C_11
REMARK    5  A    between atoms: C_9  and  N_12
REMARK    6  A    between atoms: C_13  and  C_15
REMARK    7  A    between atoms: C_26  and  C_28
REMARK    8  A    between atoms: C_33  and  O_34
REMARK    9  A    between atoms: O_34  and  C_35
REMARK   10  A    between atoms: C_35  and  C_37
REMARK                            x       y       z     vdW  Elec       q    Type
REMARK                         _______ _______ _______ _____ _____    ______ ____
ROOT
ATOM      1  C   UNL     1      -0.130   3.034  -4.797  0.00  0.00    +0.100 C 
ATOM      2  C   UNL     1      -1.435   3.568  -4.165  0.00  0.00    +0.121 C 
ATOM      3  N   UNL     1      -1.987   4.498  -5.178  0.00  0.00    -0.296 N 
ATOM      4  C   UNL     1      -1.726   3.828  -6.475  0.00  0.00    +0.115 C 
ATOM      5  C   UNL     1      -0.325   3.205  -6.313  0.00  0.00    -0.004 C 
ATOM      6  C   UNL     1      -0.267   1.849  -7.010  0.00  0.00    -0.010 C 
ATOM      7  C   UNL     1      -0.405   2.051  -8.521  0.00  0.00    -0.082 C 
ATOM      8  N   UNL     1       0.678   2.918  -9.002  0.00  0.00    +0.379 N 
ATOM      9  C   UNL     1       0.559   4.250  -8.397  0.00  0.00    -0.082 C 
ATOM     10  C   UNL     1       0.738   4.141  -6.880  0.00  0.00    -0.010 C 
ATOM     11  C   UNL     1      -2.591   5.684  -4.969  0.00  0.00    +0.250 C 
ATOM     12  O   UNL     1      -3.061   6.301  -5.905  0.00  0.00    -0.270 OA
ATOM     13  H   UNL     1       1.567   2.513  -8.751  0.00  0.00    -0.086 HD
ATOM     14  H   UNL     1       0.620   3.000 -10.006  0.00  0.00    -0.086 HD
ENDROOT
BRANCH  11  15
ATOM     15  C   UNL     1      -2.680   6.235  -3.602  0.00  0.00    +0.079 A 
ATOM     16  C   UNL     1      -2.817   5.379  -2.507  0.00  0.00    +0.017 A 
ATOM     17  C   UNL     1      -2.900   5.900  -1.234  0.00  0.00    +0.001 A 
ATOM     18  C   UNL     1      -2.847   7.270  -1.034  0.00  0.00    +0.004 A 
ATOM     19  C   UNL     1      -2.712   8.127  -2.108  0.00  0.00    +0.047 A 
ATOM     20  C   UNL     1      -2.622   7.620  -3.396  0.00  0.00    +0.144 A 
BRANCH  20  21
ATOM     21  O   UNL     1      -2.483   8.461  -4.452  0.00  0.00    -0.425 OA
BRANCH  21  22
ATOM     22  C   UNL     1      -1.241   8.722  -4.892  0.00  0.00    +0.309 C 
ATOM     23  O   UNL     1      -0.295   8.153  -4.401  0.00  0.00    -0.251 OA
ATOM     24  C   UNL     1      -1.028   9.724  -5.997  0.00  0.00    +0.136 C 
ENDBRANCH  21  22
ENDBRANCH  20  21
ENDBRANCH  11  15
BRANCH   1  26
ATOM     25  N   UNL     1       1.299   1.044  -4.450  0.00  0.00    -0.309 N 
ATOM     26  C   UNL     1       0.062   1.579  -4.454  0.00  0.00    +0.219 C 
ATOM     27  O   UNL     1      -0.897   0.889  -4.181  0.00  0.00    -0.275 OA
ATOM     28  H   UNL     1       2.066   1.596  -4.668  0.00  0.00    +0.149 HD
BRANCH  25  29
ATOM     29  C   UNL     1       1.485  -0.370  -4.117  0.00  0.00    +0.100 C 
ATOM     30  C   UNL     1       1.460  -0.543  -2.597  0.00  0.00    +0.033 C 
BRANCH  29  33
ATOM     31  C   UNL     1       4.295   1.172  -4.824  0.00  0.00    +0.039 C 
ATOM     32  C   UNL     1       4.192  -0.283  -4.363  0.00  0.00    +0.154 C 
ATOM     33  C   UNL     1       2.811  -0.843  -4.654  0.00  0.00    -0.001 C 
ATOM     34  C   UNL     1       3.045  -1.851  -5.497  0.00  0.00    +0.063 C 
ATOM     35  N   UNL     1       4.367  -1.971  -5.748  0.00  0.00    -0.159 NA
ATOM     36  N   UNL     1       5.079  -1.146  -5.161  0.00  0.00    -0.180 NA
ATOM     37  C   UNL     1       1.978  -2.737  -6.088  0.00  0.00    +0.067 C 
ENDBRANCH  29  33
ENDBRANCH  25  29
ENDBRANCH   1  26
TORSDOF 6
