REMARK  Name = ZINC29872736
REMARK  7 active torsions:
REMARK  status: ('A' for Active; 'I' for Inactive)
REMARK    1  A    between atoms: C_1  and  C_2
REMARK    2  A    between atoms: C_3  and  C_7
REMARK    3  A    between atoms: C_10  and  S_13
REMARK    4  A    between atoms: N_11  and  N_12
REMARK    5  A    between atoms: S_13  and  C_14
REMARK    6  A    between atoms: C_14  and  C_15
REMARK    7  A    between atoms: C_17  and  C_20
REMARK                            x       y       z     vdW  Elec       q    Type
REMARK                         _______ _______ _______ _____ _____    ______ ____
ROOT
ATOM      1  C   UNL     1      -5.641  -7.651   1.694  0.00  0.00    +0.185 A 
ATOM      2  N   UNL     1      -5.509  -7.382   0.416  0.00  0.00    -0.127 NA
ATOM      3  N   UNL     1      -4.901  -6.260   0.263  0.00  0.00    -0.121 NA
ATOM      4  C   UNL     1      -4.599  -5.748   1.433  0.00  0.00    +0.209 A 
ATOM      5  N   UNL     1      -5.062  -6.612   2.386  0.00  0.00    -0.224 N 
ENDROOT
BRANCH   1   8
ATOM      6  C   UNL     1      -6.968 -10.008   0.110  0.00  0.00    +0.087 C 
ATOM      7  C   UNL     1      -6.870  -9.875   1.608  0.00  0.00    +0.112 A 
ATOM      8  C   UNL     1      -6.289  -8.844   2.279  0.00  0.00    +0.061 A 
ATOM      9  C   UNL     1      -6.446  -9.158   3.705  0.00  0.00    +0.053 A 
ATOM     10  C   UNL     1      -7.092 -10.335   3.756  0.00  0.00    +0.196 A 
ATOM     11  O   UNL     1      -7.338 -10.755   2.506  0.00  0.00    -0.467 OA
ENDBRANCH   1   8
BRANCH   5  12
ATOM     12  N   UNL     1      -4.970  -6.474   3.742  0.00  0.00    -0.295 N 
ATOM     13  H   UNL     1      -4.479  -5.589   4.172  0.00  0.00    +0.163 HD
ATOM     14  H   UNL     1      -5.387  -7.248   4.403  0.00  0.00    +0.163 HD
ENDBRANCH   5  12
BRANCH   4  15
ATOM     15  S   UNL     1      -3.760  -4.226   1.723  0.00  0.00    -0.077 S 
BRANCH  15  16
ATOM     16  C   UNL     1      -3.486  -3.688   0.017  0.00  0.00    +0.154 C 
BRANCH  16  17
ATOM     17  C   UNL     1      -2.761  -2.367   0.016  0.00  0.00    +0.148 A 
ATOM     18  C   UNL     1      -1.421  -2.181  -0.001  0.00  0.00    +0.076 A 
ATOM     19  C   UNL     1      -1.272  -0.766   0.011  0.00  0.00    +0.114 A 
ATOM     20  N   UNL     1      -2.485  -0.272   0.025  0.00  0.00    -0.078 NA
ATOM     21  O   UNL     1      -3.318  -1.148   0.028  0.00  0.00    -0.358 OA
BRANCH  19  22
ATOM     22  C   UNL     1       0.002  -0.004   0.002  0.00  0.00    +0.004 A 
ATOM     23  C   UNL     1      -0.017   1.389   0.010  0.00  0.00    +0.010 A 
ATOM     24  C   UNL     1       1.170   2.093   0.002  0.00  0.00    +0.001 A 
ATOM     25  C   UNL     1       2.377   1.418  -0.013  0.00  0.00    +0.000 A 
ATOM     26  C   UNL     1       2.402   0.035  -0.021  0.00  0.00    +0.001 A 
ATOM     27  C   UNL     1       1.221  -0.679  -0.013  0.00  0.00    +0.010 A 
ENDBRANCH  19  22
ENDBRANCH  16  17
ENDBRANCH  15  16
ENDBRANCH   4  15
TORSDOF 6
