REMARK  Name = ZINC63189137
REMARK  2 active torsions:
REMARK  status: ('A' for Active; 'I' for Inactive)
REMARK    1  A    between atoms: C_6  and  C_7
REMARK    2  A    between atoms: C_14  and  C_16
REMARK                            x       y       z     vdW  Elec       q    Type
REMARK                         _______ _______ _______ _____ _____    ______ ____
ROOT
ATOM      1  C   UNL     1      -1.165  -1.038  -1.034  0.00  0.00    +0.263 C 
ATOM      2  O   UNL     1      -2.241  -0.485  -0.895  0.00  0.00    -0.268 OA
ATOM      3  N   UNL     1      -1.025  -2.334  -0.693  0.00  0.00    -0.295 N 
ATOM      4  C   UNL     1       0.282  -2.998  -0.796  0.00  0.00    +0.108 C 
ATOM      5  C   UNL     1       0.125  -4.268  -1.638  0.00  0.00    +0.019 C 
ATOM      6  C   UNL     1      -0.978  -5.141  -1.036  0.00  0.00    +0.003 C 
ATOM      7  C   UNL     1      -2.305  -4.379  -1.060  0.00  0.00    +0.021 C 
ATOM      8  C   UNL     1      -2.174  -3.109  -0.206  0.00  0.00    +0.062 C 
ENDROOT
BRANCH   1  14
ATOM      9  C   UNL     1       0.021   0.373  -2.780  0.00  0.00    +0.047 A 
ATOM     10  C   UNL     1       1.294   0.940  -2.891  0.00  0.00    +0.036 A 
ATOM     11  C   UNL     1       1.992   0.618  -1.775  0.00  0.00    +0.098 A 
ATOM     12  N   UNL     1       1.202  -0.132  -0.966  0.00  0.00    -0.356 N 
ATOM     13  H   UNL     1       1.458  -0.493  -0.103  0.00  0.00    +0.165 HD
ATOM     14  C   UNL     1      -0.022  -0.293  -1.573  0.00  0.00    +0.103 A 
ATOM     15 BR   UNL     1       1.930   1.974  -4.341  0.00  0.00    -0.049 Br
ENDBRANCH   1  14
BRANCH   8  16
ATOM     16  C   UNL     1      -3.448  -2.271  -0.332  0.00  0.00    -0.051 C 
ATOM     17  C   UNL     1      -3.565  -1.309   0.870  0.00  0.00    -0.016 C 
ATOM     18  C   UNL     1      -5.085  -1.320   1.180  0.00  0.00    -0.021 C 
ATOM     19  C   UNL     1      -5.457  -2.791   0.869  0.00  0.00    -0.082 C 
ATOM     20  N   UNL     1      -4.631  -3.150  -0.308  0.00  0.00    +0.382 N 
ATOM     21  H   UNL     1      -5.167  -3.021  -1.153  0.00  0.00    -0.085 HD
ATOM     22  H   UNL     1      -4.338  -4.113  -0.237  0.00  0.00    -0.085 HD
ENDBRANCH   8  16
TORSDOF 2
