REMARK  Name = ZINC22061177
REMARK  7 active torsions:
REMARK  status: ('A' for Active; 'I' for Inactive)
REMARK    1  A    between atoms: C_1  and  O_2
REMARK    2  A    between atoms: O_2  and  C_3
REMARK    3  A    between atoms: C_9  and  C_13
REMARK    4  A    between atoms: C_13  and  C_15
REMARK    5  A    between atoms: C_13  and  O_28
REMARK    6  A    between atoms: C_24  and  C_25
REMARK    7  A    between atoms: C_24  and  O_27
REMARK                            x       y       z     vdW  Elec       q    Type
REMARK                         _______ _______ _______ _____ _____    ______ ____
ROOT
ATOM      1  C   UNL     1       1.343  -0.538  -2.462  0.00  0.00    +0.132 C 
ENDROOT
BRANCH   1   8
ATOM      2  C   UNL     1       4.437  -2.824  -4.336  0.00  0.00    +0.121 A 
ATOM      3  C   UNL     1       5.072  -2.358  -5.492  0.00  0.00    +0.048 A 
ATOM      4  C   UNL     1       4.725  -1.168  -6.051  0.00  0.00    +0.032 A 
ATOM      5  C   UNL     1       3.712  -0.389  -5.463  0.00  0.00    +0.072 A 
ATOM      6  C   UNL     1       3.072  -0.859  -4.289  0.00  0.00    +0.009 A 
ATOM      7  C   UNL     1       3.449  -2.094  -3.740  0.00  0.00    +0.056 A 
ATOM      8  C   UNL     1       2.055  -0.078  -3.708  0.00  0.00    -0.010 A 
ATOM      9  C   UNL     1       1.736   1.110  -4.300  0.00  0.00    +0.026 A 
ATOM     10  C   UNL     1       2.408   1.516  -5.451  0.00  0.00    +0.112 A 
ATOM     11  N   UNL     1       3.352   0.784  -5.993  0.00  0.00    -0.255 NA
BRANCH   2  13
ATOM     12  C   UNL     1       5.845  -4.735  -4.472  0.00  0.00    +0.277 C 
ATOM     13  O   UNL     1       4.806  -4.018  -3.802  0.00  0.00    -0.495 OA
ENDBRANCH   2  13
ENDBRANCH   1   8
BRANCH   1  14
ATOM     14  C   UNL     1       2.153  -0.128  -1.230  0.00  0.00    -0.034 C 
ATOM     15  C   UNL     1       2.126   1.396  -1.085  0.00  0.00    -0.006 C 
ATOM     16  C   UNL     1       1.495   1.754   0.267  0.00  0.00    +0.020 C 
ATOM     17  C   UNL     1       0.077   1.171   0.315  0.00  0.00    -0.012 C 
ATOM     18  C   UNL     1       0.161  -0.347   0.130  0.00  0.00    -0.078 C 
ATOM     19  N   UNL     1       1.567  -0.742  -0.031  0.00  0.00    +0.386 N 
ATOM     20  C   UNL     1       2.349  -0.408   1.167  0.00  0.00    -0.039 C 
ATOM     21  C   UNL     1       2.328   1.108   1.381  0.00  0.00    +0.072 C 
ATOM     22  H   UNL     1       1.596  -1.834  -0.161  0.00  0.00    -0.081 HD
BRANCH  21  23
ATOM     23  C   UNL     1       3.735   1.644   1.335  0.00  0.00    -0.002 C 
ATOM     24  C   UNL     1       4.234   2.266   2.375  0.00  0.00    +0.007 C 
ENDBRANCH  21  23
BRANCH  21  25
ATOM     25  O   UNL     1       1.744   1.404   2.651  0.00  0.00    -0.386 OA
ATOM     26  H   UNL     1       2.208   1.021   3.573  0.00  0.00    +0.211 HD
ENDBRANCH  21  25
ENDBRANCH   1  14
BRANCH   1  27
ATOM     27  O   UNL     1       0.049   0.065  -2.403  0.00  0.00    -0.389 OA
ATOM     28  H   UNL     1      -0.622  -0.154  -1.559  0.00  0.00    +0.210 HD
ENDBRANCH   1  27
TORSDOF 6
