REMARK  Name = ZINC01026807
REMARK  6 active torsions:
REMARK  status: ('A' for Active; 'I' for Inactive)
REMARK    1  A    between atoms: C_3  and  C_23
REMARK    2  A    between atoms: C_5  and  N_7
REMARK    3  A    between atoms: C_8  and  C_14
REMARK    4  A    between atoms: C_14  and  C_15
REMARK    5  A    between atoms: C_15  and  C_16
REMARK    6  A    between atoms: C_19  and  O_22
REMARK                            x       y       z     vdW  Elec       q    Type
REMARK                         _______ _______ _______ _____ _____    ______ ____
ROOT
ATOM      1  N   UNL     1      -0.069   5.243   0.031  0.00  0.00    -0.275 N 
ATOM      2  C   UNL     1      -0.547   6.036   1.048  0.00  0.00    +0.137 A 
ATOM      3  N   UNL     1      -0.401   7.278   0.713  0.00  0.00    -0.158 NA
ATOM      4  N   UNL     1       0.178   7.320  -0.563  0.00  0.00    -0.254 N 
ATOM      5  H   UNL     1       0.385   8.289  -1.041  0.00  0.00    +0.191 HD
ATOM      6  C   UNL     1       0.372   6.045  -0.959  0.00  0.00    +0.180 A 
ATOM      7  S   UNL     1       1.053   5.537  -2.446  0.00  0.00    -0.011 S 
ENDROOT
BRANCH   1  12
ATOM      8  C   UNL     1      -1.220   1.750   0.017  0.00  0.00    +0.003 A 
ATOM      9  C   UNL     1      -0.013   1.076   0.008  0.00  0.00    +0.012 A 
ATOM     10  C   UNL     1       1.176   1.782   0.000  0.00  0.00    +0.057 A 
ATOM     11  C   UNL     1       1.161   3.163   0.008  0.00  0.00    +0.038 A 
ATOM     12  C   UNL     1      -0.050   3.842   0.023  0.00  0.00    +0.051 A 
ATOM     13  C   UNL     1      -1.242   3.130   0.031  0.00  0.00    +0.026 A 
BRANCH  10  14
ATOM     14  C   UNL     1       2.490   1.044  -0.016  0.00  0.00    +0.417 C 
ATOM     15  F   UNL     1       2.251  -0.334  -0.020  0.00  0.00    -0.166 F 
ATOM     16  F   UNL     1       3.209   1.396  -1.163  0.00  0.00    -0.166 F 
ATOM     17  F   UNL     1       3.230   1.385   1.121  0.00  0.00    -0.166 F 
ENDBRANCH  10  14
ENDBRANCH   1  12
BRANCH   2  18
ATOM     18  C   UNL     1      -1.138   5.541   2.343  0.00  0.00    +0.081 C 
BRANCH  18  19
ATOM     19  C   UNL     1      -0.028   5.388   3.385  0.00  0.00    +0.043 C 
BRANCH  19  20
ATOM     20  C   UNL     1      -0.620   4.893   4.679  0.00  0.00    -0.047 A 
ATOM     21  C   UNL     1      -1.060   5.797   5.628  0.00  0.00    +0.007 A 
ATOM     22  C   UNL     1      -1.608   5.346   6.813  0.00  0.00    +0.045 A 
ATOM     23  C   UNL     1      -1.706   3.983   7.056  0.00  0.00    +0.117 A 
ATOM     24  C   UNL     1      -1.258   3.078   6.105  0.00  0.00    +0.045 A 
ATOM     25  C   UNL     1      -0.716   3.534   4.920  0.00  0.00    +0.007 A 
BRANCH  23  26
ATOM     26  O   UNL     1      -2.239   3.537   8.223  0.00  0.00    -0.507 OA
ATOM     27  H   UNL     1      -2.316   2.456   8.415  0.00  0.00    +0.292 HD
ENDBRANCH  23  26
ENDBRANCH  19  20
ENDBRANCH  18  19
ENDBRANCH   2  18
TORSDOF 6
