REMARK  Name = ZINC20705423
REMARK  5 active torsions:
REMARK  status: ('A' for Active; 'I' for Inactive)
REMARK    1  A    between atoms: C_2  and  C_3
REMARK    2  A    between atoms: C_3  and  O_4
REMARK    3  A    between atoms: O_4  and  C_5
REMARK    4  A    between atoms: C_12  and  C_21
REMARK    5  A    between atoms: C_25  and  N_27
REMARK                            x       y       z     vdW  Elec       q    Type
REMARK                         _______ _______ _______ _____ _____    ______ ____
ROOT
ATOM      1  C   UNL     1      -7.990   1.328   2.069  0.00  0.00    +0.142 A 
ATOM      2  C   UNL     1      -9.237   0.732   2.129  0.00  0.00    +0.047 A 
ATOM      3  C   UNL     1      -9.692  -0.013   1.057  0.00  0.00    +0.004 A 
ATOM      4  C   UNL     1      -8.905  -0.161  -0.066  0.00  0.00    +0.006 A 
ATOM      5  C   UNL     1      -7.650   0.432  -0.138  0.00  0.00    -0.016 A 
ATOM      6  C   UNL     1      -7.192   1.179   0.931  0.00  0.00    +0.074 A 
ATOM      7  N   UNL     1      -5.952   1.786   0.925  0.00  0.00    -0.334 N 
ATOM      8  C   UNL     1      -4.995   1.133   0.031  0.00  0.00    +0.105 C 
ATOM      9  C   UNL     1      -5.568   1.095  -1.387  0.00  0.00    +0.029 C 
ATOM     10  C   UNL     1      -6.846   0.229  -1.387  0.00  0.00    +0.049 C 
ATOM     11  C   UNL     1      -6.298  -1.200  -1.478  0.00  0.00    -0.023 C 
ATOM     12  C   UNL     1      -5.077  -1.199  -1.952  0.00  0.00    -0.030 C 
ATOM     13  C   UNL     1      -4.626   0.216  -2.258  0.00  0.00    +0.033 C 
ATOM     14  H   UNL     1      -5.647   2.670   1.505  0.00  0.00    +0.147 HD
ENDROOT
BRANCH   8  15
ATOM     15  C   UNL     1      -3.700   1.904   0.030  0.00  0.00    -0.025 A 
ATOM     16  C   UNL     1      -3.719   3.286   0.038  0.00  0.00    +0.005 A 
ATOM     17  C   UNL     1      -2.532   3.993   0.037  0.00  0.00    +0.003 A 
ATOM     18  C   UNL     1      -1.325   3.318   0.032  0.00  0.00    +0.033 A 
ATOM     19  C   UNL     1      -1.306   1.936   0.019  0.00  0.00    +0.127 A 
ATOM     20  C   UNL     1      -2.494   1.229   0.021  0.00  0.00    +0.038 A 
BRANCH  19  21
ATOM     21  N   UNL     1      -0.014   1.214   0.009  0.00  0.00    +0.056 N 
ATOM     22  O   UNL     1       0.002  -0.004   0.002  0.00  0.00    -0.126 OA
ATOM     23  O   UNL     1       1.032   1.837   0.002  0.00  0.00    -0.126 OA
ENDBRANCH  19  21
ENDBRANCH   8  15
BRANCH   1  24
ATOM     24  O   UNL     1      -7.539   2.061   3.122  0.00  0.00    -0.486 OA
BRANCH  24  25
ATOM     25  C   UNL     1      -8.405   2.173   4.254  0.00  0.00    +0.256 C 
BRANCH  25  27
ATOM     26  C   UNL     1      -8.424   3.948   5.930  0.00  0.00    +0.007 C 
ATOM     27  C   UNL     1      -7.742   3.015   5.313  0.00  0.00    +0.006 C 
ENDBRANCH  25  27
ENDBRANCH  24  25
ENDBRANCH   1  24
TORSDOF 5
