REMARK  Name = ZINC06850525
REMARK  4 active torsions:
REMARK  status: ('A' for Active; 'I' for Inactive)
REMARK    1  A    between atoms: C_1  and  C_2
REMARK    2  A    between atoms: C_2  and  C_4
REMARK    3  A    between atoms: C_2  and  N_22
REMARK    4  A    between atoms: N_6  and  N_7
REMARK                            x       y       z     vdW  Elec       q    Type
REMARK                         _______ _______ _______ _____ _____    ______ ____
ROOT
ATOM      1  C   UNL     1      -0.743   1.952   1.239  0.00  0.00    +0.041 C 
ATOM      2  C   UNL     1      -0.016   1.459  -0.014  0.00  0.00    +0.176 C 
ENDROOT
BRANCH   2   3
ATOM      3  N   UNL     1       0.004  -0.006  -0.022  0.00  0.00    -0.287 N 
ATOM      4  C   UNL     1       0.612  -0.668   0.996  0.00  0.00    +0.204 A 
ATOM      5  N   UNL     1       0.648  -1.974   1.029  0.00  0.00    -0.230 NA
ATOM      6  C   UNL     1       0.097  -2.696   0.057  0.00  0.00    +0.116 A 
ATOM      7  C   UNL     1      -0.547  -2.101  -1.036  0.00  0.00    +0.076 A 
ATOM      8  C   UNL     1      -0.574  -0.669  -1.042  0.00  0.00    +0.263 A 
ATOM      9  O   UNL     1      -1.112  -0.061  -1.951  0.00  0.00    -0.267 OA
ATOM     10  C   UNL     1      -1.110  -3.022  -2.035  0.00  0.00    -0.023 A 
ATOM     11  C   UNL     1      -0.953  -4.337  -1.805  0.00  0.00    -0.004 A 
ATOM     12  S   UNL     1      -0.062  -4.432  -0.269  0.00  0.00    -0.073 S 
ATOM     13  C   UNL     1      -1.564  -5.181  -2.891  0.00  0.00    +0.043 C 
ATOM     14  C   UNL     1      -1.762  -4.207  -4.073  0.00  0.00    +0.010 C 
ATOM     15  C   UNL     1      -1.881  -2.853  -3.347  0.00  0.00    +0.037 C 
ENDBRANCH   2   3
BRANCH   2  16
ATOM     16  C   UNL     1       1.397   1.981  -0.013  0.00  0.00    +0.255 C 
ATOM     17  O   UNL     1       2.330   1.206  -0.019  0.00  0.00    -0.272 OA
ATOM     18  N   UNL     1       1.625   3.310  -0.006  0.00  0.00    -0.205 N 
ATOM     19  H   UNL     1       0.878   3.930  -0.002  0.00  0.00    +0.177 HD
BRANCH  18  20
ATOM     20  N   UNL     1       2.939   3.796  -0.006  0.00  0.00    -0.189 NA
ATOM     21  C   UNL     1       3.156   5.054  -0.098  0.00  0.00    +0.043 C 
ATOM     22  C   UNL     1       2.033   6.080  -0.094  0.00  0.00    +0.036 C 
ATOM     23  C   UNL     1       2.285   7.028   1.086  0.00  0.00    +0.013 C 
ATOM     24  C   UNL     1       3.668   7.663   0.956  0.00  0.00    -0.009 C 
ATOM     25  C   UNL     1       3.743   8.461  -0.348  0.00  0.00    +0.007 C 
ATOM     26  C   UNL     1       3.512   7.508  -1.523  0.00  0.00    -0.009 C 
ATOM     27  C   UNL     1       2.128   6.873  -1.398  0.00  0.00    +0.013 C 
ATOM     28  C   UNL     1       4.601   6.436  -1.532  0.00  0.00    +0.013 C 
ATOM     29  C   UNL     1       4.556   5.635  -0.225  0.00  0.00    +0.036 C 
ATOM     30  C   UNL     1       4.764   6.591   0.956  0.00  0.00    +0.013 C 
ENDBRANCH  18  20
ENDBRANCH   2  16
TORSDOF 3
