REMARK  Name = ZINC21397498
REMARK  10 active torsions:
REMARK  status: ('A' for Active; 'I' for Inactive)
REMARK    1  A    between atoms: C_1  and  C_2
REMARK    2  A    between atoms: C_2  and  O_3
REMARK    3  A    between atoms: O_3  and  C_4
REMARK    4  A    between atoms: C_4  and  C_6
REMARK    5  A    between atoms: C_7  and  C_13
REMARK    6  A    between atoms: C_13  and  S_14
REMARK    7  A    between atoms: S_14  and  C_15
REMARK    8  A    between atoms: C_18  and  C_27
REMARK    9  A    between atoms: N_19  and  C_20
REMARK   10  A    between atoms: C_30  and  C_33
REMARK                            x       y       z     vdW  Elec       q    Type
REMARK                         _______ _______ _______ _____ _____    ______ ____
ROOT
ATOM      1  C   UNL     1      -4.358   0.365  -0.157  0.00  0.00    +0.197 A 
ATOM      2  N   UNL     1      -3.750  -0.711   0.292  0.00  0.00    -0.122 NA
ATOM      3  N   UNL     1      -2.496  -0.479   0.444  0.00  0.00    -0.128 NA
ATOM      4  C   UNL     1      -2.223   0.759   0.102  0.00  0.00    +0.169 A 
ATOM      5  N   UNL     1      -3.409   1.341  -0.289  0.00  0.00    -0.270 N 
ENDROOT
BRANCH   5   6
ATOM      6  C   UNL     1      -3.603   2.657  -0.732  0.00  0.00    +0.051 A 
ATOM      7  C   UNL     1      -3.453   3.717   0.151  0.00  0.00    +0.028 A 
ATOM      8  C   UNL     1      -3.640   5.013  -0.289  0.00  0.00    +0.022 A 
ATOM      9  C   UNL     1      -3.985   5.254  -1.607  0.00  0.00    +0.041 A 
ATOM     10  C   UNL     1      -4.139   4.199  -2.489  0.00  0.00    +0.022 A 
ATOM     11  C   UNL     1      -3.949   2.901  -2.054  0.00  0.00    +0.028 A 
ATOM     12 CL   UNL     1      -4.225   6.884  -2.156  0.00  0.00    -0.084 Cl
ENDBRANCH   5   6
BRANCH   4  13
ATOM     13  C   UNL     1      -0.895   1.408   0.136  0.00  0.00    +0.020 A 
ATOM     14  C   UNL     1      -0.674   2.590  -0.574  0.00  0.00    +0.012 A 
ATOM     15  C   UNL     1       0.566   3.193  -0.533  0.00  0.00    +0.004 A 
ATOM     16  C   UNL     1       1.590   2.627   0.204  0.00  0.00    -0.050 A 
ATOM     17  C   UNL     1       1.379   1.453   0.905  0.00  0.00    +0.004 A 
ATOM     18  C   UNL     1       0.144   0.840   0.874  0.00  0.00    +0.012 A 
ATOM     19  C   UNL     1       2.942   3.292   0.244  0.00  0.00    +0.044 C 
ENDBRANCH   4  13
BRANCH   1  20
ATOM     20  S   UNL     1      -6.077   0.522  -0.514  0.00  0.00    -0.080 S 
BRANCH  20  21
ATOM     21  C   UNL     1      -6.640  -1.145  -0.090  0.00  0.00    +0.128 C 
BRANCH  21  23
ATOM     22  C   UNL     1      -8.582  -1.912  -1.407  0.00  0.00    +0.071 C 
ATOM     23  C   UNL     1      -8.125  -1.248  -0.324  0.00  0.00    +0.034 C 
ATOM     24  N   UNL     1      -8.987  -0.674   0.566  0.00  0.00    -0.272 N 
ATOM     25  C   UNL     1     -10.319  -0.710   0.439  0.00  0.00    +0.304 C 
ATOM     26  O   UNL     1     -11.005  -0.165   1.281  0.00  0.00    -0.253 OA
ATOM     27  N   UNL     1     -10.924  -1.335  -0.590  0.00  0.00    -0.295 N 
ATOM     28  C   UNL     1     -10.082  -1.992  -1.604  0.00  0.00    +0.150 C 
ATOM     29  H   UNL     1      -8.595  -0.145   1.448  0.00  0.00    +0.156 HD
ATOM     30  H   UNL     1     -12.020  -1.363  -0.684  0.00  0.00    +0.151 HD
BRANCH  22  31
ATOM     31  C   UNL     1      -7.691  -2.512  -2.327  0.00  0.00    +0.338 C 
ATOM     32  O   UNL     1      -7.392  -1.931  -3.354  0.00  0.00    -0.245 OA
BRANCH  31  33
ATOM     33  O   UNL     1      -7.171  -3.730  -2.067  0.00  0.00    -0.462 OA
BRANCH  33  35
ATOM     34  C   UNL     1      -5.795  -5.651  -2.574  0.00  0.00    +0.048 C 
ATOM     35  C   UNL     1      -6.278  -4.276  -3.040  0.00  0.00    +0.229 C 
ENDBRANCH  33  35
ENDBRANCH  31  33
ENDBRANCH  22  31
ENDBRANCH  21  23
ENDBRANCH  20  21
ENDBRANCH   1  20
TORSDOF 8
