REMARK  Name = ZINC37444375
REMARK  4 active torsions:
REMARK  status: ('A' for Active; 'I' for Inactive)
REMARK    1  A    between atoms: C_1  and  C_2
REMARK    2  A    between atoms: C_3  and  C_21
REMARK    3  A    between atoms: C_6  and  C_7
REMARK    4  A    between atoms: N_15  and  C_16
REMARK                            x       y       z     vdW  Elec       q    Type
REMARK                         _______ _______ _______ _____ _____    ______ ____
ROOT
ATOM      1  C   UNL     1      -1.035  -0.667  -1.717  0.00  0.00    +0.145 A 
ATOM      2  N   UNL     1      -0.532  -1.155  -0.610  0.00  0.00    -0.227 NA
ATOM      3  C   UNL     1      -0.469  -2.506  -0.694  0.00  0.00    +0.091 A 
ATOM      4  C   UNL     1      -0.027  -3.505   0.181  0.00  0.00    +0.030 A 
ATOM      5  C   UNL     1      -0.090  -4.816  -0.195  0.00  0.00    +0.004 A 
ATOM      6  C   UNL     1      -0.590  -5.173  -1.439  0.00  0.00    +0.022 A 
ATOM      7  C   UNL     1      -1.032  -4.207  -2.319  0.00  0.00    +0.067 A 
ATOM      8  C   UNL     1      -0.976  -2.867  -1.955  0.00  0.00    +0.088 A 
ATOM      9  N   UNL     1      -1.332  -1.688  -2.580  0.00  0.00    -0.319 N 
ATOM     10 CL   UNL     1      -1.656  -4.662  -3.874  0.00  0.00    -0.081 Cl
ENDROOT
BRANCH   1  16
ATOM     11  C   UNL     1      -3.520   0.545  -1.044  0.00  0.00    +0.041 C 
ATOM     12  C   UNL     1      -2.404   1.333  -1.681  0.00  0.00    -0.047 C 
ATOM     13  C   UNL     1      -2.554   2.809  -1.986  0.00  0.00    +0.076 C 
ATOM     14  S   UNL     1      -0.920   3.205  -2.730  0.00  0.00    -0.098 S 
ATOM     15  C   UNL     1      -0.187   1.580  -2.620  0.00  0.00    +0.099 C 
ATOM     16  C   UNL     1      -1.256   0.768  -1.991  0.00  0.00    +0.049 C 
ATOM     17  N   UNL     1       1.002   1.200  -2.997  0.00  0.00    -0.292 NA
ATOM     18  C   UNL     1      -3.685   3.049  -2.987  0.00  0.00    +0.024 C 
ATOM     19  H   UNL     1       1.611   1.841  -3.396  0.00  0.00    +0.187 HD
ENDBRANCH   1  16
BRANCH   9  20
ATOM     20  C   UNL     1      -1.915  -1.554  -3.917  0.00  0.00    +0.089 C 
ATOM     21  C   UNL     1      -1.907  -0.164  -4.556  0.00  0.00    +0.027 C 
ATOM     22  C   UNL     1      -3.218  -0.762  -4.044  0.00  0.00    +0.027 C 
ENDBRANCH   9  20
TORSDOF 2
