REMARK  Name = ZINC65567753
REMARK  3 active torsions:
REMARK  status: ('A' for Active; 'I' for Inactive)
REMARK    1  A    between atoms: C_3  and  C_6
REMARK    2  A    between atoms: C_12  and  C_14
REMARK    3  A    between atoms: C_21  and  N_24
REMARK                            x       y       z     vdW  Elec       q    Type
REMARK                         _______ _______ _______ _____ _____    ______ ____
ROOT
ATOM      1  C   UNL     1       5.353   0.093  -3.042  0.00  0.00    +0.062 A 
ATOM      2  C   UNL     1       6.425  -0.607  -2.574  0.00  0.00    +0.096 A 
ATOM      3  N   UNL     1       7.080  -1.189  -3.608  0.00  0.00    -0.360 N 
ATOM      4  H   UNL     1       7.874  -1.739  -3.521  0.00  0.00    +0.165 HD
ATOM      5  C   UNL     1       6.456  -0.890  -4.802  0.00  0.00    +0.047 A 
ATOM      6  C   UNL     1       5.347  -0.082  -4.506  0.00  0.00    +0.014 A 
ATOM      7  C   UNL     1       4.520   0.372  -5.531  0.00  0.00    +0.043 A 
ATOM      8  C   UNL     1       4.795   0.020  -6.835  0.00  0.00    +0.127 A 
ATOM      9  C   UNL     1       5.888  -0.782  -7.128  0.00  0.00    +0.035 A 
ATOM     10  C   UNL     1       6.720  -1.230  -6.124  0.00  0.00    +0.028 A 
ENDROOT
BRANCH   1  16
ATOM     11  C   UNL     1       3.751   1.842  -0.025  0.00  0.00    +0.113 C 
ATOM     12  C   UNL     1       4.417   1.831   1.367  0.00  0.00    +0.029 C 
ATOM     13  C   UNL     1       5.904   1.531   1.039  0.00  0.00    +0.021 C 
ATOM     14  C   UNL     1       5.768   0.561  -0.161  0.00  0.00    +0.109 C 
ATOM     15  N   UNL     1       4.615   1.071  -0.932  0.00  0.00    -0.290 N 
ATOM     16  C   UNL     1       4.390   0.865  -2.245  0.00  0.00    +0.249 C 
ATOM     17  O   UNL     1       3.390   1.318  -2.769  0.00  0.00    -0.270 OA
BRANCH  11  20
ATOM     18  C   UNL     1       0.042   0.994   0.166  0.00  0.00    +0.008 A 
ATOM     19  C   UNL     1       1.170   1.791   0.096  0.00  0.00    +0.013 A 
ATOM     20  C   UNL     1       2.389   1.201   0.053  0.00  0.00    +0.010 A 
ATOM     21  S   UNL     1       1.964  -0.532   0.112  0.00  0.00    -0.100 S 
ATOM     22  C   UNL     1       0.190  -0.353   0.190  0.00  0.00    +0.045 A 
ENDBRANCH  11  20
ENDBRANCH   1  16
BRANCH   8  23
ATOM     23  N   UNL     1       3.919   0.500  -7.928  0.00  0.00    +0.056 N 
ATOM     24  O   UNL     1       2.965   1.198  -7.675  0.00  0.00    -0.126 OA
ATOM     25  O   UNL     1       4.157   0.193  -9.072  0.00  0.00    -0.126 OA
ENDBRANCH   8  23
TORSDOF 3
