REMARK  Name = ZINC20577777
REMARK  8 active torsions:
REMARK  status: ('A' for Active; 'I' for Inactive)
REMARK    1  A    between atoms: C_1  and  C_2
REMARK    2  A    between atoms: C_2  and  O_3
REMARK    3  A    between atoms: O_3  and  C_4
REMARK    4  A    between atoms: C_7  and  N_10
REMARK    5  A    between atoms: N_10  and  S_11
REMARK    6  A    between atoms: S_11  and  C_14
REMARK    7  A    between atoms: C_21  and  C_22
REMARK    8  A    between atoms: C_21  and  C_23
REMARK                            x       y       z     vdW  Elec       q    Type
REMARK                         _______ _______ _______ _____ _____    ______ ____
ROOT
ATOM      1  S   UNL     1      -1.586   2.011   0.103  0.00  0.00    +0.072 S 
ATOM      2  O   UNL     1      -1.489   3.422  -0.036  0.00  0.00    -0.150 OA
ATOM      3  O   UNL     1      -2.401   1.216  -0.746  0.00  0.00    -0.150 OA
ENDROOT
BRANCH   1   4
ATOM      4  C   UNL     1      -2.125   1.703   1.752  0.00  0.00    +0.109 A 
ATOM      5  C   UNL     1      -2.693   0.483   2.078  0.00  0.00    +0.030 A 
ATOM      6  C   UNL     1      -3.116   0.227   3.366  0.00  0.00    +0.026 A 
ATOM      7  C   UNL     1      -2.984   1.200   4.351  0.00  0.00    +0.042 A 
ATOM      8  C   UNL     1      -2.414   2.434   4.016  0.00  0.00    +0.010 A 
ATOM      9  C   UNL     1      -1.987   2.681   2.717  0.00  0.00    +0.039 A 
ATOM     10  C   UNL     1      -2.411   3.246   5.258  0.00  0.00    +0.045 C 
ATOM     11  C   UNL     1      -1.957   4.501   5.416  0.00  0.00    -0.063 C 
ATOM     12  C   UNL     1      -1.255   5.197   4.278  0.00  0.00    +0.039 C 
ATOM     13  C   UNL     1      -2.150   5.213   6.730  0.00  0.00    +0.039 C 
ATOM     14  C   UNL     1      -3.017   2.370   6.286  0.00  0.00    +0.249 C 
ATOM     15  O   UNL     1      -3.201   2.656   7.454  0.00  0.00    -0.270 OA
ATOM     16  N   UNL     1      -3.327   1.201   5.699  0.00  0.00    -0.281 N 
ATOM     17  H   UNL     1      -3.791   0.311   6.149  0.00  0.00    +0.155 HD
ENDBRANCH   1   4
BRANCH   1  18
ATOM     18  N   UNL     1      -0.045   1.417  -0.027  0.00  0.00    -0.216 N 
ATOM     19  H   UNL     1       0.794   2.101  -0.220  0.00  0.00    +0.174 HD
BRANCH  18  23
ATOM     20  C   UNL     1       0.651  -2.673   0.380  0.00  0.00    +0.121 A 
ATOM     21  C   UNL     1       0.084  -2.179  -0.786  0.00  0.00    +0.047 A 
ATOM     22  C   UNL     1      -0.147  -0.824  -0.921  0.00  0.00    +0.028 A 
ATOM     23  C   UNL     1       0.188   0.044   0.110  0.00  0.00    +0.048 A 
ATOM     24  C   UNL     1       0.761  -0.451   1.274  0.00  0.00    +0.028 A 
ATOM     25  C   UNL     1       0.986  -1.807   1.410  0.00  0.00    +0.047 A 
BRANCH  20  26
ATOM     26  O   UNL     1       0.879  -4.007   0.512  0.00  0.00    -0.492 OA
BRANCH  26  28
ATOM     27  C   UNL     1       1.644  -5.966   1.704  0.00  0.00    +0.048 C 
ATOM     28  C   UNL     1       1.465  -4.447   1.739  0.00  0.00    +0.225 C 
ENDBRANCH  26  28
ENDBRANCH  20  26
ENDBRANCH  18  23
ENDBRANCH   1  18
TORSDOF 5
