REMARK  Name = ZINC16524905
REMARK  5 active torsions:
REMARK  status: ('A' for Active; 'I' for Inactive)
REMARK    1  A    between atoms: C_14  and  C_28
REMARK    2  A    between atoms: N_16  and  C_17
REMARK    3  A    between atoms: C_17  and  C_18
REMARK    4  A    between atoms: N_20  and  C_21
REMARK    5  A    between atoms: C_21  and  C_22
REMARK                            x       y       z     vdW  Elec       q    Type
REMARK                         _______ _______ _______ _____ _____    ______ ____
ROOT
ATOM      1  C   UNL     1      -3.423  -4.208   0.045  0.00  0.00    +0.002 A 
ATOM      2  C   UNL     1      -2.425  -5.143   0.255  0.00  0.00    +0.002 A 
ATOM      3  C   UNL     1      -1.119  -4.728   0.438  0.00  0.00    +0.025 A 
ATOM      4  C   UNL     1      -0.802  -3.382   0.411  0.00  0.00    +0.052 A 
ATOM      5  C   UNL     1      -1.812  -2.418   0.214  0.00  0.00    +0.052 A 
ATOM      6  C   UNL     1      -3.128  -2.864   0.024  0.00  0.00    +0.025 A 
ATOM      7  N   UNL     1      -1.560  -1.101   0.208  0.00  0.00    -0.316 N 
ATOM      8  C   UNL     1      -0.616  -0.358  -0.256  0.00  0.00    +0.017 C 
ATOM      9  C   UNL     1      -0.912   1.131  -0.309  0.00  0.00    +0.051 C 
ATOM     10  C   UNL     1       0.390   1.926  -0.236  0.00  0.00    +0.014 C 
ATOM     11  C   UNL     1       1.285   1.478  -1.398  0.00  0.00    +0.080 C 
ATOM     12  C   UNL     1       1.541   0.006  -1.258  0.00  0.00    +0.163 C 
ATOM     13  C   UNL     1       0.637  -0.831  -0.703  0.00  0.00    +0.037 C 
ATOM     14  C   UNL     1       1.024  -2.264  -0.587  0.00  0.00    +0.146 C 
ATOM     15  N   UNL     1       0.500  -2.952   0.563  0.00  0.00    -0.308 N 
ATOM     16  O   UNL     1       2.713  -0.499  -1.701  0.00  0.00    -0.292 OA
ATOM     17  H   UNL     1      -2.406  -0.645   0.742  0.00  0.00    +0.152 HD
ENDROOT
BRANCH  14  18
ATOM     18  C   UNL     1       0.551  -2.984  -1.824  0.00  0.00    +0.015 A 
ATOM     19  C   UNL     1       1.226  -3.244  -2.970  0.00  0.00    +0.013 A 
ATOM     20  C   UNL     1       0.586  -3.931  -3.984  0.00  0.00    +0.008 A 
ATOM     21  C   UNL     1      -0.703  -4.314  -3.807  0.00  0.00    +0.045 A 
ATOM     22  S   UNL     1      -1.045  -3.707  -2.163  0.00  0.00    -0.099 S 
ENDBRANCH  14  18
BRANCH  15  23
ATOM     23  C   UNL     1       1.378  -4.062   0.957  0.00  0.00    +0.201 C 
BRANCH  23  24
ATOM     24  C   UNL     1       1.002  -4.535   2.338  0.00  0.00    +0.230 C 
ATOM     25  O   UNL     1       0.166  -3.932   2.978  0.00  0.00    -0.274 OA
ATOM     26  N   UNL     1       1.593  -5.627   2.861  0.00  0.00    -0.312 N 
ATOM     27  H   UNL     1       2.350  -6.174   2.280  0.00  0.00    +0.149 HD
BRANCH  26  28
ATOM     28  C   UNL     1       1.227  -6.086   4.203  0.00  0.00    +0.135 C 
BRANCH  28  29
ATOM     29  C   UNL     1       2.038  -7.335   4.554  0.00  0.00    +0.135 C 
ATOM     30  C   UNL     1       1.577  -7.893   5.918  0.00  0.00    +0.035 C 
ATOM     31  C   UNL     1       2.919  -8.334   6.564  0.00  0.00    +0.031 C 
ATOM     32  C   UNL     1       3.882  -7.254   6.008  0.00  0.00    +0.160 C 
ATOM     33  O   UNL     1       3.425  -6.996   4.671  0.00  0.00    -0.375 OA
ENDBRANCH  28  29
ENDBRANCH  26  28
ENDBRANCH  23  24
ENDBRANCH  15  23
TORSDOF 5
