REMARK  Name = ZINC02194294
REMARK  8 active torsions:
REMARK  status: ('A' for Active; 'I' for Inactive)
REMARK    1  A    between atoms: C_1  and  C_2
REMARK    2  A    between atoms: C_2  and  O_3
REMARK    3  A    between atoms: O_3  and  C_4
REMARK    4  A    between atoms: C_6  and  C_20
REMARK    5  A    between atoms: C_9  and  O_10
REMARK    6  A    between atoms: O_10  and  C_11
REMARK    7  A    between atoms: C_11  and  C_13
REMARK    8  A    between atoms: C_31  and  N_58
REMARK                            x       y       z     vdW  Elec       q    Type
REMARK                         _______ _______ _______ _____ _____    ______ ____
ROOT
ATOM      1  C   UNL     1      -3.608  -2.736   5.656  0.00  0.00    +0.163 A 
ATOM      2  C   UNL     1      -3.812  -1.379   5.461  0.00  0.00    +0.056 A 
ATOM      3  C   UNL     1      -4.750  -0.946   4.543  0.00  0.00    -0.006 A 
ATOM      4  C   UNL     1      -5.480  -1.863   3.810  0.00  0.00    +0.011 A 
ATOM      5  C   UNL     1      -5.278  -3.218   3.996  0.00  0.00    +0.050 A 
ATOM      6  C   UNL     1      -4.343  -3.659   4.918  0.00  0.00    +0.173 A 
ENDROOT
BRANCH   3   7
ATOM      7  C   UNL     1      -4.974   0.530   4.337  0.00  0.00    +0.190 C 
ATOM      8  N   UNL     1      -5.433   0.759   2.954  0.00  0.00    -0.316 N 
ATOM      9  C   UNL     1      -4.463   0.827   1.987  0.00  0.00    +0.080 A 
ATOM     10  C   UNL     1      -3.130   1.167   2.265  0.00  0.00    +0.068 A 
ATOM     11  C   UNL     1      -2.236   1.201   1.121  0.00  0.00    -0.027 A 
ATOM     12  C   UNL     1      -2.797   0.894  -0.072  0.00  0.00    -0.021 A 
ATOM     13  S   UNL     1      -4.498   0.562   0.296  0.00  0.00    -0.080 S 
ATOM     14  C   UNL     1      -2.103   0.854  -1.397  0.00  0.00    -0.036 C 
ATOM     15  C   UNL     1      -0.078   1.053  -0.083  0.00  0.00    -0.074 C 
ATOM     16  C   UNL     1      -0.757   1.550   1.197  0.00  0.00    +0.018 C 
ATOM     17  C   UNL     1       0.000   1.393  -2.479  0.00  0.00    -0.096 C 
ATOM     18  C   UNL     1      -2.779   1.462   3.673  0.00  0.00    +0.248 C 
ATOM     19  O   UNL     1      -1.678   1.883   3.977  0.00  0.00    -0.270 OA
ATOM     20  N   UNL     1      -3.730   1.245   4.606  0.00  0.00    -0.289 N 
ATOM     21  H   UNL     1      -6.374   0.857   2.740  0.00  0.00    +0.149 HD
ATOM     22  H   UNL     1      -3.579   1.581   5.503  0.00  0.00    +0.151 HD
ATOM     23  N   UNL     1      -0.812   1.570  -1.256  0.00  0.00    +0.381 N 
ATOM     24  H   UNL     1      -0.998   2.570  -1.120  0.00  0.00    -0.082 HD
ENDBRANCH   3   7
BRANCH   1  25
ATOM     25  O   UNL     1      -2.689  -3.164   6.562  0.00  0.00    -0.489 OA
BRANCH  25  27
ATOM     26  C   UNL     1      -0.991  -2.827   8.248  0.00  0.00    +0.048 C 
ATOM     27  C   UNL     1      -1.972  -2.159   7.283  0.00  0.00    +0.226 C 
ENDBRANCH  25  27
ENDBRANCH   1  25
BRANCH   6  28
ATOM     28  O   UNL     1      -4.144  -4.992   5.102  0.00  0.00    -0.419 OA
BRANCH  28  29
ATOM     29  C   UNL     1      -4.760  -5.563   6.155  0.00  0.00    +0.346 C 
ATOM     30  O   UNL     1      -5.534  -4.914   6.831  0.00  0.00    -0.244 OA
BRANCH  29  31
ATOM     31  C   UNL     1      -4.496  -6.977   6.488  0.00  0.00    +0.078 A 
ATOM     32  C   UNL     1      -3.611  -7.727   5.709  0.00  0.00    +0.016 A 
ATOM     33  C   UNL     1      -3.366  -9.046   6.028  0.00  0.00    +0.001 A 
ATOM     34  C   UNL     1      -4.000  -9.630   7.111  0.00  0.00    +0.001 A 
ATOM     35  C   UNL     1      -4.881  -8.896   7.884  0.00  0.00    +0.021 A 
ATOM     36  C   UNL     1      -5.133  -7.572   7.579  0.00  0.00    +0.055 A 
ATOM     37 CL   UNL     1      -6.240  -6.652   8.550  0.00  0.00    -0.083 Cl
ENDBRANCH  29  31
ENDBRANCH  28  29
ENDBRANCH   6  28
TORSDOF 6
