REMARK  Name = ZINC03500101
REMARK  11 active torsions:
REMARK  status: ('A' for Active; 'I' for Inactive)
REMARK    1  A    between atoms: C_1  and  C_2
REMARK    2  A    between atoms: C_5  and  C_8
REMARK    3  A    between atoms: C_11  and  S_14
REMARK    4  A    between atoms: N_12  and  N_13
REMARK    5  A    between atoms: S_14  and  C_15
REMARK    6  A    between atoms: C_15  and  C_17
REMARK    7  A    between atoms: C_15  and  C_18
REMARK    8  A    between atoms: N_20  and  C_21
REMARK    9  A    between atoms: C_22  and  C_29
REMARK   10  A    between atoms: C_24  and  C_28
REMARK   11  A    between atoms: C_26  and  C_27
REMARK                            x       y       z     vdW  Elec       q    Type
REMARK                         _______ _______ _______ _____ _____    ______ ____
ROOT
ATOM      1  S   UNL     1       7.365   0.316   1.212  0.00  0.00    -0.072 S 
ENDROOT
BRANCH   1   5
ATOM      2  C   UNL     1      10.411  -1.988   2.037  0.00  0.00    +0.182 A 
ATOM      3  N   UNL     1       9.525  -2.837   1.572  0.00  0.00    -0.127 NA
ATOM      4  N   UNL     1       8.445  -2.216   1.256  0.00  0.00    -0.121 NA
ATOM      5  C   UNL     1       8.579  -0.930   1.492  0.00  0.00    +0.209 A 
ATOM      6  N   UNL     1       9.833  -0.740   2.000  0.00  0.00    -0.224 N 
BRANCH   2  11
ATOM      7  C   UNL     1      15.715  -3.245   3.882  0.00  0.00    +0.044 C 
ATOM      8  C   UNL     1      14.326  -2.916   3.399  0.00  0.00    -0.050 A 
ATOM      9  C   UNL     1      13.748  -1.705   3.736  0.00  0.00    +0.004 A 
ATOM     10  C   UNL     1      12.477  -1.397   3.297  0.00  0.00    +0.012 A 
ATOM     11  C   UNL     1      11.774  -2.311   2.511  0.00  0.00    +0.021 A 
ATOM     12  C   UNL     1      12.360  -3.534   2.179  0.00  0.00    +0.012 A 
ATOM     13  C   UNL     1      13.634  -3.826   2.621  0.00  0.00    +0.004 A 
ENDBRANCH   2  11
BRANCH   6  14
ATOM     14  N   UNL     1      10.395   0.442   2.390  0.00  0.00    -0.295 N 
ATOM     15  H   UNL     1      10.291   0.581   3.384  0.00  0.00    +0.163 HD
ATOM     16  H   UNL     1      11.365   0.488   2.118  0.00  0.00    +0.163 HD
ENDBRANCH   6  14
ENDBRANCH   1   5
BRANCH   1  17
ATOM     17  C   UNL     1       6.021  -0.699   0.547  0.00  0.00    +0.137 C 
ATOM     18  C   UNL     1       6.452  -1.303  -0.790  0.00  0.00    +0.029 C 
BRANCH  17  19
ATOM     19  C   UNL     1       4.800   0.159   0.341  0.00  0.00    +0.230 C 
ATOM     20  O   UNL     1       4.919   1.354   0.170  0.00  0.00    -0.274 OA
ATOM     21  N   UNL     1       3.574  -0.402   0.346  0.00  0.00    -0.284 N 
ATOM     22  H   UNL     1       3.482  -1.365   0.402  0.00  0.00    +0.155 HD
BRANCH  21  23
ATOM     23  C   UNL     1       2.434   0.407   0.272  0.00  0.00    +0.039 A 
ATOM     24  C   UNL     1       2.272   1.285  -0.792  0.00  0.00    -0.029 A 
ATOM     25  C   UNL     1       1.146   2.081  -0.863  0.00  0.00    +0.008 A 
ATOM     26  C   UNL     1       0.181   2.006   0.125  0.00  0.00    -0.050 A 
ATOM     27  C   UNL     1       0.339   1.133   1.186  0.00  0.00    +0.008 A 
ATOM     28  C   UNL     1       1.463   0.333   1.262  0.00  0.00    -0.029 A 
ATOM     29  C   UNL     1       1.635  -0.618   2.418  0.00  0.00    +0.045 C 
ATOM     30  C   UNL     1      -1.044   2.881   0.048  0.00  0.00    +0.044 C 
ATOM     31  C   UNL     1       3.324   1.368  -1.868  0.00  0.00    +0.045 C 
ENDBRANCH  21  23
ENDBRANCH  17  19
ENDBRANCH   1  17
TORSDOF 6
