REMARK  Name = ZINC09292156
REMARK  7 active torsions:
REMARK  status: ('A' for Active; 'I' for Inactive)
REMARK    1  A    between atoms: C_4  and  C_7
REMARK    2  A    between atoms: C_7  and  O_8
REMARK    3  A    between atoms: O_8  and  C_9
REMARK    4  A    between atoms: C_12  and  C_15
REMARK    5  A    between atoms: C_22  and  N_33
REMARK    6  A    between atoms: C_23  and  C_31
REMARK    7  A    between atoms: C_24  and  C_26
REMARK                            x       y       z     vdW  Elec       q    Type
REMARK                         _______ _______ _______ _____ _____    ______ ____
ROOT
ATOM      1  C   UNL     1       9.001  -3.664   1.974  0.00  0.00    +0.074 A 
ATOM      2  C   UNL     1       9.238  -4.688   2.830  0.00  0.00    +0.054 A 
ATOM      3  C   UNL     1      10.583  -5.079   2.682  0.00  0.00    +0.245 A 
ATOM      4  N   UNL     1      11.133  -4.322   1.775  0.00  0.00    -0.135 NA
ATOM      5  N   UNL     1      10.165  -3.422   1.302  0.00  0.00    -0.273 N 
ATOM      6  H   UNL     1      10.300  -2.746   0.619  0.00  0.00    +0.189 HD
ATOM      7  O   UNL     1      11.125  -6.090   3.414  0.00  0.00    -0.421 OA
ATOM      8  C   UNL     1      10.423  -6.532   4.477  0.00  0.00    +0.201 C 
ATOM      9  C   UNL     1       9.129  -6.235   4.716  0.00  0.00    +0.099 C 
ATOM     10  C   UNL     1       8.305  -5.362   3.803  0.00  0.00    +0.108 C 
ENDROOT
BRANCH   1  14
ATOM     11  C   UNL     1       5.318  -1.605   1.466  0.00  0.00    +0.121 A 
ATOM     12  C   UNL     1       6.046  -2.006   0.354  0.00  0.00    +0.046 A 
ATOM     13  C   UNL     1       7.242  -2.675   0.515  0.00  0.00    +0.013 A 
ATOM     14  C   UNL     1       7.719  -2.947   1.798  0.00  0.00    +0.000 A 
ATOM     15  C   UNL     1       6.985  -2.542   2.913  0.00  0.00    +0.013 A 
ATOM     16  C   UNL     1       5.793  -1.869   2.744  0.00  0.00    +0.046 A 
BRANCH  11  17
ATOM     17  O   UNL     1       4.141  -0.946   1.304  0.00  0.00    -0.487 OA
BRANCH  17  18
ATOM     18  C   UNL     1       3.711  -0.707  -0.038  0.00  0.00    +0.264 C 
BRANCH  18  22
ATOM     19  C   UNL     1      -0.017   1.378   0.010  0.00  0.00    +0.000 A 
ATOM     20  C   UNL     1       1.171   2.086   0.002  0.00  0.00    +0.000 A 
ATOM     21  C   UNL     1       2.377   1.411  -0.013  0.00  0.00    +0.007 A 
ATOM     22  C   UNL     1       2.396   0.029  -0.020  0.00  0.00    -0.010 A 
ATOM     23  C   UNL     1       1.208  -0.679  -0.012  0.00  0.00    +0.007 A 
ATOM     24  C   UNL     1       0.002  -0.004   0.002  0.00  0.00    +0.000 A 
ENDBRANCH  18  22
ENDBRANCH  17  18
ENDBRANCH  11  17
ENDBRANCH   1  14
BRANCH  10  25
ATOM     25  C   UNL     1       7.310  -6.209   3.051  0.00  0.00    +0.003 A 
ATOM     26  C   UNL     1       5.958  -6.117   3.024  0.00  0.00    +0.012 A 
ATOM     27  C   UNL     1       5.240  -7.011   2.253  0.00  0.00    +0.008 A 
ATOM     28  C   UNL     1       5.910  -7.954   1.546  0.00  0.00    +0.045 A 
ATOM     29  S   UNL     1       7.608  -7.588   1.957  0.00  0.00    -0.101 S 
ENDBRANCH  10  25
BRANCH   8  30
ATOM     30  N   UNL     1      11.070  -7.341   5.378  0.00  0.00    -0.328 N 
ATOM     31  H   UNL     1      12.001  -7.575   5.238  0.00  0.00    +0.145 HD
ATOM     32  H   UNL     1      10.596  -7.678   6.154  0.00  0.00    +0.145 HD
ENDBRANCH   8  30
BRANCH   9  33
ATOM     33  C   UNL     1       8.509  -6.772   5.890  0.00  0.00    +0.101 C 
ATOM     34  N   UNL     1       8.018  -7.199   6.821  0.00  0.00    -0.191 NA
ENDBRANCH   9  33
TORSDOF 7
