REMARK  Name = ZINC33445147
REMARK  6 active torsions:
REMARK  status: ('A' for Active; 'I' for Inactive)
REMARK    1  A    between atoms: C_1  and  C_2
REMARK    2  A    between atoms: C_4  and  C_37
REMARK    3  A    between atoms: C_12  and  C_30
REMARK    4  A    between atoms: C_14  and  C_19
REMARK    5  A    between atoms: C_19  and  C_21
REMARK    6  A    between atoms: C_34  and  O_36
REMARK                            x       y       z     vdW  Elec       q    Type
REMARK                         _______ _______ _______ _____ _____    ______ ____
ROOT
ATOM      1  C   UNL     1      -8.541  -3.332   1.321  0.00  0.00    +0.044 C 
ATOM      2  C   UNL     1      -7.115  -3.761   1.549  0.00  0.00    -0.049 A 
ATOM      3  C   UNL     1      -6.801  -5.106   1.684  0.00  0.00    +0.009 A 
ATOM      4  C   UNL     1      -5.512  -5.523   1.891  0.00  0.00    -0.024 A 
ATOM      5  C   UNL     1      -4.454  -4.587   1.974  0.00  0.00    +0.083 A 
ATOM      6  C   UNL     1      -4.812  -3.227   1.832  0.00  0.00    +0.041 A 
ATOM      7  C   UNL     1      -6.106  -2.818   1.625  0.00  0.00    +0.020 A 
ATOM      8  S   UNL     1      -3.245  -2.405   1.993  0.00  0.00    -0.052 S 
ATOM      9  C   UNL     1      -2.247  -3.869   2.230  0.00  0.00    +0.169 A 
ATOM     10  N   UNL     1      -3.140  -4.830   2.167  0.00  0.00    -0.224 NA
ATOM     11  N   UNL     1      -0.881  -3.966   2.425  0.00  0.00    -0.232 N 
ATOM     12  C   UNL     1       0.066  -2.845   2.479  0.00  0.00    +0.152 C 
ATOM     13  C   UNL     1       1.429  -3.455   2.709  0.00  0.00    +0.080 C 
ATOM     14  C   UNL     1       1.250  -4.796   2.775  0.00  0.00    +0.250 C 
ATOM     15  C   UNL     1      -0.182  -5.104   2.598  0.00  0.00    +0.293 C 
ATOM     16  O   UNL     1      -0.661  -6.221   2.606  0.00  0.00    -0.266 OA
ATOM     17  O   UNL     1       2.230  -5.708   2.972  0.00  0.00    -0.282 OA
ATOM     18  C   UNL     1      -5.218  -6.994   2.031  0.00  0.00    +0.046 C 
ENDROOT
BRANCH  12  19
ATOM     19  C   UNL     1       0.049  -2.089   1.176  0.00  0.00    -0.019 A 
ATOM     20  C   UNL     1       0.020  -2.779  -0.022  0.00  0.00    +0.006 A 
ATOM     21  C   UNL     1       0.004  -2.088  -1.220  0.00  0.00    +0.004 A 
ATOM     22  C   UNL     1       0.013  -0.706  -1.222  0.00  0.00    +0.045 A 
ATOM     23  C   UNL     1       0.047  -0.012  -0.021  0.00  0.00    +0.117 A 
ATOM     24  C   UNL     1       0.063  -0.708   1.179  0.00  0.00    +0.051 A 
BRANCH  23  25
ATOM     25  O   UNL     1       0.061   1.347  -0.020  0.00  0.00    -0.507 OA
ATOM     26  H   UNL     1       0.088   1.896   0.932  0.00  0.00    +0.292 HD
ENDBRANCH  23  25
ENDBRANCH  12  19
BRANCH  13  27
ATOM     27  C   UNL     1       2.700  -2.734   2.837  0.00  0.00    +0.230 C 
ATOM     28  O   UNL     1       3.571  -2.882   1.998  0.00  0.00    -0.283 OA
BRANCH  27  29
ATOM     29  C   UNL     1       2.922  -1.835   3.977  0.00  0.00    +0.176 A 
ATOM     30  C   UNL     1       4.018  -1.046   4.150  0.00  0.00    +0.061 A 
ATOM     31  C   UNL     1       3.806  -0.330   5.407  0.00  0.00    +0.021 A 
ATOM     32  C   UNL     1       4.545   0.612   6.127  0.00  0.00    +0.011 A 
ATOM     33  C   UNL     1       4.056   1.097   7.307  0.00  0.00    +0.001 A 
ATOM     34  C   UNL     1       2.830   0.661   7.793  0.00  0.00    +0.004 A 
ATOM     35  C   UNL     1       2.086  -0.267   7.097  0.00  0.00    +0.047 A 
ATOM     36  C   UNL     1       2.563  -0.775   5.895  0.00  0.00    +0.136 A 
ATOM     37  O   UNL     1       2.074  -1.669   5.013  0.00  0.00    -0.452 OA
ENDBRANCH  27  29
ENDBRANCH  13  27
TORSDOF 4
