REMARK  Name = ZINC17055862
REMARK  5 active torsions:
REMARK  status: ('A' for Active; 'I' for Inactive)
REMARK    1  A    between atoms: C_1  and  C_2
REMARK    2  A    between atoms: C_9  and  N_14
REMARK    3  A    between atoms: C_10  and  C_11
REMARK    4  A    between atoms: C_15  and  C_17
REMARK    5  A    between atoms: C_17  and  N_45
REMARK                            x       y       z     vdW  Elec       q    Type
REMARK                         _______ _______ _______ _____ _____    ______ ____
ROOT
ATOM      1  C   UNL     1      -0.019   1.526   0.010  0.00  0.00    +0.008 C 
ATOM      2  C   UNL     1       0.002  -0.004   0.002  0.00  0.00    -0.009 C 
ATOM      3  C   UNL     1       0.742  -0.514   1.242  0.00  0.00    +0.008 C 
ATOM      4  C   UNL     1       0.984  -2.020   1.121  0.00  0.00    +0.037 C 
ATOM      5  C   UNL     1      -0.340  -2.706   0.809  0.00  0.00    -0.023 A 
ATOM      6  C   UNL     1      -1.390  -2.006   0.327  0.00  0.00    -0.004 A 
ATOM      7  S   UNL     1      -2.678  -3.203   0.125  0.00  0.00    -0.077 S 
ATOM      8  C   UNL     1      -1.836  -4.615   0.673  0.00  0.00    +0.084 A 
ATOM      9  C   UNL     1      -0.579  -4.127   0.999  0.00  0.00    +0.068 A 
ATOM     10  C   UNL     1      -1.437  -0.538   0.030  0.00  0.00    +0.046 C 
ENDROOT
BRANCH   9  11
ATOM     11  C   UNL     1       0.470  -5.011   1.517  0.00  0.00    +0.244 C 
ATOM     12  O   UNL     1       0.577  -5.192   2.716  0.00  0.00    -0.270 OA
ATOM     13  N   UNL     1       1.315  -5.624   0.665  0.00  0.00    -0.325 N 
ATOM     14  H   UNL     1       1.230  -5.480  -0.291  0.00  0.00    +0.145 HD
ATOM     15  H   UNL     1       2.009  -6.209   1.007  0.00  0.00    +0.145 HD
ENDBRANCH   9  11
BRANCH   8  16
ATOM     16  N   UNL     1      -2.304  -5.917   0.763  0.00  0.00    -0.281 N 
ATOM     17  C   UNL     1      -3.569  -6.205   0.396  0.00  0.00    +0.201 C 
ATOM     18  O   UNL     1      -4.297  -5.325  -0.013  0.00  0.00    -0.278 OA
ATOM     19  H   UNL     1      -1.722  -6.620   1.090  0.00  0.00    +0.155 HD
BRANCH  17  20
ATOM     20  C   UNL     1      -4.078  -7.620   0.494  0.00  0.00    +0.019 C 
BRANCH  20  25
ATOM     21  C   UNL     1      -5.618  -7.055  -1.306  0.00  0.00    -0.078 C 
ATOM     22  C   UNL     1      -6.950  -7.650  -1.828  0.00  0.00    -0.020 C 
ATOM     23  C   UNL     1      -6.911  -9.102  -1.296  0.00  0.00    -0.020 C 
ATOM     24  C   UNL     1      -5.933  -9.069  -0.108  0.00  0.00    -0.078 C 
ATOM     25  N   UNL     1      -5.494  -7.679   0.021  0.00  0.00    +0.385 N 
ATOM     26  H   UNL     1      -6.094  -7.186   0.693  0.00  0.00    -0.081 HD
ENDBRANCH  20  25
ENDBRANCH  17  20
ENDBRANCH   8  16
TORSDOF 4
