REMARK  Name = ZINC20754994
REMARK  9 active torsions:
REMARK  status: ('A' for Active; 'I' for Inactive)
REMARK    1  A    between atoms: C_1  and  O_2
REMARK    2  A    between atoms: O_2  and  C_3
REMARK    3  A    between atoms: C_6  and  N_9
REMARK    4  A    between atoms: N_9  and  S_10
REMARK    5  A    between atoms: S_10  and  C_13
REMARK    6  A    between atoms: C_15  and  N_29
REMARK    7  A    between atoms: C_18  and  N_19
REMARK    8  A    between atoms: N_19  and  N_20
REMARK    9  A    between atoms: C_21  and  C_22
REMARK                            x       y       z     vdW  Elec       q    Type
REMARK                         _______ _______ _______ _____ _____    ______ ____
ROOT
ATOM      1  C   UNL     1       2.089   3.917   0.244  0.00  0.00    +0.133 A 
ATOM      2  C   UNL     1       1.906   5.272   0.435  0.00  0.00    +0.063 A 
ATOM      3  C   UNL     1       0.629   5.801   0.476  0.00  0.00    +0.128 A 
ATOM      4  C   UNL     1      -0.470   4.976   0.320  0.00  0.00    +0.035 A 
ATOM      5  C   UNL     1      -0.295   3.620   0.122  0.00  0.00    +0.029 A 
ATOM      6  C   UNL     1       0.987   3.086   0.081  0.00  0.00    +0.075 A 
ENDROOT
BRANCH   1   7
ATOM      7  S   UNL     1       3.716   3.244   0.199  0.00  0.00    +0.074 S 
ATOM      8  O   UNL     1       3.791   2.438  -0.969  0.00  0.00    -0.150 OA
ATOM      9  O   UNL     1       4.609   4.323   0.438  0.00  0.00    -0.150 OA
BRANCH   7  10
ATOM     10  N   UNL     1       3.858   2.218   1.492  0.00  0.00    -0.216 N 
ATOM     11  H   UNL     1       4.054   1.149   1.326  0.00  0.00    +0.174 HD
BRANCH  10  15
ATOM     12  C   UNL     1       3.470   3.690   5.372  0.00  0.00    +0.120 A 
ATOM     13  C   UNL     1       2.810   2.527   5.002  0.00  0.00    +0.047 A 
ATOM     14  C   UNL     1       2.938   2.039   3.717  0.00  0.00    +0.028 A 
ATOM     15  C   UNL     1       3.727   2.712   2.794  0.00  0.00    +0.048 A 
ATOM     16  C   UNL     1       4.392   3.873   3.167  0.00  0.00    +0.028 A 
ATOM     17  C   UNL     1       4.258   4.363   4.451  0.00  0.00    +0.047 A 
BRANCH  12  19
ATOM     18  C   UNL     1       3.960   5.428   6.920  0.00  0.00    +0.277 C 
ATOM     19  O   UNL     1       3.343   4.170   6.638  0.00  0.00    -0.495 OA
ENDBRANCH  12  19
ENDBRANCH  10  15
ENDBRANCH   7  10
ENDBRANCH   1   7
BRANCH   3  20
ATOM     20  N   UNL     1       0.438   7.254   0.687  0.00  0.00    +0.056 N 
ATOM     21  O   UNL     1      -0.687   7.721   0.723  0.00  0.00    -0.126 OA
ATOM     22  O   UNL     1       1.404   7.982   0.825  0.00  0.00    -0.126 OA
ENDBRANCH   3  20
BRANCH   6  23
ATOM     23  N   UNL     1       1.168   1.716  -0.118  0.00  0.00    -0.236 N 
ATOM     24  H   UNL     1       2.182   1.306  -0.232  0.00  0.00    +0.174 HD
BRANCH  23  25
ATOM     25  N   UNL     1       0.057   0.864  -0.173  0.00  0.00    -0.190 NA
ATOM     26  C   UNL     1       0.228  -0.420  -0.261  0.00  0.00    +0.138 C 
BRANCH  26  27
ATOM     27  C   UNL     1      -0.936  -1.324  -0.208  0.00  0.00    -0.005 A 
ATOM     28  C   UNL     1      -2.230  -0.799  -0.164  0.00  0.00    +0.012 A 
ATOM     29  C   UNL     1      -3.314  -1.649  -0.118  0.00  0.00    +0.039 A 
ATOM     30  C   UNL     1      -3.122  -3.022  -0.107  0.00  0.00    +0.123 A 
ATOM     31  C   UNL     1      -1.841  -3.548  -0.146  0.00  0.00    +0.039 A 
ATOM     32  C   UNL     1      -0.749  -2.708  -0.196  0.00  0.00    +0.012 A 
ATOM     33  F   UNL     1      -4.189  -3.850  -0.057  0.00  0.00    -0.205 F 
ENDBRANCH  26  27
ENDBRANCH  23  25
ENDBRANCH   6  23
TORSDOF 8
