REMARK  Name = ZINC09188471
REMARK  4 active torsions:
REMARK  status: ('A' for Active; 'I' for Inactive)
REMARK    1  A    between atoms: C_1  and  C_2
REMARK    2  A    between atoms: C_6  and  N_8
REMARK    3  A    between atoms: C_12  and  C_13
REMARK    4  A    between atoms: C_18  and  O_19
REMARK                            x       y       z     vdW  Elec       q    Type
REMARK                         _______ _______ _______ _____ _____    ______ ____
ROOT
ATOM      1  N   UNL     1      -2.174   5.685   0.350  0.00  0.00    -0.224 N 
ATOM      2  C   UNL     1      -2.308   4.479   0.878  0.00  0.00    +0.263 C 
ATOM      3  O   UNL     1      -3.318   4.150   1.472  0.00  0.00    -0.269 OA
ATOM      4  C   UNL     1      -1.171   3.554   0.711  0.00  0.00    +0.078 C 
ATOM      5  C   UNL     1      -1.026   2.273   1.140  0.00  0.00    +0.031 C 
ATOM      6  S   UNL     1      -0.032   4.584  -0.203  0.00  0.00    -0.061 S 
ATOM      7  C   UNL     1      -1.053   6.045  -0.306  0.00  0.00    +0.125 C 
ATOM      8  S   UNL     1      -0.693   7.544  -1.051  0.00  0.00    -0.027 S 
ENDROOT
BRANCH   1  14
ATOM      9  C   UNL     1      -6.389   7.564  -1.349  0.00  0.00    +0.044 C 
ATOM     10  C   UNL     1      -5.277   7.540  -0.333  0.00  0.00    -0.049 A 
ATOM     11  C   UNL     1      -5.288   8.430   0.726  0.00  0.00    +0.003 A 
ATOM     12  C   UNL     1      -4.269   8.411   1.660  0.00  0.00    +0.002 A 
ATOM     13  C   UNL     1      -3.238   7.498   1.541  0.00  0.00    +0.024 A 
ATOM     14  C   UNL     1      -3.221   6.608   0.477  0.00  0.00    +0.043 A 
ATOM     15  C   UNL     1      -4.246   6.629  -0.460  0.00  0.00    +0.027 A 
ENDBRANCH   1  14
BRANCH   5  16
ATOM     16  C   UNL     1       0.131   1.481   0.707  0.00  0.00    +0.018 A 
ATOM     17  C   UNL     1       0.865   1.864  -0.421  0.00  0.00    +0.011 A 
ATOM     18  C   UNL     1       1.946   1.111  -0.824  0.00  0.00    +0.001 A 
ATOM     19  C   UNL     1       2.311  -0.023  -0.118  0.00  0.00    +0.004 A 
ATOM     20  C   UNL     1       1.595  -0.414   0.998  0.00  0.00    +0.046 A 
ATOM     21  C   UNL     1       0.505   0.329   1.419  0.00  0.00    +0.124 A 
BRANCH  21  22
ATOM     22  O   UNL     1      -0.199  -0.053   2.515  0.00  0.00    -0.506 OA
ATOM     23  H   UNL     1      -0.933  -0.653   2.321  0.00  0.00    +0.292 HD
ENDBRANCH  21  22
ENDBRANCH   5  16
TORSDOF 3
