REMARK  Name = ZINC58993742
REMARK  6 active torsions:
REMARK  status: ('A' for Active; 'I' for Inactive)
REMARK    1  A    between atoms: C_5  and  N_7
REMARK    2  A    between atoms: C_8  and  C_10
REMARK    3  A    between atoms: C_10  and  S_11
REMARK    4  A    between atoms: S_11  and  C_12
REMARK    5  A    between atoms: N_17  and  N_18
REMARK    6  A    between atoms: C_19  and  C_20
REMARK                            x       y       z     vdW  Elec       q    Type
REMARK                         _______ _______ _______ _____ _____    ______ ____
ROOT
ATOM      1  C   UNL     1      -1.370  -6.656   0.437  0.00  0.00    +0.211 A 
ATOM      2  N   UNL     1      -2.359  -7.549   0.547  0.00  0.00    -0.186 NA
ATOM      3  C   UNL     1      -1.855  -8.764   0.607  0.00  0.00    +0.232 A 
ATOM      4  N   UNL     1      -0.510  -8.661   0.535  0.00  0.00    -0.245 N 
ATOM      5  N   UNL     1      -0.222  -7.291   0.421  0.00  0.00    -0.144 NA
ATOM      6  N   UNL     1      -2.575  -9.939   0.724  0.00  0.00    -0.205 N 
ATOM      7  H   UNL     1      -2.111 -10.790   0.761  0.00  0.00    +0.177 HD
ATOM      8  H   UNL     1       0.130  -9.389   0.556  0.00  0.00    +0.192 HD
ENDROOT
BRANCH   6   9
ATOM      9  N   UNL     1      -3.974  -9.899   0.788  0.00  0.00    -0.188 NA
ATOM     10  C   UNL     1      -4.650 -11.002   0.898  0.00  0.00    +0.138 C 
BRANCH  10  11
ATOM     11  C   UNL     1      -6.122 -10.961   0.966  0.00  0.00    -0.004 A 
ATOM     12  C   UNL     1      -6.793  -9.737   0.906  0.00  0.00    +0.009 A 
ATOM     13  C   UNL     1      -8.171  -9.705   0.970  0.00  0.00    +0.002 A 
ATOM     14  C   UNL     1      -8.888 -10.882   1.093  0.00  0.00    +0.015 A 
ATOM     15  C   UNL     1      -8.230 -12.098   1.152  0.00  0.00    +0.018 A 
ATOM     16  C   UNL     1      -6.853 -12.145   1.083  0.00  0.00    +0.024 A 
ATOM     17 BR   UNL     1      -9.222 -13.700   1.320  0.00  0.00    -0.050 Br
ENDBRANCH  10  11
ENDBRANCH   6   9
BRANCH   1  18
ATOM     18  S   UNL     1      -1.576  -4.910   0.325  0.00  0.00    -0.075 S 
BRANCH  18  19
ATOM     19  C   UNL     1       0.119  -4.276   0.191  0.00  0.00    +0.173 C 
BRANCH  19  21
ATOM     20  N   UNL     1       1.237  -2.080  -0.022  0.00  0.00    -0.284 N 
ATOM     21  C   UNL     1       0.086  -2.773   0.087  0.00  0.00    +0.228 C 
ATOM     22  O   UNL     1      -0.976  -2.187   0.102  0.00  0.00    -0.275 OA
ATOM     23  H   UNL     1       2.080  -2.551  -0.115  0.00  0.00    +0.155 HD
BRANCH  20  28
ATOM     24  C   UNL     1       0.153   1.372   0.637  0.00  0.00    +0.002 A 
ATOM     25  C   UNL     1       1.173   2.086   0.035  0.00  0.00    +0.001 A 
ATOM     26  C   UNL     1       2.214   1.421  -0.586  0.00  0.00    +0.017 A 
ATOM     27  C   UNL     1       2.239   0.040  -0.607  0.00  0.00    +0.039 A 
ATOM     28  C   UNL     1       1.216  -0.681  -0.003  0.00  0.00    +0.047 A 
ATOM     29  C   UNL     1       0.172  -0.009   0.620  0.00  0.00    +0.024 A 
ATOM     30 BR   UNL     1       3.662  -0.869  -1.458  0.00  0.00    -0.048 Br
ENDBRANCH  20  28
ENDBRANCH  19  21
ENDBRANCH  18  19
ENDBRANCH   1  18
TORSDOF 6
