REMARK  Name = ZINC40570901
REMARK  9 active torsions:
REMARK  status: ('A' for Active; 'I' for Inactive)
REMARK    1  A    between atoms: C_1  and  C_2
REMARK    2  A    between atoms: C_4  and  N_16
REMARK    3  A    between atoms: C_8  and  C_12
REMARK    4  A    between atoms: N_16  and  C_17
REMARK    5  A    between atoms: C_20  and  S_23
REMARK    6  A    between atoms: S_23  and  N_26
REMARK    7  A    between atoms: N_26  and  C_27
REMARK    8  A    between atoms: C_29  and  C_34
REMARK    9  A    between atoms: C_31  and  C_33
REMARK                            x       y       z     vdW  Elec       q    Type
REMARK                         _______ _______ _______ _____ _____    ______ ____
ROOT
ATOM      1  N   UNL     1       0.027  -2.754  -2.438  0.00  0.00    -0.314 N 
ATOM      2  H   UNL     1      -0.521  -2.478  -1.687  0.00  0.00    +0.152 HD
ENDROOT
BRANCH   1   6
ATOM      3  C   UNL     1       3.405  -5.775  -4.328  0.00  0.00    +0.063 C 
ATOM      4  C   UNL     1       2.422  -5.424  -3.241  0.00  0.00    +0.015 A 
ATOM      5  C   UNL     1       1.685  -4.253  -3.350  0.00  0.00    +0.044 A 
ATOM      6  C   UNL     1       0.778  -3.917  -2.357  0.00  0.00    +0.042 A 
ATOM      7  C   UNL     1       0.642  -4.800  -1.259  0.00  0.00    +0.019 A 
ATOM      8  C   UNL     1      -0.254  -4.533  -0.215  0.00  0.00    +0.012 A 
ATOM      9  C   UNL     1      -0.357  -5.407   0.825  0.00  0.00    +0.013 A 
ATOM     10  C   UNL     1       0.418  -6.564   0.864  0.00  0.00    +0.057 A 
ATOM     11  C   UNL     1       1.298  -6.853  -0.134  0.00  0.00    +0.038 A 
ATOM     12  C   UNL     1       1.431  -5.974  -1.223  0.00  0.00    +0.049 A 
ATOM     13  N   UNL     1       2.284  -6.237  -2.220  0.00  0.00    -0.358 N 
ATOM     14  H   UNL     1       2.816  -7.048  -2.185  0.00  0.00    +0.166 HD
BRANCH  10  15
ATOM     15  C   UNL     1       0.281  -7.510   2.029  0.00  0.00    +0.417 C 
ATOM     16  F   UNL     1      -0.673  -7.012   2.924  0.00  0.00    -0.166 F 
ATOM     17  F   UNL     1      -0.126  -8.765   1.564  0.00  0.00    -0.166 F 
ATOM     18  F   UNL     1       1.513  -7.630   2.680  0.00  0.00    -0.166 F 
ENDBRANCH  10  15
ENDBRANCH   1   6
BRANCH   1  19
ATOM     19  C   UNL     1       0.061  -1.979  -3.600  0.00  0.00    +0.031 A 
ATOM     20  C   UNL     1       0.125  -0.594  -3.511  0.00  0.00    +0.025 A 
ATOM     21  C   UNL     1       0.159   0.169  -4.662  0.00  0.00    +0.031 A 
ATOM     22  C   UNL     1       0.130  -0.444  -5.901  0.00  0.00    +0.111 A 
ATOM     23  C   UNL     1       0.066  -1.823  -5.993  0.00  0.00    +0.031 A 
ATOM     24  C   UNL     1       0.038  -2.592  -4.846  0.00  0.00    +0.025 A 
BRANCH  22  25
ATOM     25  S   UNL     1       0.173   0.533  -7.367  0.00  0.00    +0.093 S 
ATOM     26  O   UNL     1      -0.416  -0.252  -8.395  0.00  0.00    -0.148 OA
ATOM     27  O   UNL     1      -0.319   1.818  -7.013  0.00  0.00    -0.148 OA
BRANCH  25  28
ATOM     28  N   UNL     1       1.765   0.732  -7.776  0.00  0.00    -0.078 NA
BRANCH  28  29
ATOM     29  C   UNL     1       2.105   1.467  -8.900  0.00  0.00    +0.166 A 
ATOM     30  C   UNL     1       3.444   1.637  -9.259  0.00  0.00    +0.070 A 
ATOM     31  C   UNL     1       3.731   2.378 -10.388  0.00  0.00    +0.044 A 
ATOM     32  N   UNL     1       2.734   2.900 -11.089  0.00  0.00    -0.237 NA
ATOM     33  C   UNL     1       1.481   2.722 -10.725  0.00  0.00    +0.128 A 
ATOM     34  N   UNL     1       1.161   2.017  -9.658  0.00  0.00    -0.214 NA
ATOM     35  C   UNL     1       0.382   3.335 -11.554  0.00  0.00    +0.088 C 
ATOM     36  C   UNL     1       5.159   2.591 -10.817  0.00  0.00    +0.066 C 
ENDBRANCH  28  29
ENDBRANCH  25  28
ENDBRANCH  22  25
ENDBRANCH   1  19
TORSDOF 6
