REMARK  Name = ZINC16649468
REMARK  6 active torsions:
REMARK  status: ('A' for Active; 'I' for Inactive)
REMARK    1  A    between atoms: C_1  and  S_2
REMARK    2  A    between atoms: S_2  and  C_3
REMARK    3  A    between atoms: C_6  and  S_17
REMARK    4  A    between atoms: C_8  and  C_9
REMARK    5  A    between atoms: S_17  and  N_20
REMARK    6  A    between atoms: N_20  and  C_21
REMARK                            x       y       z     vdW  Elec       q    Type
REMARK                         _______ _______ _______ _____ _____    ______ ____
ROOT
ATOM      1  C   UNL     1       4.294  -5.714   3.417  0.00  0.00    +0.020 A 
ATOM      2  C   UNL     1       3.270  -4.792   3.603  0.00  0.00    +0.017 A 
ATOM      3  C   UNL     1       3.564  -3.451   3.733  0.00  0.00    +0.030 A 
ATOM      4  C   UNL     1       4.877  -3.010   3.669  0.00  0.00    +0.109 A 
ATOM      5  C   UNL     1       5.905  -3.908   3.486  0.00  0.00    +0.043 A 
ATOM      6  C   UNL     1       5.625  -5.271   3.358  0.00  0.00    +0.052 A 
ENDROOT
BRANCH   6   7
ATOM      7  C   UNL     1       6.721  -6.237   3.161  0.00  0.00    +0.248 C 
ATOM      8  O   UNL     1       6.682  -7.018   2.229  0.00  0.00    -0.270 OA
ATOM      9  N   UNL     1       7.765  -6.256   4.013  0.00  0.00    -0.293 N 
ATOM     10  C   UNL     1       7.783  -5.395   5.207  0.00  0.00    +0.136 C 
ATOM     11  C   UNL     1       8.120  -6.272   6.424  0.00  0.00    +0.179 C 
ATOM     12  O   UNL     1       9.315  -7.009   6.154  0.00  0.00    -0.377 OA
ATOM     13  C   UNL     1       9.206  -7.920   5.058  0.00  0.00    +0.179 C 
ATOM     14  C   UNL     1       8.922  -7.132   3.774  0.00  0.00    +0.136 C 
ENDBRANCH   6   7
BRANCH   4  15
ATOM     15  S   UNL     1       5.232  -1.292   3.830  0.00  0.00    +0.072 S 
ATOM     16  O   UNL     1       6.607  -1.192   4.175  0.00  0.00    -0.150 OA
ATOM     17  O   UNL     1       4.202  -0.738   4.637  0.00  0.00    -0.150 OA
BRANCH  15  18
ATOM     18  N   UNL     1       5.071  -0.616   2.327  0.00  0.00    -0.216 N 
ATOM     19  H   UNL     1       5.844  -0.232   1.882  0.00  0.00    +0.174 HD
BRANCH  18  20
ATOM     20  C   UNL     1       3.821  -0.597   1.698  0.00  0.00    +0.052 A 
ATOM     21  C   UNL     1       2.846   0.298   2.118  0.00  0.00    +0.028 A 
ATOM     22  C   UNL     1       1.611   0.317   1.499  0.00  0.00    +0.051 A 
ATOM     23  C   UNL     1       1.342  -0.556   0.457  0.00  0.00    +0.166 A 
ATOM     24  C   UNL     1       2.318  -1.455   0.034  0.00  0.00    +0.168 A 
ATOM     25  C   UNL     1       3.556  -1.474   0.656  0.00  0.00    +0.074 A 
ATOM     26  O   UNL     1       1.812  -2.197  -0.994  0.00  0.00    -0.453 OA
ATOM     27  C   UNL     1       0.664  -1.467  -1.466  0.00  0.00    +0.466 C 
ATOM     28  O   UNL     1       0.224  -0.734  -0.307  0.00  0.00    -0.453 OA
ENDBRANCH  18  20
ENDBRANCH  15  18
ENDBRANCH   4  15
BRANCH   1  30
ATOM     29  C   UNL     1       2.116  -7.503   3.397  0.00  0.00    +0.090 C 
ATOM     30  S   UNL     1       3.924  -7.429   3.257  0.00  0.00    -0.128 S 
ENDBRANCH   1  30
TORSDOF 5
