REMARK  Name = ZINC49468664
REMARK  12 active torsions:
REMARK  status: ('A' for Active; 'I' for Inactive)
REMARK    1  A    between atoms: C_1  and  C_2
REMARK    2  A    between atoms: C_3  and  C_12
REMARK    3  A    between atoms: C_5  and  C_7
REMARK    4  A    between atoms: N_17  and  C_19
REMARK    5  A    between atoms: C_19  and  C_20
REMARK    6  A    between atoms: C_20  and  N_21
REMARK    7  A    between atoms: C_22  and  C_24
REMARK    8  A    between atoms: C_24  and  O_25
REMARK    9  A    between atoms: O_25  and  C_26
REMARK   10  A    between atoms: C_29  and  C_32
REMARK   11  A    between atoms: C_32  and  C_33
REMARK   12  A    between atoms: C_32  and  C_34
REMARK                            x       y       z     vdW  Elec       q    Type
REMARK                         _______ _______ _______ _____ _____    ______ ____
ROOT
ATOM      1  C   UNL     1      -0.009  -0.173  -2.572  0.00  0.00    +0.100 A 
ATOM      2  C   UNL     1      -0.008  -1.078  -3.663  0.00  0.00    +0.036 A 
ATOM      3  C   UNL     1      -0.022  -0.566  -4.926  0.00  0.00    +0.074 A 
ATOM      4  C   UNL     1      -0.037   0.840  -5.070  0.00  0.00    +0.267 A 
ATOM      5  O   UNL     1      -0.050   1.343  -6.182  0.00  0.00    -0.266 OA
ATOM      6  N   UNL     1      -0.037   1.620  -3.973  0.00  0.00    -0.227 N 
ATOM      7  N   UNL     1      -0.028   1.123  -2.789  0.00  0.00    -0.168 NA
ENDROOT
BRANCH   1  10
ATOM      8  C   UNL     1      -0.018   1.503   0.010  0.00  0.00    +0.067 C 
ATOM      9  C   UNL     1       0.002  -0.004   0.002  0.00  0.00    +0.055 A 
ATOM     10  C   UNL     1       0.005  -0.689  -1.189  0.00  0.00    +0.062 A 
ATOM     11  S   UNL     1       0.031  -2.377  -0.599  0.00  0.00    -0.065 S 
ATOM     12  C   UNL     1       0.035  -1.998   1.149  0.00  0.00    +0.116 A 
ATOM     13  N   UNL     1       0.022  -0.668   1.129  0.00  0.00    -0.243 NA
BRANCH  12  14
ATOM     14  C   UNL     1       0.053  -2.912   2.300  0.00  0.00    +0.044 A 
ATOM     15  C   UNL     1       0.050  -2.614   3.650  0.00  0.00    +0.018 A 
ATOM     16  C   UNL     1       0.070  -3.654   4.550  0.00  0.00    +0.008 A 
ATOM     17  C   UNL     1       0.091  -4.932   4.089  0.00  0.00    +0.046 A 
ATOM     18  S   UNL     1       0.077  -4.697   2.319  0.00  0.00    -0.095 S 
ENDBRANCH  12  14
ENDBRANCH   1  10
BRANCH   6  19
ATOM     19  C   UNL     1      -0.051   3.076  -4.134  0.00  0.00    +0.166 C 
BRANCH  19  20
ATOM     20  C   UNL     1      -1.499   3.569  -4.180  0.00  0.00    +0.127 C 
BRANCH  20  21
ATOM     21  N   UNL     1      -1.514   5.025  -4.342  0.00  0.00    -0.311 N 
ATOM     22  C   UNL     1      -2.687   5.684  -4.408  0.00  0.00    +0.251 C 
ATOM     23  O   UNL     1      -3.732   5.072  -4.334  0.00  0.00    -0.272 OA
ATOM     24  H   UNL     1      -0.678   5.515  -4.401  0.00  0.00    +0.149 HD
BRANCH  22  25
ATOM     25  C   UNL     1      -2.703   7.182  -4.574  0.00  0.00    +0.324 C 
BRANCH  25  26
ATOM     26  O   UNL     1      -4.054   7.643  -4.617  0.00  0.00    -0.483 OA
BRANCH  26  27
ATOM     27  C   UNL     1      -4.246   8.980  -4.764  0.00  0.00    +0.121 A 
ATOM     28  C   UNL     1      -3.155   9.831  -4.871  0.00  0.00    +0.046 A 
ATOM     29  C   UNL     1      -3.353  11.190  -5.021  0.00  0.00    +0.007 A 
ATOM     30  C   UNL     1      -4.636  11.703  -5.064  0.00  0.00    -0.045 A 
ATOM     31  C   UNL     1      -5.725  10.857  -4.958  0.00  0.00    +0.007 A 
ATOM     32  C   UNL     1      -5.533   9.496  -4.814  0.00  0.00    +0.046 A 
BRANCH  30  33
ATOM     33  C   UNL     1      -4.848  13.185  -5.228  0.00  0.00    +0.013 C 
ATOM     34  C   UNL     1      -5.648  13.449  -6.505  0.00  0.00    +0.012 C 
ATOM     35  C   UNL     1      -5.621  13.726  -4.023  0.00  0.00    +0.012 C 
ENDBRANCH  30  33
ENDBRANCH  26  27
ENDBRANCH  25  26
ENDBRANCH  22  25
ENDBRANCH  20  21
ENDBRANCH  19  20
ENDBRANCH   6  19
TORSDOF 9
