REMARK  Name = ZINC38009225
REMARK  4 active torsions:
REMARK  status: ('A' for Active; 'I' for Inactive)
REMARK    1  A    between atoms: C_1  and  N_2
REMARK    2  A    between atoms: C_4  and  N_9
REMARK    3  A    between atoms: N_9  and  C_10
REMARK    4  A    between atoms: C_10  and  C_11
REMARK                            x       y       z     vdW  Elec       q    Type
REMARK                         _______ _______ _______ _____ _____    ______ ____
ROOT
ATOM      1  C   UNL     1      -2.395  -4.215  -0.009  0.00  0.00    +0.145 C 
ENDROOT
BRANCH   1   2
ATOM      2  C   UNL     1      -3.817  -4.715  -0.004  0.00  0.00    +0.026 A 
ATOM      3  C   UNL     1      -4.604  -4.990  -1.055  0.00  0.00    +0.060 A 
ATOM      4  C   UNL     1      -5.960  -5.468  -0.825  0.00  0.00    +0.008 A 
ATOM      5  C   UNL     1      -6.950  -5.814  -1.774  0.00  0.00    +0.010 A 
ATOM      6  C   UNL     1      -8.175  -6.246  -1.373  0.00  0.00    +0.001 A 
ATOM      7  C   UNL     1      -8.500  -6.362  -0.028  0.00  0.00    +0.001 A 
ATOM      8  C   UNL     1      -7.561  -6.034   0.929  0.00  0.00    +0.016 A 
ATOM      9  C   UNL     1      -6.315  -5.596   0.536  0.00  0.00    +0.021 A 
ATOM     10  S   UNL     1      -4.850  -5.089   1.399  0.00  0.00    -0.090 S 
ATOM     11 CL   UNL     1      -4.012  -4.777  -2.673  0.00  0.00    -0.082 Cl
ENDBRANCH   1   2
BRANCH   1  12
ATOM     12  N   UNL     1      -2.392  -2.750  -0.001  0.00  0.00    -0.338 N 
ATOM     13  H   UNL     1      -3.232  -2.264   0.006  0.00  0.00    +0.146 HD
BRANCH  12  17
ATOM     14  C   UNL     1      -0.018   1.461   0.010  0.00  0.00    +0.152 C 
ATOM     15  N   UNL     1       0.002  -0.004   0.002  0.00  0.00    -0.316 N 
ATOM     16  C   UNL     1      -1.171  -0.692   0.004  0.00  0.00    +0.111 A 
ATOM     17  C   UNL     1      -1.176  -2.051  -0.003  0.00  0.00    +0.044 A 
ATOM     18  C   UNL     1       0.041  -2.755  -0.013  0.00  0.00    +0.029 A 
ATOM     19  C   UNL     1       1.214  -2.058  -0.015  0.00  0.00    +0.072 A 
ATOM     20  C   UNL     1       1.181  -0.653  -0.013  0.00  0.00    +0.251 A 
ATOM     21  O   UNL     1       2.225  -0.020  -0.020  0.00  0.00    -0.268 OA
ENDBRANCH  12  17
ENDBRANCH   1  12
TORSDOF 3
