REMARK  Name = ZINC35311302
REMARK  9 active torsions:
REMARK  status: ('A' for Active; 'I' for Inactive)
REMARK    1  A    between atoms: C_10  and  C_11
REMARK    2  A    between atoms: N_13  and  C_14
REMARK    3  A    between atoms: C_14  and  C_15
REMARK    4  A    between atoms: C_15  and  C_16
REMARK    5  A    between atoms: C_16  and  N_17
REMARK    6  A    between atoms: N_17  and  C_18
REMARK    7  A    between atoms: C_18  and  N_20
REMARK    8  A    between atoms: N_20  and  C_21
REMARK    9  A    between atoms: C_21  and  C_22
REMARK                            x       y       z     vdW  Elec       q    Type
REMARK                         _______ _______ _______ _____ _____    ______ ____
ROOT
ATOM      1  C   UNL     1      -0.017   1.385   0.010  0.00  0.00    +0.032 A 
ATOM      2  C   UNL     1       1.213   2.065   0.002  0.00  0.00    +0.005 A 
ATOM      3  C   UNL     1       1.263   3.470   0.008  0.00  0.00    +0.059 A 
ATOM      4  C   UNL     1       2.467   4.109  -0.002  0.00  0.00    +0.167 A 
ATOM      5  C   UNL     1       3.666   3.375  -0.016  0.00  0.00    +0.168 A 
ATOM      6  C   UNL     1       3.645   1.999  -0.022  0.00  0.00    +0.078 A 
ATOM      7  C   UNL     1       2.418   1.317  -0.013  0.00  0.00    +0.077 A 
ATOM      8  N   UNL     1       2.382  -0.021  -0.020  0.00  0.00    -0.231 NA
ATOM      9  C   UNL     1       1.244  -0.681  -0.013  0.00  0.00    +0.137 A 
ATOM     10  C   UNL     1       0.002  -0.004   0.002  0.00  0.00    +0.092 A 
ATOM     11  N   UNL     1       1.262  -2.065  -0.021  0.00  0.00    -0.328 N 
ATOM     12  O   UNL     1       4.710   4.255  -0.022  0.00  0.00    -0.453 OA
ATOM     13  C   UNL     1       4.149   5.517  -0.428  0.00  0.00    +0.466 C 
ATOM     14  O   UNL     1       2.777   5.440   0.001  0.00  0.00    -0.453 OA
ATOM     15  H   UNL     1       0.429  -2.561  -0.016  0.00  0.00    +0.147 HD
ENDROOT
BRANCH  10  16
ATOM     16  C   UNL     1      -1.224  -0.744   0.010  0.00  0.00    +0.103 C 
ATOM     17  N   UNL     1      -2.197  -1.330   0.016  0.00  0.00    -0.191 NA
ENDBRANCH  10  16
BRANCH  11  18
ATOM     18  C   UNL     1       2.541  -2.781  -0.037  0.00  0.00    +0.104 C 
BRANCH  18  19
ATOM     19  C   UNL     1       2.281  -4.288  -0.043  0.00  0.00    +0.037 C 
BRANCH  19  20
ATOM     20  C   UNL     1       3.616  -5.036  -0.059  0.00  0.00    +0.105 C 
BRANCH  20  21
ATOM     21  N   UNL     1       3.367  -6.480  -0.065  0.00  0.00    -0.327 N 
ATOM     22  H   UNL     1       2.457  -6.815  -0.059  0.00  0.00    +0.148 HD
BRANCH  21  23
ATOM     23  C   UNL     1       4.403  -7.342  -0.080  0.00  0.00    +0.130 C 
ATOM     24  S   UNL     1       6.009  -6.750  -0.091  0.00  0.00    -0.019 S 
BRANCH  23  25
ATOM     25  N   UNL     1       4.174  -8.670  -0.085  0.00  0.00    -0.324 N 
ATOM     26  H   UNL     1       3.264  -9.005  -0.078  0.00  0.00    +0.148 HD
BRANCH  25  27
ATOM     27  C   UNL     1       5.300  -9.607  -0.101  0.00  0.00    +0.134 C 
BRANCH  27  28
ATOM     28  C   UNL     1       4.769 -11.042  -0.104  0.00  0.00    +0.135 C 
ATOM     29  C   UNL     1       5.946 -12.036   0.002  0.00  0.00    +0.035 C 
ATOM     30  C   UNL     1       5.506 -13.171  -0.962  0.00  0.00    +0.031 C 
ATOM     31  C   UNL     1       4.755 -12.360  -2.049  0.00  0.00    +0.160 C 
ATOM     32  O   UNL     1       4.087 -11.305  -1.335  0.00  0.00    -0.375 OA
ENDBRANCH  27  28
ENDBRANCH  25  27
ENDBRANCH  23  25
ENDBRANCH  21  23
ENDBRANCH  20  21
ENDBRANCH  19  20
ENDBRANCH  18  19
ENDBRANCH  11  18
TORSDOF 9
