REMARK  Name = ZINC02030056
REMARK  7 active torsions:
REMARK  status: ('A' for Active; 'I' for Inactive)
REMARK    1  A    between atoms: C_1  and  C_2
REMARK    2  A    between atoms: C_2  and  C_3
REMARK    3  A    between atoms: C_3  and  C_4
REMARK    4  A    between atoms: C_4  and  O_5
REMARK    5  A    between atoms: O_5  and  C_6
REMARK    6  A    between atoms: C_9  and  C_12
REMARK    7  A    between atoms: C_17  and  C_30
REMARK                            x       y       z     vdW  Elec       q    Type
REMARK                         _______ _______ _______ _____ _____    ______ ____
ROOT
ATOM      1  C   UNL     1      -2.513   0.978   0.019  0.00  0.00    +0.031 C 
ATOM      2  C   UNL     1      -3.330   1.340  -1.225  0.00  0.00    +0.045 C 
ATOM      3  C   UNL     1      -4.623   0.566  -1.223  0.00  0.00    -0.029 C 
ATOM      4  C   UNL     1      -5.236   0.276  -0.041  0.00  0.00    +0.023 C 
ATOM      5  C   UNL     1      -6.548  -0.468  -0.014  0.00  0.00    +0.135 C 
ATOM      6  N   UNL     1      -6.709  -1.288  -1.213  0.00  0.00    -0.332 N 
ATOM      7  C   UNL     1      -6.171  -0.876  -2.421  0.00  0.00    +0.036 A 
ATOM      8  C   UNL     1      -5.191   0.127  -2.441  0.00  0.00    +0.007 A 
ATOM      9  C   UNL     1      -4.824   0.704  -3.734  0.00  0.00    -0.009 A 
ATOM     10  C   UNL     1      -4.069   1.873  -3.856  0.00  0.00    +0.009 A 
ATOM     11  C   UNL     1      -3.697   2.324  -5.090  0.00  0.00    +0.001 A 
ATOM     12  C   UNL     1      -4.068   1.639  -6.243  0.00  0.00    +0.001 A 
ATOM     13  C   UNL     1      -4.856   0.530  -6.167  0.00  0.00    +0.008 A 
ATOM     14  C   UNL     1      -5.300   0.076  -4.914  0.00  0.00    -0.017 A 
ATOM     15  C   UNL     1      -6.212  -0.992  -4.820  0.00  0.00    +0.010 A 
ATOM     16  C   UNL     1      -6.649  -1.428  -3.612  0.00  0.00    +0.024 A 
ATOM     17  C   UNL     1      -4.665   0.649   1.186  0.00  0.00    +0.162 C 
ATOM     18  O   UNL     1      -5.252   0.394   2.220  0.00  0.00    -0.292 OA
ATOM     19  C   UNL     1      -3.336   1.350   1.256  0.00  0.00    +0.088 C 
ATOM     20  H   UNL     1      -7.199  -2.133  -1.165  0.00  0.00    +0.147 HD
ENDROOT
BRANCH   5  21
ATOM     21  C   UNL     1      -7.682   0.521   0.069  0.00  0.00    -0.023 A 
ATOM     22  C   UNL     1      -8.133   1.153  -1.075  0.00  0.00    +0.007 A 
ATOM     23  C   UNL     1      -9.177   2.056  -1.001  0.00  0.00    +0.020 A 
ATOM     24  C   UNL     1      -9.763   2.336   0.221  0.00  0.00    +0.041 A 
ATOM     25  C   UNL     1      -9.307   1.708   1.366  0.00  0.00    +0.020 A 
ATOM     26  C   UNL     1      -8.267   0.801   1.290  0.00  0.00    +0.007 A 
ATOM     27 CL   UNL     1     -11.068   3.476   0.316  0.00  0.00    -0.084 Cl
ENDBRANCH   5  21
BRANCH   1  31
ATOM     28  C   UNL     1       1.155   3.169   0.008  0.00  0.00    +0.121 A 
ATOM     29  C   UNL     1       1.175   1.782   0.000  0.00  0.00    +0.046 A 
ATOM     30  C   UNL     1      -0.013   1.076   0.008  0.00  0.00    +0.007 A 
ATOM     31  C   UNL     1      -1.220   1.750   0.017  0.00  0.00    -0.043 A 
ATOM     32  C   UNL     1      -1.242   3.133   0.031  0.00  0.00    +0.007 A 
ATOM     33  C   UNL     1      -0.057   3.844   0.023  0.00  0.00    +0.046 A 
BRANCH  28  34
ATOM     34  O   UNL     1       2.322   3.866   0.000  0.00  0.00    -0.492 OA
BRANCH  34  35
ATOM     35  C   UNL     1       2.225   5.292   0.009  0.00  0.00    +0.229 C 
BRANCH  35  36
ATOM     36  C   UNL     1       3.630   5.898  -0.002  0.00  0.00    +0.041 C 
BRANCH  36  38
ATOM     37  C   UNL     1       4.932   8.031  -0.003  0.00  0.00    +0.004 C 
ATOM     38  C   UNL     1       3.527   7.425   0.007  0.00  0.00    -0.000 C 
ENDBRANCH  36  38
ENDBRANCH  35  36
ENDBRANCH  34  35
ENDBRANCH  28  34
ENDBRANCH   1  31
TORSDOF 6
