REMARK  Name = ZINC43629986
REMARK  7 active torsions:
REMARK  status: ('A' for Active; 'I' for Inactive)
REMARK    1  A    between atoms: C_1  and  C_2
REMARK    2  A    between atoms: C_7  and  C_8
REMARK    3  A    between atoms: C_8  and  N_9
REMARK    4  A    between atoms: C_14  and  C_23
REMARK    5  A    between atoms: C_28  and  C_29
REMARK    6  A    between atoms: C_32  and  O_35
REMARK    7  A    between atoms: O_35  and  C_36
REMARK                            x       y       z     vdW  Elec       q    Type
REMARK                         _______ _______ _______ _____ _____    ______ ____
ROOT
ATOM      1  N   UNL     1      -0.954   0.169   1.681  0.00  0.00    -0.298 N 
ATOM      2  C   UNL     1      -1.766   1.318   1.267  0.00  0.00    +0.110 C 
ATOM      3  C   UNL     1      -3.158   1.109   1.892  0.00  0.00    +0.003 C 
ATOM      4  C   UNL     1      -4.044   0.290   0.921  0.00  0.00    -0.007 C 
ATOM      5  C   UNL     1      -4.879  -0.567   1.907  0.00  0.00    -0.032 C 
ATOM      6  N   UNL     1      -3.943  -0.912   3.000  0.00  0.00    +0.394 N 
ATOM      7  C   UNL     1      -2.859   0.110   3.036  0.00  0.00    +0.018 C 
ATOM      8  C   UNL     1      -1.530  -0.500   2.695  0.00  0.00    +0.206 C 
ATOM      9  O   UNL     1      -1.045  -1.459   3.256  0.00  0.00    -0.277 OA
ATOM     10  C   UNL     1      -2.866   0.807   4.398  0.00  0.00    -0.004 C 
ATOM     11  C   UNL     1      -3.616  -0.207   5.305  0.00  0.00    -0.019 C 
ATOM     12  C   UNL     1      -4.657  -0.834   4.294  0.00  0.00    -0.077 C 
ATOM     13  H   UNL     1      -3.568  -1.838   2.861  0.00  0.00    -0.079 HD
ENDROOT
BRANCH   5  14
ATOM     14  C   UNL     1      -5.376  -1.815   1.226  0.00  0.00    -0.016 A 
ATOM     15  C   UNL     1      -4.774  -3.024   1.243  0.00  0.00    +0.107 A 
ATOM     16  N   UNL     1      -5.529  -3.877   0.518  0.00  0.00    -0.284 N 
ATOM     17  H   UNL     1      -5.337  -4.814   0.360  0.00  0.00    +0.188 HD
ATOM     18  N   UNL     1      -6.639  -3.172   0.034  0.00  0.00    -0.174 NA
ATOM     19  C   UNL     1      -6.554  -1.931   0.463  0.00  0.00    +0.094 A 
BRANCH  19  20
ATOM     20  C   UNL     1      -7.526  -0.843   0.188  0.00  0.00    +0.003 A 
ATOM     21  C   UNL     1      -8.043  -0.677  -1.096  0.00  0.00    +0.013 A 
ATOM     22  C   UNL     1      -8.946   0.334  -1.349  0.00  0.00    +0.046 A 
ATOM     23  C   UNL     1      -9.341   1.185  -0.326  0.00  0.00    +0.120 A 
ATOM     24  C   UNL     1      -8.828   1.022   0.954  0.00  0.00    +0.046 A 
ATOM     25  C   UNL     1      -7.928   0.010   1.214  0.00  0.00    +0.013 A 
BRANCH  23  26
ATOM     26  O   UNL     1     -10.231   2.181  -0.578  0.00  0.00    -0.495 OA
ATOM     27  C   UNL     1     -10.594   3.020   0.521  0.00  0.00    +0.277 C 
ENDBRANCH  23  26
ENDBRANCH  19  20
ENDBRANCH   5  14
BRANCH   1  28
ATOM     28  C   UNL     1       0.321  -0.206   1.064  0.00  0.00    +0.143 C 
BRANCH  28  35
ATOM     29  C   UNL     1       2.493  -1.060  -0.639  0.00  0.00    +0.044 C 
ATOM     30  C   UNL     1       1.115  -1.643  -0.825  0.00  0.00    -0.046 A 
ATOM     31  C   UNL     1       0.892  -2.590  -1.807  0.00  0.00    +0.003 A 
ATOM     32  C   UNL     1      -0.371  -3.125  -1.977  0.00  0.00    +0.000 A 
ATOM     33  C   UNL     1      -1.412  -2.712  -1.165  0.00  0.00    +0.000 A 
ATOM     34  C   UNL     1      -1.188  -1.765  -0.183  0.00  0.00    +0.005 A 
ATOM     35  C   UNL     1       0.076  -1.234  -0.010  0.00  0.00    -0.027 A 
ENDBRANCH  28  35
ENDBRANCH   1  28
TORSDOF 5
