REMARK  Name = ZINC46698769
REMARK  9 active torsions:
REMARK  status: ('A' for Active; 'I' for Inactive)
REMARK    1  A    between atoms: C_1  and  C_2
REMARK    2  A    between atoms: C_5  and  C_7
REMARK    3  A    between atoms: C_9  and  C_29
REMARK    4  A    between atoms: C_10  and  C_12
REMARK    5  A    between atoms: N_14  and  N_15
REMARK    6  A    between atoms: C_16  and  C_18
REMARK    7  A    between atoms: C_18  and  C_20
REMARK    8  A    between atoms: C_18  and  O_21
REMARK    9  A    between atoms: O_21  and  C_22
REMARK                            x       y       z     vdW  Elec       q    Type
REMARK                         _______ _______ _______ _____ _____    ______ ____
ROOT
ATOM      1  C   UNL     1       3.050  -6.824   0.404  0.00  0.00    +0.269 C 
ATOM      2  O   UNL     1       4.246  -6.946   0.597  0.00  0.00    -0.268 OA
ATOM      3  N   UNL     1       2.282  -7.916   0.223  0.00  0.00    -0.230 N 
ATOM      4  H   UNL     1       1.329  -7.819   0.070  0.00  0.00    +0.173 HD
ENDROOT
BRANCH   1   8
ATOM      5  C   UNL     1       0.986  -3.247   0.237  0.00  0.00    +0.144 A 
ATOM      6  N   UNL     1       2.298  -3.173   0.458  0.00  0.00    -0.240 NA
ATOM      7  C   UNL     1       3.039  -4.243   0.529  0.00  0.00    +0.058 A 
ATOM      8  C   UNL     1       2.447  -5.490   0.370  0.00  0.00    +0.098 A 
ATOM      9  S   UNL     1       0.741  -5.014   0.117  0.00  0.00    -0.059 S 
ATOM     10  C   UNL     1       4.520  -4.129   0.780  0.00  0.00    +0.067 C 
BRANCH   5  15
ATOM     11  C   UNL     1      -1.010   1.347   0.123  0.00  0.00    +0.086 C 
ATOM     12  C   UNL     1      -0.880  -0.153   0.076  0.00  0.00    +0.103 A 
ATOM     13  C   UNL     1      -1.891  -1.024  -0.128  0.00  0.00    +0.045 A 
ATOM     14  C   UNL     1      -1.336  -2.316  -0.097  0.00  0.00    +0.052 A 
ATOM     15  C   UNL     1       0.001  -2.163   0.127  0.00  0.00    +0.160 A 
ATOM     16  O   UNL     1       0.261  -0.844   0.224  0.00  0.00    -0.458 OA
ENDBRANCH   5  15
ENDBRANCH   1   8
BRANCH   3  17
ATOM     17  N   UNL     1       2.860  -9.192   0.256  0.00  0.00    -0.231 N 
ATOM     18  C   UNL     1       2.091 -10.284   0.075  0.00  0.00    +0.270 C 
ATOM     19  O   UNL     1       0.900 -10.163  -0.116  0.00  0.00    -0.270 OA
ATOM     20  H   UNL     1       3.813  -9.289   0.410  0.00  0.00    +0.173 HD
BRANCH  18  21
ATOM     21  C   UNL     1       2.713 -11.657   0.111  0.00  0.00    +0.257 C 
ATOM     22  C   UNL     1       3.683 -11.808  -1.062  0.00  0.00    +0.062 C 
BRANCH  21  23
ATOM     23  O   UNL     1       1.687 -12.647   0.011  0.00  0.00    -0.480 OA
BRANCH  23  24
ATOM     24  C   UNL     1       1.961 -13.873   0.529  0.00  0.00    +0.123 A 
ATOM     25  C   UNL     1       3.227 -14.152   1.023  0.00  0.00    +0.046 A 
ATOM     26  C   UNL     1       3.503 -15.399   1.549  0.00  0.00    +0.005 A 
ATOM     27  C   UNL     1       2.520 -16.370   1.583  0.00  0.00    +0.015 A 
ATOM     28  C   UNL     1       1.256 -16.095   1.091  0.00  0.00    +0.021 A 
ATOM     29  C   UNL     1       0.973 -14.846   0.570  0.00  0.00    +0.061 A 
ATOM     30 BR   UNL     1      -0.086 -17.426   1.138  0.00  0.00    -0.050 Br
ENDBRANCH  23  24
ENDBRANCH  21  23
ENDBRANCH  18  21
ENDBRANCH   3  17
TORSDOF 6
