REMARK  Name = ZINC16361268
REMARK  10 active torsions:
REMARK  status: ('A' for Active; 'I' for Inactive)
REMARK    1  A    between atoms: C_1  and  C_2
REMARK    2  A    between atoms: C_2  and  O_3
REMARK    3  A    between atoms: O_3  and  C_4
REMARK    4  A    between atoms: C_4  and  C_6
REMARK    5  A    between atoms: C_7  and  C_31
REMARK    6  A    between atoms: C_12  and  C_14
REMARK    7  A    between atoms: C_19  and  O_20
REMARK    8  A    between atoms: O_20  and  C_21
REMARK    9  A    between atoms: C_21  and  C_22
REMARK   10  A    between atoms: N_24  and  C_25
REMARK                            x       y       z     vdW  Elec       q    Type
REMARK                         _______ _______ _______ _____ _____    ______ ____
ROOT
ATOM      1  C   UNL     1      -3.916   2.529  -1.393  0.00  0.00    +0.083 C 
ATOM      2  C   UNL     1      -2.831   1.993  -2.025  0.00  0.00    +0.052 C 
ATOM      3  N   UNL     1      -2.645   0.632  -2.069  0.00  0.00    -0.296 N 
ATOM      4  C   UNL     1      -3.489  -0.248  -1.517  0.00  0.00    +0.135 C 
ATOM      5  S   UNL     1      -3.139  -1.919  -1.645  0.00  0.00    -0.019 S 
ATOM      6  N   UNL     1      -4.604   0.134  -0.865  0.00  0.00    -0.315 N 
ATOM      7  C   UNL     1      -4.903   1.571  -0.757  0.00  0.00    +0.145 C 
ATOM      8  H   UNL     1      -1.859   0.291  -2.524  0.00  0.00    +0.154 HD
ATOM      9  H   UNL     1      -5.199  -0.526  -0.474  0.00  0.00    +0.149 HD
ENDROOT
BRANCH   7  10
ATOM     10  C   UNL     1      -6.255   1.812  -1.378  0.00  0.00    +0.019 A 
ATOM     11  C   UNL     1      -6.691   1.012  -2.417  0.00  0.00    +0.009 A 
ATOM     12  C   UNL     1      -7.934   1.230  -2.983  0.00  0.00    +0.001 A 
ATOM     13  C   UNL     1      -8.739   2.254  -2.518  0.00  0.00    +0.004 A 
ATOM     14  C   UNL     1      -8.305   3.059  -1.483  0.00  0.00    +0.046 A 
ATOM     15  C   UNL     1      -7.061   2.840  -0.910  0.00  0.00    +0.126 A 
BRANCH  15  16
ATOM     16  O   UNL     1      -6.632   3.630   0.109  0.00  0.00    -0.482 OA
BRANCH  16  17
ATOM     17  C   UNL     1      -7.486   4.708   0.498  0.00  0.00    +0.324 C 
BRANCH  17  18
ATOM     18  C   UNL     1      -6.855   5.463   1.639  0.00  0.00    +0.255 C 
ATOM     19  O   UNL     1      -5.749   5.156   2.031  0.00  0.00    -0.272 OA
ATOM     20  N   UNL     1      -7.519   6.479   2.225  0.00  0.00    -0.283 N 
ATOM     21  H   UNL     1      -8.431   6.677   1.961  0.00  0.00    +0.155 HD
BRANCH  20  22
ATOM     22  C   UNL     1      -6.894   7.247   3.213  0.00  0.00    +0.033 A 
ATOM     23  C   UNL     1      -6.027   6.646   4.117  0.00  0.00    +0.023 A 
ATOM     24  C   UNL     1      -5.408   7.408   5.088  0.00  0.00    +0.002 A 
ATOM     25  C   UNL     1      -5.657   8.766   5.167  0.00  0.00    +0.000 A 
ATOM     26  C   UNL     1      -6.523   9.366   4.272  0.00  0.00    +0.002 A 
ATOM     27  C   UNL     1      -7.142   8.611   3.295  0.00  0.00    +0.023 A 
ENDBRANCH  20  22
ENDBRANCH  17  18
ENDBRANCH  16  17
ENDBRANCH  15  16
ENDBRANCH   7  10
BRANCH   2  28
ATOM     28  C   UNL     1      -1.843   2.885  -2.664  0.00  0.00    -0.003 A 
ATOM     29  C   UNL     1      -1.327   3.978  -1.962  0.00  0.00    +0.010 A 
ATOM     30  C   UNL     1      -0.400   4.804  -2.562  0.00  0.00    +0.001 A 
ATOM     31  C   UNL     1       0.015   4.556  -3.859  0.00  0.00    +0.000 A 
ATOM     32  C   UNL     1      -0.496   3.479  -4.562  0.00  0.00    +0.001 A 
ATOM     33  C   UNL     1      -1.423   2.645  -3.974  0.00  0.00    +0.010 A 
ENDBRANCH   2  28
BRANCH   1  34
ATOM     34  C   UNL     1      -4.113   3.923  -1.338  0.00  0.00    +0.339 C 
ATOM     35  O   UNL     1      -3.901   4.527  -0.302  0.00  0.00    -0.245 OA
BRANCH  34  36
ATOM     36  O   UNL     1      -4.538   4.588  -2.433  0.00  0.00    -0.462 OA
BRANCH  36  38
ATOM     37  C   UNL     1      -5.340   6.551  -3.594  0.00  0.00    +0.048 C 
ATOM     38  C   UNL     1      -4.755   5.994  -2.294  0.00  0.00    +0.229 C 
ENDBRANCH  36  38
ENDBRANCH  34  36
ENDBRANCH   1  34
TORSDOF 9
