REMARK  Name = ZINC08769628
REMARK  6 active torsions:
REMARK  status: ('A' for Active; 'I' for Inactive)
REMARK    1  A    between atoms: C_1  and  C_2
REMARK    2  A    between atoms: C_5  and  C_8
REMARK    3  A    between atoms: N_26  and  N_27
REMARK    4  A    between atoms: C_28  and  C_29
REMARK    5  A    between atoms: C_32  and  O_35
REMARK    6  A    between atoms: O_35  and  C_36
REMARK                            x       y       z     vdW  Elec       q    Type
REMARK                         _______ _______ _______ _____ _____    ______ ____
ROOT
ATOM      1  C   UNL     1       3.287   2.131  -1.335  0.00  0.00    +0.080 C 
ATOM      2  C   UNL     1       1.940   0.462  -0.082  0.00  0.00    -0.020 C 
ATOM      3  C   UNL     1       0.576   0.385   0.579  0.00  0.00    +0.004 A 
ATOM      4  C   UNL     1      -0.237   1.457   0.729  0.00  0.00    -0.022 A 
ATOM      5  C   UNL     1      -1.448   0.990   1.364  0.00  0.00    +0.003 A 
ATOM      6  C   UNL     1      -2.627   1.632   1.756  0.00  0.00    +0.010 A 
ATOM      7  C   UNL     1      -3.591   0.855   2.348  0.00  0.00    +0.001 A 
ATOM      8  C   UNL     1      -3.418  -0.504   2.553  0.00  0.00    +0.002 A 
ATOM      9  C   UNL     1      -2.263  -1.167   2.175  0.00  0.00    +0.026 A 
ATOM     10  C   UNL     1      -1.266  -0.403   1.571  0.00  0.00    +0.047 A 
ATOM     11  N   UNL     1      -0.031  -0.730   1.087  0.00  0.00    -0.359 N 
ATOM     12  H   UNL     1       0.357  -1.619   1.102  0.00  0.00    +0.166 HD
ATOM     13  C   UNL     1       0.132   2.858   0.288  0.00  0.00    +0.031 C 
ATOM     14  C   UNL     1       1.645   2.849   0.077  0.00  0.00    +0.029 C 
ATOM     15  C   UNL     1       2.158   4.041  -0.686  0.00  0.00    +0.221 C 
ATOM     16  O   UNL     1       1.759   5.183  -0.593  0.00  0.00    -0.276 OA
ATOM     17  N   UNL     1       3.153   3.596  -1.500  0.00  0.00    -0.204 N 
ATOM     18  N   UNL     1       1.969   1.779  -0.826  0.00  0.00    +0.408 N 
ATOM     19  H   UNL     1       1.295   1.738  -1.600  0.00  0.00    -0.077 HD
ENDROOT
BRANCH   1  24
ATOM     20  C   UNL     1       7.391   0.877   2.535  0.00  0.00    +0.044 C 
ATOM     21  C   UNL     1       6.321   1.204   1.526  0.00  0.00    -0.050 A 
ATOM     22  C   UNL     1       6.237   0.483   0.349  0.00  0.00    +0.003 A 
ATOM     23  C   UNL     1       5.255   0.783  -0.576  0.00  0.00    +0.004 A 
ATOM     24  C   UNL     1       4.357   1.804  -0.326  0.00  0.00    -0.042 A 
ATOM     25  C   UNL     1       4.445   2.528   0.848  0.00  0.00    +0.004 A 
ATOM     26  C   UNL     1       5.423   2.225   1.776  0.00  0.00    +0.003 A 
ENDBRANCH   1  24
BRANCH  17  27
ATOM     27  N   UNL     1       3.925   4.394  -2.354  0.00  0.00    -0.186 NA
ATOM     28  C   UNL     1       3.715   5.673  -2.414  0.00  0.00    +0.138 C 
BRANCH  28  29
ATOM     29  C   UNL     1       4.527   6.513  -3.313  0.00  0.00    -0.005 A 
ATOM     30  C   UNL     1       5.529   5.935  -4.098  0.00  0.00    +0.013 A 
ATOM     31  C   UNL     1       6.282   6.723  -4.941  0.00  0.00    +0.046 A 
ATOM     32  C   UNL     1       6.055   8.091  -5.003  0.00  0.00    +0.120 A 
ATOM     33  C   UNL     1       5.064   8.672  -4.221  0.00  0.00    +0.046 A 
ATOM     34  C   UNL     1       4.303   7.891  -3.379  0.00  0.00    +0.013 A 
BRANCH  32  35
ATOM     35  O   UNL     1       6.803   8.865  -5.831  0.00  0.00    -0.495 OA
ATOM     36  C   UNL     1       7.805   8.204  -6.608  0.00  0.00    +0.277 C 
ENDBRANCH  32  35
ENDBRANCH  28  29
ENDBRANCH  17  27
TORSDOF 4
