REMARK  Name = ZINC35190437
REMARK  11 active torsions:
REMARK  status: ('A' for Active; 'I' for Inactive)
REMARK    1  A    between atoms: C_1  and  C_2
REMARK    2  A    between atoms: C_2  and  C_3
REMARK    3  A    between atoms: C_3  and  C_4
REMARK    4  A    between atoms: C_5  and  C_32
REMARK    5  A    between atoms: C_6  and  C_11
REMARK    6  A    between atoms: C_8  and  C_10
REMARK    7  A    between atoms: C_17  and  C_20
REMARK    8  A    between atoms: N_23  and  C_24
REMARK    9  A    between atoms: C_32  and  O_34
REMARK   10  A    between atoms: O_34  and  C_35
REMARK   11  A    between atoms: C_35  and  C_36
REMARK                            x       y       z     vdW  Elec       q    Type
REMARK                         _______ _______ _______ _____ _____    ______ ____
ROOT
ATOM      1  C   UNL     1       2.412  -4.878  -0.782  0.00  0.00    +0.266 C 
ATOM      2  O   UNL     1       3.483  -4.309  -0.710  0.00  0.00    -0.268 OA
ATOM      3  N   UNL     1       2.358  -6.223  -0.721  0.00  0.00    -0.293 N 
ATOM      4  C   UNL     1       1.076  -6.927  -0.857  0.00  0.00    +0.127 C 
ATOM      5  C   UNL     1       0.879  -7.829   0.367  0.00  0.00    +0.128 C 
ATOM      6  N   UNL     1       2.103  -8.618   0.570  0.00  0.00    -0.280 N 
ATOM      7  C   UNL     1       3.385  -7.914   0.706  0.00  0.00    +0.092 C 
ATOM      8  C   UNL     1       3.582  -7.012  -0.524  0.00  0.00    +0.130 C 
ATOM      9  C   UNL     1       3.372  -7.064   1.978  0.00  0.00    +0.030 C 
ATOM     10  C   UNL     1       2.049  -9.964   0.630  0.00  0.00    +0.307 C 
ATOM     11  O   UNL     1       3.051 -10.601   0.890  0.00  0.00    -0.252 OA
ATOM     12  N   UNL     1       0.884 -10.603   0.402  0.00  0.00    -0.268 N 
ATOM     13  H   UNL     1       0.071 -10.093   0.263  0.00  0.00    +0.156 HD
ENDROOT
BRANCH  12  14
ATOM     14  C   UNL     1       0.849 -12.002   0.364  0.00  0.00    +0.053 A 
ATOM     15  C   UNL     1       1.748 -12.741   1.120  0.00  0.00    +0.026 A 
ATOM     16  C   UNL     1       1.712 -14.121   1.082  0.00  0.00    +0.022 A 
ATOM     17  C   UNL     1       0.779 -14.768   0.290  0.00  0.00    +0.042 A 
ATOM     18  C   UNL     1      -0.119 -14.035  -0.465  0.00  0.00    +0.041 A 
ATOM     19  C   UNL     1      -0.090 -12.654  -0.426  0.00  0.00    +0.064 A 
ATOM     20 CL   UNL     1      -1.222 -11.734  -1.367  0.00  0.00    -0.082 Cl
ATOM     21 CL   UNL     1       0.736 -16.503   0.244  0.00  0.00    -0.083 Cl
ENDBRANCH  12  14
BRANCH   1  24
ATOM     22  C   UNL     1      -0.029  -1.999  -0.987  0.00  0.00    +0.060 A 
ATOM     23  C   UNL     1       1.181  -2.687  -0.833  0.00  0.00    +0.111 A 
ATOM     24  C   UNL     1       1.161  -4.090  -0.935  0.00  0.00    +0.143 A 
ATOM     25  N   UNL     1       0.004  -4.698  -1.173  0.00  0.00    -0.227 NA
ATOM     26  C   UNL     1      -1.107  -4.005  -1.311  0.00  0.00    +0.127 A 
ATOM     27  N   UNL     1      -1.132  -2.689  -1.216  0.00  0.00    -0.236 NA
ATOM     28  C   UNL     1      -2.395  -4.740  -1.580  0.00  0.00    +0.088 C 
BRANCH  23  29
ATOM     29  C   UNL     1       2.441  -1.960  -0.570  0.00  0.00    +0.343 C 
ATOM     30  O   UNL     1       2.785  -1.735   0.573  0.00  0.00    -0.245 OA
BRANCH  29  31
ATOM     31  O   UNL     1       3.208  -1.548  -1.597  0.00  0.00    -0.461 OA
BRANCH  31  32
ATOM     32  C   UNL     1       4.412  -0.851  -1.270  0.00  0.00    +0.229 C 
ATOM     33  C   UNL     1       5.144  -0.466  -2.557  0.00  0.00    +0.048 C 
ENDBRANCH  31  32
ENDBRANCH  29  31
ENDBRANCH  23  29
BRANCH  22  34
ATOM     34  C   UNL     1      -0.074  -0.496  -0.887  0.00  0.00    +0.056 C 
BRANCH  34  36
ATOM     35  C   UNL     1      -0.366   1.437   0.668  0.00  0.00    +0.004 C 
ATOM     36  C   UNL     1      -0.321  -0.089   0.567  0.00  0.00    +0.003 C 
ENDBRANCH  34  36
ENDBRANCH  22  34
ENDBRANCH   1  24
TORSDOF 7
