REMARK  Name = ZINC07974446
REMARK  5 active torsions:
REMARK  status: ('A' for Active; 'I' for Inactive)
REMARK    1  A    between atoms: C_4  and  C_7
REMARK    2  A    between atoms: C_7  and  C_8
REMARK    3  A    between atoms: C_7  and  N_47
REMARK    4  A    between atoms: C_14  and  C_15
REMARK    5  A    between atoms: C_14  and  N_47
REMARK                            x       y       z     vdW  Elec       q    Type
REMARK                         _______ _______ _______ _____ _____    ______ ____
ROOT
ATOM      1  N   UNL     1      -0.620   1.504   4.875  0.00  0.00    +0.392 N 
ATOM      2  H   UNL     1      -0.601   0.479   4.935  0.00  0.00    -0.084 HD
ATOM      3  H   UNL     1       0.338   1.868   4.933  0.00  0.00    -0.084 HD
ENDROOT
BRANCH   1   4
ATOM      4  C   UNL     1      -1.413   2.042   5.997  0.00  0.00    -0.009 C 
BRANCH   4   8
ATOM      5  C   UNL     1      -4.643  -0.616   6.863  0.00  0.00    +0.000 A 
ATOM      6  C   UNL     1      -4.843   0.751   6.905  0.00  0.00    +0.000 A 
ATOM      7  C   UNL     1      -3.797   1.611   6.625  0.00  0.00    +0.002 A 
ATOM      8  C   UNL     1      -2.553   1.104   6.302  0.00  0.00    -0.057 A 
ATOM      9  C   UNL     1      -2.354  -0.263   6.254  0.00  0.00    +0.002 A 
ATOM     10  C   UNL     1      -3.398  -1.123   6.539  0.00  0.00    +0.000 A 
ENDBRANCH   4   8
BRANCH   4  11
ATOM     11  C   UNL     1      -0.529   2.171   7.210  0.00  0.00    -0.057 A 
ATOM     12  C   UNL     1       0.397   1.186   7.499  0.00  0.00    +0.002 A 
ATOM     13  C   UNL     1       1.211   1.307   8.610  0.00  0.00    +0.000 A 
ATOM     14  C   UNL     1       1.092   2.408   9.437  0.00  0.00    +0.000 A 
ATOM     15  C   UNL     1       0.161   3.390   9.152  0.00  0.00    +0.000 A 
ATOM     16  C   UNL     1      -0.649   3.272   8.038  0.00  0.00    +0.002 A 
ENDBRANCH   4  11
ENDBRANCH   1   4
BRANCH   1  17
ATOM     17  C   UNL     1      -1.216   1.905   3.587  0.00  0.00    +0.017 C 
BRANCH  17  18
ATOM     18  C   UNL     1      -0.387   1.342   2.462  0.00  0.00    +0.203 C 
ATOM     19  O   UNL     1       0.598   0.677   2.708  0.00  0.00    -0.277 OA
ATOM     20  N   UNL     1      -0.738   1.578   1.182  0.00  0.00    -0.272 N 
ATOM     21  C   UNL     1      -0.013   1.086   0.008  0.00  0.00    +0.118 C 
ATOM     22  C   UNL     1      -0.797   1.615  -1.204  0.00  0.00    +0.056 C 
ATOM     23  C   UNL     1      -1.947   2.393  -0.603  0.00  0.00    -0.024 A 
ATOM     24  C   UNL     1      -1.849   2.327   0.778  0.00  0.00    +0.039 A 
ATOM     25  C   UNL     1      -2.810   2.975   1.556  0.00  0.00    +0.024 A 
ATOM     26  C   UNL     1      -3.839   3.670   0.955  0.00  0.00    +0.002 A 
ATOM     27  C   UNL     1      -3.927   3.729  -0.423  0.00  0.00    +0.000 A 
ATOM     28  C   UNL     1      -2.979   3.089  -1.201  0.00  0.00    +0.005 A 
ENDBRANCH  17  18
ENDBRANCH   1  17
TORSDOF 5
