REMARK  Name = ZINC39951226
REMARK  7 active torsions:
REMARK  status: ('A' for Active; 'I' for Inactive)
REMARK    1  A    between atoms: C_1  and  C_2
REMARK    2  A    between atoms: C_2  and  C_3
REMARK    3  A    between atoms: C_3  and  C_4
REMARK    4  A    between atoms: C_9  and  C_28
REMARK    5  A    between atoms: C_10  and  O_12
REMARK    6  A    between atoms: C_16  and  C_18
REMARK    7  A    between atoms: C_28  and  C_29
REMARK                            x       y       z     vdW  Elec       q    Type
REMARK                         _______ _______ _______ _____ _____    ______ ____
ROOT
ATOM      1  C   UNL     1       0.708  -2.114   1.376  0.00  0.00    +0.023 C 
ATOM      2  C   UNL     1       1.471  -2.689   0.174  0.00  0.00    +0.097 C 
ATOM      3  N   UNL     1       1.390  -4.135   0.230  0.00  0.00    -0.283 NA
ATOM      4  C   UNL     1       2.374  -4.803   1.038  0.00  0.00    +0.087 C 
ATOM      5  C   UNL     1       1.917  -5.094   2.433  0.00  0.00    +0.026 C 
ATOM      6  C   UNL     1       1.014  -4.050   3.034  0.00  0.00    +0.011 C 
ATOM      7  C   UNL     1       1.319  -2.627   2.663  0.00  0.00    +0.131 C 
ATOM      8  C   UNL     1      -0.443  -4.417   2.734  0.00  0.00    +0.095 C 
ATOM      9  N   UNL     1      -0.776  -4.021   1.364  0.00  0.00    -0.282 NA
ATOM     10  C   UNL     1      -0.755  -2.553   1.251  0.00  0.00    +0.097 C 
ATOM     11  C   UNL     1       0.038  -4.665   0.340  0.00  0.00    +0.160 C 
ENDROOT
BRANCH  11  12
ATOM     12  C   UNL     1       0.124  -6.136   0.653  0.00  0.00    +0.009 A 
ATOM     13  C   UNL     1      -0.669  -6.823   1.490  0.00  0.00    +0.090 A 
ATOM     14  N   UNL     1      -0.291  -8.137   1.520  0.00  0.00    -0.360 N 
ATOM     15  H   UNL     1      -0.716  -8.828   2.052  0.00  0.00    +0.165 HD
ATOM     16  C   UNL     1       0.783  -8.334   0.680  0.00  0.00    +0.047 A 
ATOM     17  C   UNL     1       1.086  -7.091   0.096  0.00  0.00    +0.006 A 
ATOM     18  C   UNL     1       2.139  -6.987  -0.814  0.00  0.00    +0.010 A 
ATOM     19  C   UNL     1       2.870  -8.097  -1.136  0.00  0.00    +0.001 A 
ATOM     20  C   UNL     1       2.572  -9.326  -0.565  0.00  0.00    +0.002 A 
ATOM     21  C   UNL     1       1.542  -9.449   0.343  0.00  0.00    +0.026 A 
ENDBRANCH  11  12
BRANCH   7  22
ATOM     22  O   UNL     1       0.872  -1.787   3.729  0.00  0.00    -0.391 OA
ATOM     23  H   UNL     1      -0.089  -1.755   3.828  0.00  0.00    +0.210 HD
ENDBRANCH   7  22
BRANCH   6  24
ATOM     24  C   UNL     1       1.170  -4.154   4.552  0.00  0.00    +0.007 C 
ATOM     25  C   UNL     1       0.887  -5.590   4.997  0.00  0.00    +0.004 C 
ENDBRANCH   6  24
BRANCH   1  26
ATOM     26  C   UNL     1       0.786  -0.586   1.346  0.00  0.00    +0.012 C 
BRANCH  26  28
ATOM     27  C   UNL     1       0.247   1.459   0.016  0.00  0.00    +0.004 C 
ATOM     28  C   UNL     1       0.169  -0.069   0.045  0.00  0.00    -0.003 C 
ENDBRANCH  26  28
ENDBRANCH   1  26
TORSDOF 5
