REMARK  Name = ZINC38650584
REMARK  10 active torsions:
REMARK  status: ('A' for Active; 'I' for Inactive)
REMARK    1  A    between atoms: C_1  and  C_2
REMARK    2  A    between atoms: C_2  and  C_3
REMARK    3  A    between atoms: C_3  and  O_4
REMARK    4  A    between atoms: O_4  and  C_5
REMARK    5  A    between atoms: C_8  and  C_11
REMARK    6  A    between atoms: C_16  and  O_25
REMARK    7  A    between atoms: C_20  and  N_24
REMARK    8  A    between atoms: C_21  and  C_22
REMARK    9  A    between atoms: O_25  and  C_26
REMARK   10  A    between atoms: C_26  and  C_28
REMARK                            x       y       z     vdW  Elec       q    Type
REMARK                         _______ _______ _______ _____ _____    ______ ____
ROOT
ATOM      1  C   UNL     1      -6.437  -4.543   0.011  0.00  0.00    +0.098 C 
ATOM      2  C   UNL     1      -6.548  -5.408  -1.216  0.00  0.00    +0.008 A 
ATOM      3  C   UNL     1      -6.916  -4.837  -2.421  0.00  0.00    +0.012 A 
ATOM      4  C   UNL     1      -7.023  -5.615  -3.557  0.00  0.00    +0.047 A 
ATOM      5  C   UNL     1      -6.760  -6.976  -3.492  0.00  0.00    +0.135 A 
ATOM      6  C   UNL     1      -6.390  -7.551  -2.287  0.00  0.00    +0.093 A 
ATOM      7  C   UNL     1      -6.284  -6.767  -1.146  0.00  0.00    +0.138 A 
ATOM      8  O   UNL     1      -5.922  -7.346   0.026  0.00  0.00    -0.441 OA
ATOM      9  C   UNL     1      -6.179  -6.723   1.188  0.00  0.00    +0.199 C 
ATOM     10  C   UNL     1      -6.430  -5.398   1.247  0.00  0.00    +0.098 C 
ENDROOT
BRANCH   1  14
ATOM     11  C   UNL     1      -2.811  -2.288  -0.169  0.00  0.00    +0.121 A 
ATOM     12  C   UNL     1      -4.034  -1.635  -0.113  0.00  0.00    +0.046 A 
ATOM     13  C   UNL     1      -5.205  -2.366  -0.055  0.00  0.00    +0.008 A 
ATOM     14  C   UNL     1      -5.158  -3.748  -0.052  0.00  0.00    -0.034 A 
ATOM     15  C   UNL     1      -3.941  -4.401  -0.107  0.00  0.00    +0.008 A 
ATOM     16  C   UNL     1      -2.768  -3.674  -0.172  0.00  0.00    +0.046 A 
BRANCH  11  17
ATOM     17  O   UNL     1      -1.658  -1.571  -0.226  0.00  0.00    -0.492 OA
BRANCH  17  18
ATOM     18  C   UNL     1      -1.779  -0.147  -0.219  0.00  0.00    +0.229 C 
BRANCH  18  20
ATOM     19  C   UNL     1      -0.516   2.008  -0.282  0.00  0.00    +0.007 C 
ATOM     20  C   UNL     1      -0.387   0.483  -0.289  0.00  0.00    +0.038 C 
ENDBRANCH  18  20
ENDBRANCH  17  18
ENDBRANCH  11  17
ENDBRANCH   1  14
BRANCH   9  21
ATOM     21  N   UNL     1      -6.187  -7.457   2.349  0.00  0.00    -0.328 N 
ATOM     22  H   UNL     1      -6.008  -8.409   2.321  0.00  0.00    +0.145 HD
ATOM     23  H   UNL     1      -6.371  -7.021   3.196  0.00  0.00    +0.145 HD
ENDBRANCH   9  21
BRANCH  10  24
ATOM     24  C   UNL     1      -6.697  -4.795   2.518  0.00  0.00    +0.101 C 
ATOM     25  N   UNL     1      -6.908  -4.317   3.527  0.00  0.00    -0.191 NA
ENDBRANCH  10  24
BRANCH   5  26
ATOM     26  O   UNL     1      -6.864  -7.743  -4.609  0.00  0.00    -0.422 OA
BRANCH  26  27
ATOM     27  C   UNL     1      -5.954  -7.565  -5.586  0.00  0.00    +0.344 C 
ATOM     28  O   UNL     1      -5.015  -6.816  -5.412  0.00  0.00    -0.245 OA
BRANCH  27  29
ATOM     29  C   UNL     1      -6.099  -8.282  -6.870  0.00  0.00    +0.059 A 
ATOM     30  C   UNL     1      -7.181  -9.141  -7.075  0.00  0.00    +0.015 A 
ATOM     31  C   UNL     1      -7.310  -9.807  -8.276  0.00  0.00    +0.001 A 
ATOM     32  C   UNL     1      -6.371  -9.626  -9.276  0.00  0.00    +0.000 A 
ATOM     33  C   UNL     1      -5.296  -8.777  -9.079  0.00  0.00    +0.001 A 
ATOM     34  C   UNL     1      -5.158  -8.101  -7.885  0.00  0.00    +0.015 A 
ENDBRANCH  27  29
ENDBRANCH  26  27
ENDBRANCH   5  26
TORSDOF 9
