REMARK  Name = ZINC03307053
REMARK  5 active torsions:
REMARK  status: ('A' for Active; 'I' for Inactive)
REMARK    1  A    between atoms: C_8  and  C_10
REMARK    2  A    between atoms: C_13  and  C_15
REMARK    3  A    between atoms: N_17  and  C_18
REMARK    4  A    between atoms: C_21  and  S_24
REMARK    5  A    between atoms: S_24  and  N_27
REMARK                            x       y       z     vdW  Elec       q    Type
REMARK                         _______ _______ _______ _____ _____    ______ ____
ROOT
ATOM      1  C   UNL     1       0.580   4.420  -0.565  0.00  0.00    +0.255 C 
ATOM      2  O   UNL     1       0.090   5.403  -1.090  0.00  0.00    -0.269 OA
ATOM      3  N   UNL     1       1.797   4.498   0.009  0.00  0.00    -0.281 N 
ATOM      4  H   UNL     1       2.158   3.734   0.485  0.00  0.00    +0.155 HD
ENDROOT
BRANCH   3   5
ATOM      5  C   UNL     1       2.538   5.680  -0.083  0.00  0.00    +0.034 A 
ATOM      6  C   UNL     1       3.922   5.627  -0.186  0.00  0.00    +0.025 A 
ATOM      7  C   UNL     1       4.652   6.795  -0.282  0.00  0.00    +0.030 A 
ATOM      8  C   UNL     1       4.006   8.018  -0.263  0.00  0.00    +0.109 A 
ATOM      9  C   UNL     1       2.629   8.075  -0.154  0.00  0.00    +0.030 A 
ATOM     10  C   UNL     1       1.893   6.910  -0.064  0.00  0.00    +0.025 A 
BRANCH   8  11
ATOM     11  S   UNL     1       4.941   9.508  -0.377  0.00  0.00    +0.075 S 
ATOM     12  O   UNL     1       6.164   9.171  -1.019  0.00  0.00    -0.150 OA
ATOM     13  O   UNL     1       4.062  10.501  -0.886  0.00  0.00    -0.150 OA
BRANCH  11  14
ATOM     14  N   UNL     1       5.327   9.963   1.167  0.00  0.00    -0.184 N 
ATOM     15  C   UNL     1       6.160   9.169   1.936  0.00  0.00    +0.235 A 
ATOM     16  N   UNL     1       6.395   7.922   1.556  0.00  0.00    -0.222 NA
ATOM     17  C   UNL     1       7.191   7.138   2.265  0.00  0.00    +0.116 A 
ATOM     18  C   UNL     1       7.771   7.633   3.422  0.00  0.00    +0.039 A 
ATOM     19  C   UNL     1       7.500   8.940   3.793  0.00  0.00    +0.116 A 
ATOM     20  N   UNL     1       6.699   9.673   3.036  0.00  0.00    -0.222 NA
ATOM     21  H   UNL     1       4.969  10.787   1.534  0.00  0.00    +0.177 HD
ENDBRANCH  11  14
ENDBRANCH   8  11
ENDBRANCH   3   5
BRANCH   1  25
ATOM     22  C   UNL     1      -1.127   0.645  -0.305  0.00  0.00    +0.045 A 
ATOM     23  C   UNL     1      -1.897   1.596  -0.959  0.00  0.00    +0.019 A 
ATOM     24  C   UNL     1      -1.406   2.864  -1.086  0.00  0.00    +0.021 A 
ATOM     25  C   UNL     1      -0.155   3.151  -0.557  0.00  0.00    +0.075 A 
ATOM     26  S   UNL     1       0.329   1.579   0.137  0.00  0.00    -0.082 S 
BRANCH  22  34
ATOM     27  C   UNL     1      -0.973  -5.236   1.480  0.00  0.00    +0.002 A 
ATOM     28  C   UNL     1      -2.225  -5.515   0.948  0.00  0.00    +0.001 A 
ATOM     29  C   UNL     1      -2.929  -4.510   0.311  0.00  0.00    +0.017 A 
ATOM     30  C   UNL     1      -2.378  -3.256   0.215  0.00  0.00    +0.040 A 
ATOM     31  C   UNL     1      -1.105  -2.940   0.747  0.00  0.00    +0.079 A 
ATOM     32  C   UNL     1      -0.418  -3.998   1.391  0.00  0.00    +0.029 A 
ATOM     33  N   UNL     1      -0.700  -1.673   0.578  0.00  0.00    -0.239 NA
ATOM     34  C   UNL     1      -1.431  -0.771  -0.043  0.00  0.00    +0.116 A 
ATOM     35  S   UNL     1      -2.893  -1.704  -0.479  0.00  0.00    -0.067 S 
ENDBRANCH  22  34
ENDBRANCH   1  25
TORSDOF 5
