REMARK  Name = ZINC57312063
REMARK  7 active torsions:
REMARK  status: ('A' for Active; 'I' for Inactive)
REMARK    1  A    between atoms: C_4  and  C_7
REMARK    2  A    between atoms: C_7  and  C_8
REMARK    3  A    between atoms: N_10  and  C_11
REMARK    4  A    between atoms: C_11  and  C_12
REMARK    5  A    between atoms: N_14  and  C_15
REMARK    6  A    between atoms: C_15  and  C_17
REMARK    7  A    between atoms: C_15  and  C_24
REMARK                            x       y       z     vdW  Elec       q    Type
REMARK                         _______ _______ _______ _____ _____    ______ ____
ROOT
ATOM      1  C   UNL     1       7.079  -2.588   2.966  0.00  0.00    +0.231 C 
ATOM      2  O   UNL     1       7.597  -2.879   1.909  0.00  0.00    -0.274 OA
ATOM      3  N   UNL     1       7.679  -2.923   4.126  0.00  0.00    -0.303 N 
ATOM      4  H   UNL     1       7.265  -2.691   4.971  0.00  0.00    +0.150 HD
ENDROOT
BRANCH   1   5
ATOM      5  C   UNL     1       5.764  -1.853   2.984  0.00  0.00    +0.200 C 
BRANCH   5   8
ATOM      6  C   UNL     1       4.164  -0.959   1.377  0.00  0.00    +0.218 C 
ATOM      7  O   UNL     1       3.486  -0.579   2.308  0.00  0.00    -0.275 OA
ATOM      8  N   UNL     1       5.323  -1.607   1.608  0.00  0.00    -0.306 N 
ATOM      9  H   UNL     1       5.866  -1.911   0.864  0.00  0.00    +0.149 HD
BRANCH   6  10
ATOM     10  C   UNL     1       3.711  -0.707  -0.038  0.00  0.00    +0.130 C 
BRANCH  10  14
ATOM     11  C   UNL     1      -0.017   1.378   0.010  0.00  0.00    +0.000 A 
ATOM     12  C   UNL     1       1.171   2.086   0.002  0.00  0.00    +0.000 A 
ATOM     13  C   UNL     1       2.377   1.411  -0.013  0.00  0.00    +0.004 A 
ATOM     14  C   UNL     1       2.396   0.029  -0.020  0.00  0.00    -0.039 A 
ATOM     15  C   UNL     1       1.208  -0.679  -0.012  0.00  0.00    +0.004 A 
ATOM     16  C   UNL     1       0.002  -0.004   0.002  0.00  0.00    +0.000 A 
ENDBRANCH  10  14
ENDBRANCH   6  10
ENDBRANCH   5   8
ENDBRANCH   1   5
BRANCH   3  17
ATOM     17  C   UNL     1       8.958  -3.638   4.109  0.00  0.00    +0.134 C 
BRANCH  17  18
ATOM     18  C   UNL     1       9.117  -4.414   5.391  0.00  0.00    -0.023 A 
ATOM     19  C   UNL     1       8.713  -3.857   6.590  0.00  0.00    +0.007 A 
ATOM     20  C   UNL     1       8.859  -4.568   7.766  0.00  0.00    +0.020 A 
ATOM     21  C   UNL     1       9.408  -5.837   7.744  0.00  0.00    +0.041 A 
ATOM     22  C   UNL     1       9.811  -6.394   6.543  0.00  0.00    +0.020 A 
ATOM     23  C   UNL     1       9.660  -5.685   5.367  0.00  0.00    +0.007 A 
ATOM     24 CL   UNL     1       9.591  -6.731   9.221  0.00  0.00    -0.084 Cl
ENDBRANCH  17  18
BRANCH  17  25
ATOM     25  C   UNL     1      10.086  -2.648   3.978  0.00  0.00    -0.016 A 
ATOM     26  C   UNL     1      11.171  -2.923   3.167  0.00  0.00    +0.013 A 
ATOM     27  C   UNL     1      12.169  -2.011   3.072  0.00  0.00    +0.045 A 
ATOM     28  S   UNL     1      11.586  -0.712   4.149  0.00  0.00    -0.105 S 
ATOM     29  C   UNL     1      10.049  -1.471   4.649  0.00  0.00    +0.051 A 
ENDBRANCH  17  25
ENDBRANCH   3  17
TORSDOF 7
