REMARK  Name = ZINC63991390
REMARK  9 active torsions:
REMARK  status: ('A' for Active; 'I' for Inactive)
REMARK    1  A    between atoms: C_1  and  C_2
REMARK    2  A    between atoms: C_2  and  N_3
REMARK    3  A    between atoms: N_3  and  C_4
REMARK    4  A    between atoms: N_3  and  C_6
REMARK    5  A    between atoms: C_4  and  C_5
REMARK    6  A    between atoms: C_9  and  C_12
REMARK    7  A    between atoms: C_15  and  C_21
REMARK    8  A    between atoms: C_18  and  C_20
REMARK    9  A    between atoms: C_23  and  C_34
REMARK                            x       y       z     vdW  Elec       q    Type
REMARK                         _______ _______ _______ _____ _____    ______ ____
ROOT
ATOM      1  C   UNL     1       1.561  -5.895   1.281  0.00  0.00    +0.136 C 
ATOM      2  C   UNL     1       1.785  -6.341  -0.178  0.00  0.00    +0.083 C 
ATOM      3  C   UNL     1       3.076  -7.125  -0.122  0.00  0.00    +0.055 C 
ATOM      4  N   UNL     1       3.515  -7.145   1.069  0.00  0.00    -0.185 NA
ATOM      5  N   UNL     1       2.719  -6.462   1.992  0.00  0.00    -0.186 N 
ATOM      6  C   UNL     1       2.968  -6.340   3.311  0.00  0.00    +0.232 C 
ATOM      7  O   UNL     1       2.203  -5.719   4.018  0.00  0.00    -0.274 OA
ATOM      8  C   UNL     1       4.198  -6.975   3.908  0.00  0.00    +0.111 C 
ENDROOT
BRANCH   3   9
ATOM      9  C   UNL     1       3.741  -7.786  -1.302  0.00  0.00    +0.152 C 
ATOM     10  C   UNL     1       4.879  -8.640  -0.777  0.00  0.00    -0.014 C 
ATOM     11  C   UNL     1       6.159  -8.360  -1.263  0.00  0.00    +0.002 A 
ATOM     12  C   UNL     1       7.274  -9.107  -0.828  0.00  0.00    +0.030 A 
ATOM     13  C   UNL     1       8.510  -8.813  -1.317  0.00  0.00    +0.042 A 
ATOM     14  C   UNL     1       8.699  -7.787  -2.241  0.00  0.00    +0.022 A 
ATOM     15  C   UNL     1       7.661  -7.032  -2.698  0.00  0.00    +0.025 A 
ATOM     16  C   UNL     1       6.356  -7.280  -2.236  0.00  0.00    +0.041 A 
ATOM     17  N   UNL     1       5.338  -6.538  -2.686  0.00  0.00    -0.284 N 
ATOM     18  C   UNL     1       4.089  -6.707  -2.302  0.00  0.00    +0.230 C 
ATOM     19  O   UNL     1       3.213  -5.993  -2.755  0.00  0.00    -0.274 OA
ATOM     20 CL   UNL     1       9.879  -9.735  -0.778  0.00  0.00    -0.084 Cl
ATOM     21  H   UNL     1       5.530  -5.838  -3.329  0.00  0.00    +0.155 HD
BRANCH  10  22
ATOM     22  C   UNL     1       4.654  -9.676   0.164  0.00  0.00    -0.020 A 
ATOM     23  C   UNL     1       5.250  -9.619   1.434  0.00  0.00    +0.008 A 
ATOM     24  C   UNL     1       5.025 -10.631   2.341  0.00  0.00    +0.001 A 
ATOM     25  C   UNL     1       4.214 -11.702   2.004  0.00  0.00    +0.000 A 
ATOM     26  C   UNL     1       3.622 -11.768   0.753  0.00  0.00    +0.001 A 
ATOM     27  C   UNL     1       3.829 -10.764  -0.166  0.00  0.00    +0.008 A 
ENDBRANCH  10  22
ENDBRANCH   3   9
BRANCH   1  31
ATOM     28  C   UNL     1       1.553  -1.634   1.574  0.00  0.00    +0.013 A 
ATOM     29  C   UNL     1       0.359  -2.330   1.597  0.00  0.00    +0.022 A 
ATOM     30  C   UNL     1       0.362  -3.709   1.502  0.00  0.00    +0.007 A 
ATOM     31  C   UNL     1       1.558  -4.392   1.384  0.00  0.00    -0.025 A 
ATOM     32  C   UNL     1       2.752  -3.695   1.360  0.00  0.00    +0.007 A 
ATOM     33  C   UNL     1       2.749  -2.316   1.450  0.00  0.00    +0.022 A 
BRANCH  28  34
ATOM     34  N   UNL     1       1.550  -0.239   1.670  0.00  0.00    -0.394 NA
ATOM     35  H   UNL     1       2.499   0.103   1.632  0.00  0.00    +0.126 HD
BRANCH  34  37
ATOM     36  C   UNL     1       0.882   1.853   0.587  0.00  0.00    +0.022 C 
ATOM     37  C   UNL     1       0.781   0.327   0.553  0.00  0.00    +0.081 C 
ENDBRANCH  34  37
BRANCH  34  38
ATOM     38  C   UNL     1       0.934   0.163   2.941  0.00  0.00    +0.081 C 
ATOM     39  C   UNL     1       1.803  -0.321   4.104  0.00  0.00    +0.022 C 
ENDBRANCH  34  38
ENDBRANCH  28  34
ENDBRANCH   1  31
TORSDOF 6
