REMARK  Name = ZINC02216670
REMARK  10 active torsions:
REMARK  status: ('A' for Active; 'I' for Inactive)
REMARK    1  A    between atoms: C_1  and  C_2
REMARK    2  A    between atoms: C_2  and  C_3
REMARK    3  A    between atoms: C_3  and  C_4
REMARK    4  A    between atoms: C_4  and  O_5
REMARK    5  A    between atoms: O_5  and  C_6
REMARK    6  A    between atoms: C_6  and  C_8
REMARK    7  A    between atoms: C_9  and  N_28
REMARK    8  A    between atoms: C_11  and  C_27
REMARK    9  A    between atoms: C_12  and  C_24
REMARK   10  A    between atoms: C_24  and  C_26
REMARK                            x       y       z     vdW  Elec       q    Type
REMARK                         _______ _______ _______ _____ _____    ______ ____
ROOT
ATOM      1  C   UNL     1      -0.821   1.624  -6.071  0.00  0.00    +0.117 C 
ATOM      2  C   UNL     1      -0.290   1.395  -7.302  0.00  0.00    +0.195 C 
ATOM      3  O   UNL     1      -0.892   1.828  -8.422  0.00  0.00    -0.446 OA
ATOM      4  C   UNL     1      -2.187   2.171  -8.394  0.00  0.00    +0.112 C 
ATOM      5  C   UNL     1      -2.828   2.451  -7.245  0.00  0.00    +0.057 C 
ATOM      6  C   UNL     1      -2.108   2.385  -5.928  0.00  0.00    +0.141 C 
ATOM      7  C   UNL     1      -1.844   3.773  -5.401  0.00  0.00    -0.001 A 
ATOM      8  C   UNL     1      -1.123   4.841  -5.885  0.00  0.00    +0.022 A 
ATOM      9  C   UNL     1      -1.060   6.019  -5.158  0.00  0.00    +0.018 A 
ATOM     10  C   UNL     1      -1.725   6.117  -3.949  0.00  0.00    +0.017 A 
ATOM     11  C   UNL     1      -2.450   5.048  -3.463  0.00  0.00    +0.025 A 
ATOM     12  C   UNL     1      -2.517   3.860  -4.187  0.00  0.00    +0.038 A 
ATOM     13  N   UNL     1      -3.172   2.659  -3.912  0.00  0.00    -0.284 N 
ATOM     14  C   UNL     1      -2.985   1.744  -4.880  0.00  0.00    +0.237 C 
ATOM     15  O   UNL     1      -3.435   0.618  -4.905  0.00  0.00    -0.274 OA
ATOM     16 BR   UNL     1      -0.069   7.488  -5.818  0.00  0.00    -0.050 Br
ATOM     17  C   UNL     1      -2.950   2.245  -9.691  0.00  0.00    +0.086 C 
ATOM     18  H   UNL     1      -3.702   2.502  -3.115  0.00  0.00    +0.155 HD
ENDROOT
BRANCH   5  19
ATOM     19  C   UNL     1      -4.188   2.810  -7.276  0.00  0.00    +0.161 C 
ATOM     20  O   UNL     1      -5.024   1.995  -7.612  0.00  0.00    -0.293 OA
ATOM     21  C   UNL     1      -4.608   4.206  -6.894  0.00  0.00    +0.091 C 
ENDBRANCH   5  19
BRANCH   2  22
ATOM     22  N   UNL     1       0.885   0.701  -7.402  0.00  0.00    -0.329 N 
ATOM     23  H   UNL     1       1.291   0.316  -6.609  0.00  0.00    +0.145 HD
ATOM     24  H   UNL     1       1.313   0.593  -8.266  0.00  0.00    +0.145 HD
ENDBRANCH   2  22
BRANCH   1  25
ATOM     25  C   UNL     1      -0.160   1.152  -4.927  0.00  0.00    +0.342 C 
ATOM     26  O   UNL     1       0.522   1.910  -4.261  0.00  0.00    -0.245 OA
BRANCH  25  27
ATOM     27  O   UNL     1      -0.279  -0.144  -4.565  0.00  0.00    -0.461 OA
BRANCH  27  28
ATOM     28  C   UNL     1       0.421  -0.556  -3.390  0.00  0.00    +0.232 C 
BRANCH  28  29
ATOM     29  C   UNL     1       0.168  -2.044  -3.140  0.00  0.00    +0.041 C 
BRANCH  29  31
ATOM     30  C   UNL     1       0.664  -3.974  -1.633  0.00  0.00    +0.004 C 
ATOM     31  C   UNL     1       0.918  -2.486  -1.882  0.00  0.00    -0.000 C 
ENDBRANCH  29  31
ENDBRANCH  28  29
ENDBRANCH  27  28
ENDBRANCH  25  27
ENDBRANCH   1  25
TORSDOF 7
