REMARK  Name = ZINC13163329
REMARK  8 active torsions:
REMARK  status: ('A' for Active; 'I' for Inactive)
REMARK    1  A    between atoms: C_2  and  C_3
REMARK    2  A    between atoms: C_3  and  N_4
REMARK    3  A    between atoms: C_5  and  C_24
REMARK    4  A    between atoms: C_8  and  S_9
REMARK    5  A    between atoms: S_9  and  C_10
REMARK    6  A    between atoms: C_10  and  C_11
REMARK    7  A    between atoms: N_13  and  C_14
REMARK    8  A    between atoms: C_15  and  C_22
REMARK                            x       y       z     vdW  Elec       q    Type
REMARK                         _______ _______ _______ _____ _____    ______ ____
ROOT
ATOM      1  S   UNL     1       2.793   7.195   1.235  0.00  0.00    -0.077 S 
ENDROOT
BRANCH   1   6
ATOM      2  N   UNL     1       2.225   4.639   0.249  0.00  0.00    -0.302 N 
ATOM      3  C   UNL     1       1.695   3.483   0.753  0.00  0.00    +0.139 A 
ATOM      4  N   UNL     1       1.402   3.703   2.003  0.00  0.00    -0.133 NA
ATOM      5  N   UNL     1       1.717   4.907   2.325  0.00  0.00    -0.122 NA
ATOM      6  C   UNL     1       2.223   5.529   1.285  0.00  0.00    +0.192 A 
BRANCH   3   7
ATOM      7  C   UNL     1       1.482   2.195  -0.000  0.00  0.00    +0.079 C 
ATOM      8  C   UNL     1       2.296   1.074   0.667  0.00  0.00    +0.035 C 
ATOM      9  C   UNL     1       1.821  -0.285   0.076  0.00  0.00    +0.166 C 
ATOM     10  S   UNL     1       0.002  -0.004   0.002  0.00  0.00    -0.030 S 
ATOM     11  O   UNL     1      -0.589  -0.481   1.203  0.00  0.00    -0.174 OA
ATOM     12  O   UNL     1      -0.487  -0.466  -1.250  0.00  0.00    -0.174 OA
ATOM     13  C   UNL     1      -0.023   1.835   0.012  0.00  0.00    +0.177 C 
ENDBRANCH   3   7
BRANCH   2  14
ATOM     14  C   UNL     1       2.696   4.873  -1.118  0.00  0.00    +0.152 C 
BRANCH  14  16
ATOM     15  C   UNL     1       1.684   6.515  -2.615  0.00  0.00    +0.005 C 
ATOM     16  C   UNL     1       1.558   5.387  -1.961  0.00  0.00    -0.013 C 
ENDBRANCH  14  16
ENDBRANCH   2  14
ENDBRANCH   1   6
BRANCH   1  17
ATOM     17  C   UNL     1       2.466   7.690   2.945  0.00  0.00    +0.173 C 
BRANCH  17  18
ATOM     18  C   UNL     1       2.887   9.124   3.143  0.00  0.00    +0.228 C 
ATOM     19  O   UNL     1       3.362   9.749   2.218  0.00  0.00    -0.275 OA
ATOM     20  N   UNL     1       2.736   9.711   4.346  0.00  0.00    -0.278 N 
ATOM     21  H   UNL     1       2.357   9.211   5.086  0.00  0.00    +0.155 HD
BRANCH  20  22
ATOM     22  C   UNL     1       3.124  11.031   4.528  0.00  0.00    +0.090 A 
ATOM     23  C   UNL     1       3.045  11.800   5.675  0.00  0.00    +0.084 A 
ATOM     24  C   UNL     1       3.530  13.177   5.603  0.00  0.00    -0.018 A 
ATOM     25  C   UNL     1       4.001  13.554   4.399  0.00  0.00    -0.004 A 
ATOM     26  S   UNL     1       3.819  12.117   3.373  0.00  0.00    -0.077 S 
ATOM     27  C   UNL     1       4.472  14.983   4.401  0.00  0.00    +0.043 C 
ATOM     28  C   UNL     1       3.838  15.601   5.667  0.00  0.00    +0.010 C 
ATOM     29  C   UNL     1       3.654  14.361   6.563  0.00  0.00    +0.037 C 
BRANCH  23  30
ATOM     30  C   UNL     1       2.508  11.266   6.891  0.00  0.00    +0.102 C 
ATOM     31  N   UNL     1       2.083  10.842   7.855  0.00  0.00    -0.191 NA
ENDBRANCH  23  30
ENDBRANCH  20  22
ENDBRANCH  17  18
ENDBRANCH   1  17
TORSDOF 8
