REMARK  Name = ZINC12242994
REMARK  10 active torsions:
REMARK  status: ('A' for Active; 'I' for Inactive)
REMARK    1  A    between atoms: C_1  and  C_2
REMARK    2  A    between atoms: C_2  and  C_3
REMARK    3  A    between atoms: C_2  and  C_4
REMARK    4  A    between atoms: C_4  and  N_5
REMARK    5  A    between atoms: C_7  and  C_27
REMARK    6  A    between atoms: C_10  and  C_12
REMARK    7  A    between atoms: N_17  and  C_20
REMARK    8  A    between atoms: N_29  and  C_30
REMARK    9  A    between atoms: C_30  and  C_31
REMARK   10  A    between atoms: C_30  and  C_32
REMARK                            x       y       z     vdW  Elec       q    Type
REMARK                         _______ _______ _______ _____ _____    ______ ____
ROOT
ATOM      1  N   UNL     1      -0.206   3.742  -0.698  0.00  0.00    -0.351 N 
ATOM      2  C   UNL     1      -1.232   3.329   0.064  0.00  0.00    +0.102 A 
ATOM      3  C   UNL     1      -1.125   2.218   0.872  0.00  0.00    +0.100 A 
ATOM      4  C   UNL     1       0.154   1.490   0.892  0.00  0.00    +0.206 A 
ATOM      5  O   UNL     1       0.312   0.502   1.590  0.00  0.00    -0.286 OA
ATOM      6  C   UNL     1       1.233   2.002   0.031  0.00  0.00    +0.100 A 
ATOM      7  C   UNL     1       0.986   3.122  -0.731  0.00  0.00    +0.102 A 
ENDROOT
BRANCH   6   8
ATOM      8  C   UNL     1       2.544   1.332  -0.015  0.00  0.00    +0.252 C 
ATOM      9  O   UNL     1       2.610   0.119   0.045  0.00  0.00    -0.270 OA
ATOM     10  N   UNL     1       3.671   2.063  -0.124  0.00  0.00    -0.294 N 
ATOM     11  C   UNL     1       3.620   3.533  -0.124  0.00  0.00    +0.127 C 
ATOM     12  C   UNL     1       4.619   4.050   0.924  0.00  0.00    +0.124 C 
ATOM     13  N   UNL     1       5.944   3.475   0.655  0.00  0.00    -0.327 N 
ATOM     14  C   UNL     1       5.929   2.013   0.795  0.00  0.00    +0.124 C 
ATOM     15  C   UNL     1       4.984   1.412  -0.251  0.00  0.00    +0.127 C 
BRANCH  13  16
ATOM     16  C   UNL     1       6.915   4.047   1.480  0.00  0.00    +0.030 A 
ATOM     17  C   UNL     1       7.703   3.240   2.292  0.00  0.00    +0.024 A 
ATOM     18  C   UNL     1       8.666   3.808   3.102  0.00  0.00    +0.022 A 
ATOM     19  C   UNL     1       8.839   5.181   3.116  0.00  0.00    +0.041 A 
ATOM     20  C   UNL     1       8.052   5.988   2.313  0.00  0.00    +0.022 A 
ATOM     21  C   UNL     1       7.092   5.425   1.496  0.00  0.00    +0.024 A 
ATOM     22 CL   UNL     1      10.046   5.891   4.142  0.00  0.00    -0.084 Cl
ENDBRANCH  13  16
ENDBRANCH   6   8
BRANCH   3  23
ATOM     23  C   UNL     1      -2.261   1.773   1.697  0.00  0.00    +0.249 C 
ATOM     24  O   UNL     1      -2.149   0.793   2.408  0.00  0.00    -0.270 OA
ATOM     25  N   UNL     1      -3.425   2.453   1.665  0.00  0.00    -0.309 N 
ATOM     26  H   UNL     1      -3.514   3.235   1.098  0.00  0.00    +0.149 HD
BRANCH  25  27
ATOM     27  C   UNL     1      -4.554   2.010   2.486  0.00  0.00    +0.067 C 
ATOM     28  C   UNL     1      -5.475   3.199   2.770  0.00  0.00    +0.027 C 
ATOM     29  C   UNL     1      -5.335   0.927   1.738  0.00  0.00    +0.027 C 
ENDBRANCH  25  27
ENDBRANCH   3  23
BRANCH   1  30
ATOM     30  C   UNL     1      -0.395   4.928  -1.537  0.00  0.00    +0.124 C 
BRANCH  30  32
ATOM     31  C   UNL     1      -1.242   5.749  -3.740  0.00  0.00    +0.009 C 
ATOM     32  C   UNL     1      -0.927   4.504  -2.908  0.00  0.00    +0.003 C 
ATOM     33  C   UNL     1       0.131   3.665  -3.627  0.00  0.00    +0.009 C 
ENDBRANCH  30  32
ENDBRANCH   1  30
TORSDOF 6
