REMARK  Name = ZINC39668947
REMARK  4 active torsions:
REMARK  status: ('A' for Active; 'I' for Inactive)
REMARK    1  A    between atoms: C_10  and  C_12
REMARK    2  A    between atoms: C_12  and  N_13
REMARK    3  A    between atoms: C_14  and  C_16
REMARK    4  A    between atoms: C_27  and  C_29
REMARK                            x       y       z     vdW  Elec       q    Type
REMARK                         _______ _______ _______ _____ _____    ______ ____
ROOT
ATOM      1  C   UNL     1       8.761  -1.401  -1.665  0.00  0.00    +0.100 C 
ATOM      2  C   UNL     1       8.265  -2.776  -2.165  0.00  0.00    +0.121 C 
ATOM      3  N   UNL     1       8.479  -2.741  -3.631  0.00  0.00    -0.296 N 
ATOM      4  C   UNL     1       9.778  -2.046  -3.797  0.00  0.00    +0.115 C 
ATOM      5  C   UNL     1       9.757  -0.927  -2.737  0.00  0.00    -0.004 C 
ATOM      6  C   UNL     1      11.144  -0.750  -2.128  0.00  0.00    -0.010 C 
ATOM      7  C   UNL     1      12.104  -0.222  -3.198  0.00  0.00    -0.082 C 
ATOM      8  N   UNL     1      11.607   1.059  -3.715  0.00  0.00    +0.379 N 
ATOM      9  C   UNL     1      10.314   0.862  -4.381  0.00  0.00    -0.082 C 
ATOM     10  C   UNL     1       9.279   0.381  -3.361  0.00  0.00    -0.010 C 
ATOM     11  C   UNL     1       7.676  -3.232  -4.595  0.00  0.00    +0.247 C 
ATOM     12  O   UNL     1       6.577  -3.666  -4.308  0.00  0.00    -0.270 OA
ATOM     13  H   UNL     1      11.494   1.708  -2.950  0.00  0.00    -0.086 HD
ATOM     14  H   UNL     1      12.271   1.434  -4.375  0.00  0.00    -0.086 HD
ENDROOT
BRANCH  11  15
ATOM     15  C   UNL     1       8.130  -3.241  -6.002  0.00  0.00    +0.040 A 
ATOM     16  C   UNL     1       9.491  -3.166  -6.299  0.00  0.00    +0.033 A 
ATOM     17  C   UNL     1       9.909  -3.175  -7.615  0.00  0.00    +0.043 A 
ATOM     18  C   UNL     1       8.981  -3.259  -8.639  0.00  0.00    +0.040 A 
ATOM     19  C   UNL     1       7.629  -3.332  -8.350  0.00  0.00    +0.043 A 
ATOM     20  C   UNL     1       7.199  -3.330  -7.038  0.00  0.00    +0.033 A 
ATOM     21 CL   UNL     1       6.472  -3.435  -9.641  0.00  0.00    -0.083 Cl
ATOM     22 CL   UNL     1      11.603  -3.082  -7.987  0.00  0.00    -0.083 Cl
ENDBRANCH  11  15
BRANCH   1  24
ATOM     23  N   UNL     1       7.693   0.622  -0.724  0.00  0.00    -0.312 N 
ATOM     24  C   UNL     1       7.609  -0.436  -1.555  0.00  0.00    +0.218 C 
ATOM     25  O   UNL     1       6.607  -0.610  -2.215  0.00  0.00    -0.275 OA
ATOM     26  H   UNL     1       8.495   0.761  -0.196  0.00  0.00    +0.149 HD
BRANCH  23  27
ATOM     27  C   UNL     1       6.573   1.560  -0.617  0.00  0.00    +0.140 C 
BRANCH  27  37
ATOM     28  C   UNL     1       3.650   5.402   0.615  0.00  0.00    +0.000 A 
ATOM     29  C   UNL     1       4.080   4.924  -0.609  0.00  0.00    +0.000 A 
ATOM     30  C   UNL     1       5.138   4.038  -0.668  0.00  0.00    +0.006 A 
ATOM     31  C   UNL     1       5.770   3.623   0.494  0.00  0.00    -0.014 A 
ATOM     32  C   UNL     1       5.338   4.098   1.715  0.00  0.00    -0.040 A 
ATOM     33  C   UNL     1       4.279   4.990   1.774  0.00  0.00    +0.004 A 
ATOM     34  C   UNL     1       5.990   3.660   3.001  0.00  0.00    +0.063 C 
ATOM     35  C   UNL     1       7.355   3.037   2.703  0.00  0.00    +0.165 C 
ATOM     36  O   UNL     1       7.194   2.071   1.658  0.00  0.00    -0.370 OA
ATOM     37  C   UNL     1       6.923   2.660   0.387  0.00  0.00    +0.165 C 
ENDBRANCH  27  37
ENDBRANCH  23  27
ENDBRANCH   1  24
TORSDOF 4
