REMARK  Name = ZINC09252770
REMARK  8 active torsions:
REMARK  status: ('A' for Active; 'I' for Inactive)
REMARK    1  A    between atoms: C_1  and  C_2
REMARK    2  A    between atoms: C_5  and  S_8
REMARK    3  A    between atoms: S_8  and  N_11
REMARK    4  A    between atoms: C_17  and  C_18
REMARK    5  A    between atoms: C_17  and  N_58
REMARK    6  A    between atoms: C_24  and  C_32
REMARK    7  A    between atoms: C_25  and  C_29
REMARK    8  A    between atoms: C_29  and  C_31
REMARK                            x       y       z     vdW  Elec       q    Type
REMARK                         _______ _______ _______ _____ _____    ______ ____
ROOT
ATOM      1  N   UNL     1       5.384  -3.451   7.181  0.00  0.00    -0.178 NA
ATOM      2  C   UNL     1       4.922  -3.580   5.785  0.00  0.00    +0.107 C 
ATOM      3  C   UNL     1       3.863  -2.516   5.447  0.00  0.00    -0.001 C 
ATOM      4  C   UNL     1       2.925  -2.342   6.620  0.00  0.00    -0.077 C 
ATOM      5  C   UNL     1       4.362  -1.631   8.465  0.00  0.00    -0.061 C 
ATOM      6  C   UNL     1       5.651  -2.168   7.798  0.00  0.00    +0.091 C 
ATOM      7  N   UNL     1       3.440  -1.209   7.440  0.00  0.00    +0.385 N 
ATOM      8  H   UNL     1       3.933  -0.561   6.815  0.00  0.00    -0.081 HD
ENDROOT
BRANCH   1   9
ATOM      9  S   UNL     1       5.604  -4.827   8.076  0.00  0.00    +0.061 S 
ATOM     10  O   UNL     1       5.827  -5.882   7.152  0.00  0.00    -0.153 OA
ATOM     11  O   UNL     1       6.534  -4.501   9.100  0.00  0.00    -0.153 OA
BRANCH   9  16
ATOM     12  C   UNL     1       0.367  -6.024  10.825  0.00  0.00    +0.044 C 
ATOM     13  C   UNL     1       1.675  -5.725  10.138  0.00  0.00    -0.050 A 
ATOM     14  C   UNL     1       1.935  -6.251   8.887  0.00  0.00    +0.005 A 
ATOM     15  C   UNL     1       3.135  -5.977   8.257  0.00  0.00    +0.029 A 
ATOM     16  C   UNL     1       4.074  -5.176   8.879  0.00  0.00    +0.105 A 
ATOM     17  C   UNL     1       3.817  -4.654  10.133  0.00  0.00    +0.029 A 
ATOM     18  C   UNL     1       2.615  -4.924  10.760  0.00  0.00    +0.005 A 
ENDBRANCH   9  16
ENDBRANCH   1   9
BRANCH   7  19
ATOM     19  C   UNL     1       2.311  -0.501   8.059  0.00  0.00    -0.003 C 
BRANCH  19  20
ATOM     20  C   UNL     1       1.464   0.079   6.956  0.00  0.00    +0.094 A 
ATOM     21  N   UNL     1       0.380   0.824   7.282  0.00  0.00    -0.312 N 
ATOM     22  H   UNL     1       0.168   0.971   8.217  0.00  0.00    +0.170 HD
ATOM     23  C   UNL     1      -0.410   1.365   6.334  0.00  0.00    +0.260 A 
ATOM     24  O   UNL     1      -1.383   2.033   6.638  0.00  0.00    -0.267 OA
ATOM     25  C   UNL     1      -0.065   1.127   4.913  0.00  0.00    +0.076 A 
ATOM     26  C   UNL     1      -0.713   1.578   3.764  0.00  0.00    -0.018 A 
ATOM     27  C   UNL     1      -0.219   1.230   2.525  0.00  0.00    +0.060 A 
ATOM     28  S   UNL     1       1.214   0.248   2.935  0.00  0.00    -0.065 S 
ATOM     29  C   UNL     1       1.089   0.335   4.703  0.00  0.00    +0.116 A 
ATOM     30  N   UNL     1       1.797  -0.150   5.715  0.00  0.00    -0.229 NA
ATOM     31  C   UNL     1      -1.947   2.435   3.876  0.00  0.00    +0.046 C 
BRANCH  27  32
ATOM     32  C   UNL     1      -0.718   1.572   1.248  0.00  0.00    +0.167 C 
ATOM     33  O   UNL     1      -1.716   2.257   1.150  0.00  0.00    -0.292 OA
ATOM     34  C   UNL     1      -0.013   1.086   0.008  0.00  0.00    +0.092 C 
ENDBRANCH  27  32
ENDBRANCH  19  20
ENDBRANCH   7  19
TORSDOF 5
