REMARK  Name = ZINC38684453
REMARK  11 active torsions:
REMARK  status: ('A' for Active; 'I' for Inactive)
REMARK    1  A    between atoms: C_1  and  C_2
REMARK    2  A    between atoms: C_2  and  C_3
REMARK    3  A    between atoms: C_3  and  O_4
REMARK    4  A    between atoms: O_4  and  C_5
REMARK    5  A    between atoms: C_9  and  C_11
REMARK    6  A    between atoms: C_16  and  O_25
REMARK    7  A    between atoms: C_20  and  N_24
REMARK    8  A    between atoms: C_21  and  C_22
REMARK    9  A    between atoms: O_25  and  C_26
REMARK   10  A    between atoms: C_26  and  C_28
REMARK   11  A    between atoms: C_28  and  C_29
REMARK                            x       y       z     vdW  Elec       q    Type
REMARK                         _______ _______ _______ _____ _____    ______ ____
ROOT
ATOM      1  C   UNL     1      -4.013  -6.116  -0.009  0.00  0.00    +0.098 C 
ATOM      2  C   UNL     1      -4.713  -6.590   1.238  0.00  0.00    +0.008 A 
ATOM      3  C   UNL     1      -4.009  -6.666   2.426  0.00  0.00    +0.012 A 
ATOM      4  C   UNL     1      -4.634  -7.098   3.579  0.00  0.00    +0.047 A 
ATOM      5  C   UNL     1      -5.974  -7.459   3.548  0.00  0.00    +0.135 A 
ATOM      6  C   UNL     1      -6.681  -7.385   2.359  0.00  0.00    +0.093 A 
ATOM      7  C   UNL     1      -6.051  -6.949   1.201  0.00  0.00    +0.138 A 
ATOM      8  O   UNL     1      -6.758  -6.883   0.045  0.00  0.00    -0.441 OA
ATOM      9  C   UNL     1      -6.113  -6.847  -1.133  0.00  0.00    +0.199 C 
ATOM     10  C   UNL     1      -4.813  -6.491  -1.224  0.00  0.00    +0.098 C 
ENDROOT
BRANCH   1  15
ATOM     11  C   UNL     1      -2.455  -2.675   0.065  0.00  0.00    +0.121 A 
ATOM     12  C   UNL     1      -3.580  -1.866   0.144  0.00  0.00    +0.045 A 
ATOM     13  C   UNL     1      -4.838  -2.436   0.173  0.00  0.00    +0.004 A 
ATOM     14  C   UNL     1      -4.977  -3.811   0.124  0.00  0.00    +0.005 A 
ATOM     15  C   UNL     1      -3.858  -4.618   0.045  0.00  0.00    -0.031 A 
ATOM     16  C   UNL     1      -2.598  -4.053   0.010  0.00  0.00    +0.050 A 
BRANCH  11  17
ATOM     17  O   UNL     1      -1.217  -2.116   0.035  0.00  0.00    -0.492 OA
BRANCH  17  18
ATOM     18  C   UNL     1      -1.146  -0.690   0.096  0.00  0.00    +0.229 C 
BRANCH  18  20
ATOM     19  C   UNL     1       0.394   1.277   0.116  0.00  0.00    +0.007 C 
ATOM     20  C   UNL     1       0.319  -0.250   0.051  0.00  0.00    +0.038 C 
ENDBRANCH  18  20
ENDBRANCH  17  18
ENDBRANCH  11  17
ENDBRANCH   1  15
BRANCH   9  21
ATOM     21  N   UNL     1      -6.796  -7.181  -2.276  0.00  0.00    -0.328 N 
ATOM     22  H   UNL     1      -7.730  -7.438  -2.225  0.00  0.00    +0.145 HD
ATOM     23  H   UNL     1      -6.344  -7.160  -3.134  0.00  0.00    +0.145 HD
ENDBRANCH   9  21
BRANCH  10  24
ATOM     24  C   UNL     1      -4.185  -6.471  -2.511  0.00  0.00    +0.101 C 
ATOM     25  N   UNL     1      -3.687  -6.456  -3.532  0.00  0.00    -0.191 NA
ENDBRANCH  10  24
BRANCH   5  26
ATOM     26  O   UNL     1      -6.591  -7.885   4.682  0.00  0.00    -0.425 OA
BRANCH  26  27
ATOM     27  C   UNL     1      -6.948  -9.177   4.757  0.00  0.00    +0.317 C 
ATOM     28  O   UNL     1      -6.628  -9.945   3.881  0.00  0.00    -0.250 OA
BRANCH  27  29
ATOM     29  C   UNL     1      -7.748  -9.670   5.935  0.00  0.00    +0.156 C 
BRANCH  29  30
ATOM     30  C   UNL     1      -8.016 -11.145   5.779  0.00  0.00    -0.029 A 
ATOM     31  C   UNL     1      -9.180 -11.573   5.218  0.00  0.00    +0.005 A 
ATOM     32  C   UNL     1      -9.445 -12.932   5.065  0.00  0.00    +0.001 A 
ATOM     33  C   UNL     1      -8.549 -13.871   5.473  0.00  0.00    +0.008 A 
ATOM     34  C   UNL     1      -7.336 -13.468   6.057  0.00  0.00    -0.018 A 
ATOM     35  C   UNL     1      -7.064 -12.085   6.207  0.00  0.00    -0.014 A 
ATOM     36  C   UNL     1      -5.848 -11.681   6.785  0.00  0.00    +0.009 A 
ATOM     37  C   UNL     1      -4.949 -12.620   7.188  0.00  0.00    +0.001 A 
ATOM     38  C   UNL     1      -5.214 -13.979   7.035  0.00  0.00    +0.001 A 
ATOM     39  C   UNL     1      -6.386 -14.408   6.491  0.00  0.00    +0.008 A 
ENDBRANCH  29  30
ENDBRANCH  27  29
ENDBRANCH  26  27
ENDBRANCH   5  26
TORSDOF 10
