REMARK  Name = ZINC03840740
REMARK  12 active torsions:
REMARK  status: ('A' for Active; 'I' for Inactive)
REMARK    1  A    between atoms: C_1  and  C_2
REMARK    2  A    between atoms: C_10  and  C_12
REMARK    3  A    between atoms: C_12  and  C_13
REMARK    4  A    between atoms: C_13  and  C_14
REMARK    5  A    between atoms: C_13  and  C_15
REMARK    6  A    between atoms: C_13  and  C_16
REMARK    7  A    between atoms: C_18  and  C_39
REMARK    8  A    between atoms: C_21  and  O_38
REMARK    9  A    between atoms: C_23  and  C_27
REMARK   10  A    between atoms: C_27  and  C_29
REMARK   11  A    between atoms: C_27  and  C_30
REMARK   12  A    between atoms: C_37  and  N_79
REMARK                            x       y       z     vdW  Elec       q    Type
REMARK                         _______ _______ _______ _____ _____    ______ ____
ROOT
ATOM      1  C   UNL     1       2.264   1.751  -0.089  0.00  0.00    +0.014 C 
ATOM      2  C   UNL     1       0.901   1.061  -0.164  0.00  0.00    +0.042 C 
ATOM      3  C   UNL     1       0.417   1.050  -1.606  0.00  0.00    +0.057 A 
ATOM      4  C   UNL     1      -0.886   1.306  -1.890  0.00  0.00    +0.015 A 
ATOM      5  S   UNL     1      -0.933   1.171  -3.657  0.00  0.00    -0.057 S 
ATOM      6  C   UNL     1       0.748   0.793  -3.886  0.00  0.00    +0.165 A 
ATOM      7  N   UNL     1       1.203   0.798  -2.650  0.00  0.00    -0.229 NA
ATOM      8  N   UNL     1       1.436   0.550  -5.069  0.00  0.00    -0.265 N 
ATOM      9  C   UNL     1       0.784   0.593  -6.248  0.00  0.00    +0.219 C 
ATOM     10  O   UNL     1      -0.402   0.843  -6.277  0.00  0.00    -0.275 OA
ATOM     11  C   UNL     1      -1.980   1.621  -0.933  0.00  0.00    +0.051 C 
ATOM     12  C   UNL     1      -1.516   1.269   0.495  0.00  0.00    -0.022 C 
ATOM     13  C   UNL     1      -0.106   1.822   0.709  0.00  0.00    +0.033 C 
ATOM     14  C   UNL     1       0.318   1.633   2.170  0.00  0.00    +0.123 C 
ATOM     15  C   UNL     1      -0.671   2.327   3.104  0.00  0.00    +0.029 C 
ATOM     16  C   UNL     1      -2.055   1.702   2.909  0.00  0.00    +0.007 C 
ATOM     17  C   UNL     1      -2.499   1.932   1.466  0.00  0.00    +0.008 C 
ATOM     18  C   UNL     1      -1.520  -0.247   0.701  0.00  0.00    +0.012 C 
ATOM     19  H   UNL     1       2.385   0.350  -5.046  0.00  0.00    +0.157 HD
ENDROOT
BRANCH  15  20
ATOM     20  C   UNL     1      -0.223   2.139   4.555  0.00  0.00    +0.078 C 
ATOM     21  C   UNL     1      -0.316   0.659   4.930  0.00  0.00    +0.017 C 
BRANCH  20  22
ATOM     22  C   UNL     1      -1.116   2.944   5.464  0.00  0.00    +0.219 C 
ATOM     23  O   UNL     1      -2.110   2.439   5.940  0.00  0.00    -0.275 OA
ATOM     24  N   UNL     1      -0.808   4.226   5.749  0.00  0.00    -0.305 N 
ATOM     25  C   UNL     1       0.330   4.891   5.098  0.00  0.00    +0.089 C 
ATOM     26  C   UNL     1      -0.162   6.224   4.512  0.00  0.00    -0.060 C 
ATOM     27  C   UNL     1      -2.011   6.320   6.077  0.00  0.00    -0.060 C 
ATOM     28  C   UNL     1      -1.599   4.993   6.723  0.00  0.00    +0.089 C 
ATOM     29  C   UNL     1      -1.145   8.358   5.097  0.00  0.00    -0.096 C 
ATOM     30  N   UNL     1      -0.796   7.010   5.592  0.00  0.00    +0.380 N 
ATOM     31  H   UNL     1      -0.133   7.102   6.370  0.00  0.00    -0.082 HD
ENDBRANCH  20  22
ENDBRANCH  15  20
BRANCH  14  32
ATOM     32  O   UNL     1       1.620   2.191   2.360  0.00  0.00    -0.391 OA
ATOM     33  H   UNL     1       1.996   2.022   3.235  0.00  0.00    +0.210 HD
ENDBRANCH  14  32
BRANCH   9  34
ATOM     34  C   UNL     1       1.530   0.329  -7.531  0.00  0.00    +0.102 C 
BRANCH  34  35
ATOM     35  C   UNL     1       0.565   0.438  -8.713  0.00  0.00    -0.029 C 
ATOM     36  C   UNL     1      -0.037   1.844  -8.753  0.00  0.00    +0.011 C 
ATOM     37  C   UNL     1       1.322   0.170 -10.016  0.00  0.00    +0.011 C 
ATOM     38  C   UNL     1      -0.555  -0.592  -8.554  0.00  0.00    +0.011 C 
ENDBRANCH  34  35
ENDBRANCH   9  34
TORSDOF 5
