REMARK  Name = ZINC65266516
REMARK  6 active torsions:
REMARK  status: ('A' for Active; 'I' for Inactive)
REMARK    1  A    between atoms: C_1  and  C_2
REMARK    2  A    between atoms: C_7  and  C_8
REMARK    3  A    between atoms: N_24  and  C_25
REMARK    4  A    between atoms: C_25  and  C_26
REMARK    5  A    between atoms: C_25  and  C_27
REMARK    6  A    between atoms: C_25  and  C_28
REMARK                            x       y       z     vdW  Elec       q    Type
REMARK                         _______ _______ _______ _____ _____    ______ ____
ROOT
ATOM      1  C   UNL     1       0.052  -0.043   2.387  0.00  0.00    +0.247 C 
ATOM      2  O   UNL     1      -0.259   1.126   2.264  0.00  0.00    -0.270 OA
ATOM      3  N   UNL     1       0.351  -0.535   3.606  0.00  0.00    -0.295 N 
ATOM      4  C   UNL     1       0.851  -1.891   3.883  0.00  0.00    +0.111 C 
ATOM      5  C   UNL     1       1.074  -1.995   5.408  0.00  0.00    +0.054 C 
ATOM      6  C   UNL     1       1.197  -0.522   5.838  0.00  0.00    +0.103 C 
ATOM      7  C   UNL     1       0.237   0.199   4.882  0.00  0.00    +0.141 C 
ATOM      8  C   UNL     1       0.769  -0.345   7.271  0.00  0.00    +0.099 C 
ATOM      9  N   UNL     1       1.661  -0.775   8.240  0.00  0.00    -0.286 N 
ATOM     10  C   UNL     1       3.028  -0.591   7.996  0.00  0.00    +0.145 A 
ATOM     11  C   UNL     1       3.475  -0.238   6.722  0.00  0.00    +0.069 A 
ATOM     12  C   UNL     1       4.835  -0.073   6.499  0.00  0.00    +0.028 A 
ATOM     13  C   UNL     1       5.704  -0.261   7.566  0.00  0.00    +0.022 A 
ATOM     14  C   UNL     1       5.192  -0.602   8.802  0.00  0.00    +0.113 A 
ATOM     15  N   UNL     1       3.894  -0.755   8.984  0.00  0.00    -0.238 NA
ATOM     16  N   UNL     1       2.564  -0.037   5.674  0.00  0.00    -0.328 N 
ATOM     17  N   UNL     1      -0.371   0.181   7.581  0.00  0.00    -0.370 N 
ATOM     18  H   UNL     1       2.836   0.414   4.859  0.00  0.00    +0.147 HD
ATOM     19  H   UNL     1      -0.940   0.549   6.887  0.00  0.00    +0.161 HD
ATOM     20  H   UNL     1       1.350  -1.190   9.059  0.00  0.00    +0.155 HD
ENDROOT
BRANCH   1  27
ATOM     21  C   UNL     1      -2.192  -0.111   0.562  0.00  0.00    +0.044 C 
ATOM     22  C   UNL     1      -0.975  -0.965   0.314  0.00  0.00    -0.038 A 
ATOM     23  C   UNL     1      -0.921  -1.786  -0.794  0.00  0.00    +0.004 A 
ATOM     24  C   UNL     1       0.195  -2.571  -1.023  0.00  0.00    +0.000 A 
ATOM     25  C   UNL     1       1.263  -2.538  -0.144  0.00  0.00    +0.001 A 
ATOM     26  C   UNL     1       1.222  -1.722   0.967  0.00  0.00    +0.013 A 
ATOM     27  C   UNL     1       0.101  -0.924   1.201  0.00  0.00    +0.040 A 
ENDBRANCH   1  27
BRANCH  17  28
ATOM     28  C   UNL     1      -0.803   0.222   8.980  0.00  0.00    +0.031 C 
ATOM     29  C   UNL     1       0.259   0.934   9.821  0.00  0.00    +0.033 C 
ATOM     30  C   UNL     1      -2.128   0.980   9.083  0.00  0.00    +0.033 C 
ATOM     31  C   UNL     1      -0.990  -1.206   9.498  0.00  0.00    +0.033 C 
ENDBRANCH  17  28
TORSDOF 2
