REMARK  Name = ZINC38684526
REMARK  11 active torsions:
REMARK  status: ('A' for Active; 'I' for Inactive)
REMARK    1  A    between atoms: C_2  and  C_3
REMARK    2  A    between atoms: C_3  and  O_4
REMARK    3  A    between atoms: O_4  and  C_5
REMARK    4  A    between atoms: C_9  and  C_11
REMARK    5  A    between atoms: C_16  and  O_25
REMARK    6  A    between atoms: C_20  and  N_24
REMARK    7  A    between atoms: C_21  and  C_22
REMARK    8  A    between atoms: O_25  and  C_26
REMARK    9  A    between atoms: C_26  and  C_28
REMARK   10  A    between atoms: C_28  and  O_29
REMARK   11  A    between atoms: O_29  and  C_30
REMARK                            x       y       z     vdW  Elec       q    Type
REMARK                         _______ _______ _______ _____ _____    ______ ____
ROOT
ATOM      1  C   UNL     1       3.651  -5.552   3.021  0.00  0.00    +0.098 C 
ATOM      2  C   UNL     1       3.872  -6.838   2.270  0.00  0.00    +0.008 A 
ATOM      3  C   UNL     1       2.802  -7.455   1.647  0.00  0.00    +0.012 A 
ATOM      4  C   UNL     1       2.987  -8.635   0.953  0.00  0.00    +0.047 A 
ATOM      5  C   UNL     1       4.249  -9.206   0.879  0.00  0.00    +0.135 A 
ATOM      6  C   UNL     1       5.323  -8.591   1.502  0.00  0.00    +0.093 A 
ATOM      7  C   UNL     1       5.136  -7.404   2.199  0.00  0.00    +0.138 A 
ATOM      8  O   UNL     1       6.197  -6.815   2.804  0.00  0.00    -0.441 OA
ATOM      9  C   UNL     1       5.996  -5.914   3.781  0.00  0.00    +0.199 C 
ATOM     10  C   UNL     1       4.813  -5.281   3.935  0.00  0.00    +0.098 C 
ENDROOT
BRANCH   1  15
ATOM     11  C   UNL     1       2.222  -2.630   1.099  0.00  0.00    +0.121 A 
ATOM     12  C   UNL     1       3.265  -2.335   0.233  0.00  0.00    +0.045 A 
ATOM     13  C   UNL     1       4.427  -3.081   0.273  0.00  0.00    +0.004 A 
ATOM     14  C   UNL     1       4.551  -4.122   1.176  0.00  0.00    +0.005 A 
ATOM     15  C   UNL     1       3.513  -4.418   2.039  0.00  0.00    -0.031 A 
ATOM     16  C   UNL     1       2.351  -3.671   2.007  0.00  0.00    +0.050 A 
BRANCH  11  17
ATOM     17  O   UNL     1       1.079  -1.897   1.061  0.00  0.00    -0.488 OA
BRANCH  17  18
ATOM     18  C   UNL     1       1.016  -0.841   0.101  0.00  0.00    +0.256 C 
BRANCH  18  20
ATOM     19  C   UNL     1      -0.373   1.165   0.198  0.00  0.00    +0.007 C 
ATOM     20  C   UNL     1      -0.316  -0.144   0.205  0.00  0.00    +0.006 C 
ENDBRANCH  18  20
ENDBRANCH  17  18
ENDBRANCH  11  17
ENDBRANCH   1  15
BRANCH   9  21
ATOM     21  N   UNL     1       7.023  -5.629   4.645  0.00  0.00    -0.328 N 
ATOM     22  H   UNL     1       7.879  -6.076   4.546  0.00  0.00    +0.145 HD
ATOM     23  H   UNL     1       6.894  -4.982   5.356  0.00  0.00    +0.145 HD
ENDBRANCH   9  21
BRANCH  10  24
ATOM     24  C   UNL     1       4.664  -4.331   4.996  0.00  0.00    +0.101 C 
ATOM     25  N   UNL     1       4.546  -3.576   5.837  0.00  0.00    -0.191 NA
ENDBRANCH  10  24
BRANCH   5  26
ATOM     26  O   UNL     1       4.433 -10.367   0.197  0.00  0.00    -0.423 OA
BRANCH  26  27
ATOM     27  C   UNL     1       4.720 -11.473   0.902  0.00  0.00    +0.350 C 
ATOM     28  O   UNL     1       4.707 -11.441   2.110  0.00  0.00    -0.247 OA
BRANCH  27  29
ATOM     29  C   UNL     1       5.059 -12.756   0.186  0.00  0.00    +0.349 C 
BRANCH  29  30
ATOM     30  O   UNL     1       5.324 -13.781   1.146  0.00  0.00    -0.481 OA
BRANCH  30  31
ATOM     31  C   UNL     1       5.649 -15.009   0.663  0.00  0.00    +0.121 A 
ATOM     32  C   UNL     1       5.715 -15.222  -0.706  0.00  0.00    +0.048 A 
ATOM     33  C   UNL     1       6.045 -16.471  -1.196  0.00  0.00    +0.042 A 
ATOM     34  C   UNL     1       6.308 -17.511  -0.321  0.00  0.00    +0.124 A 
ATOM     35  C   UNL     1       6.241 -17.301   1.046  0.00  0.00    +0.042 A 
ATOM     36  C   UNL     1       5.918 -16.051   1.539  0.00  0.00    +0.048 A 
ATOM     37  F   UNL     1       6.630 -18.732  -0.801  0.00  0.00    -0.205 F 
ENDBRANCH  30  31
ENDBRANCH  29  30
ENDBRANCH  27  29
ENDBRANCH  26  27
ENDBRANCH   5  26
TORSDOF 11
