REMARK  Name = ZINC38818446
REMARK  4 active torsions:
REMARK  status: ('A' for Active; 'I' for Inactive)
REMARK    1  A    between atoms: C_9  and  O_23
REMARK    2  A    between atoms: C_10  and  C_11
REMARK    3  A    between atoms: N_12  and  N_13
REMARK    4  A    between atoms: N_13  and  C_14
REMARK                            x       y       z     vdW  Elec       q    Type
REMARK                         _______ _______ _______ _____ _____    ______ ____
ROOT
ATOM      1  C   UNL     1       0.015   1.476   0.165  0.00  0.00    +0.001 A 
ATOM      2  C   UNL     1       1.217   2.180   0.178  0.00  0.00    +0.001 A 
ATOM      3  C   UNL     1       2.412   1.527   0.107  0.00  0.00    +0.009 A 
ATOM      4  C   UNL     1       2.433   0.131   0.019  0.00  0.00    -0.006 A 
ATOM      5  C   UNL     1       1.213  -0.589   0.005  0.00  0.00    -0.017 A 
ATOM      6  C   UNL     1      -0.000   0.117   0.080  0.00  0.00    +0.008 A 
ATOM      7  C   UNL     1       1.236  -1.992  -0.083  0.00  0.00    +0.012 A 
ATOM      8  C   UNL     1       2.415  -2.665  -0.154  0.00  0.00    +0.046 A 
ATOM      9  C   UNL     1       3.641  -2.003  -0.143  0.00  0.00    +0.126 A 
ATOM     10  C   UNL     1       3.691  -0.610  -0.059  0.00  0.00    +0.044 A 
ENDROOT
BRANCH  10  11
ATOM     11  C   UNL     1       4.978   0.095  -0.048  0.00  0.00    +0.142 C 
ATOM     12  N   UNL     1       5.271   0.900   0.933  0.00  0.00    -0.190 NA
BRANCH  12  13
ATOM     13  N   UNL     1       4.421   0.990   2.043  0.00  0.00    -0.238 N 
ATOM     14  H   UNL     1       3.582   0.505   2.052  0.00  0.00    +0.174 HD
BRANCH  13  15
ATOM     15  C   UNL     1       4.771   1.752   3.101  0.00  0.00    +0.072 C 
ATOM     16  C   UNL     1       5.956   2.464   3.126  0.00  0.00    +0.154 C 
ATOM     17  N   UNL     1       6.289   3.205   4.163  0.00  0.00    -0.164 NA
ATOM     18  N   UNL     1       5.604   3.361   5.229  0.00  0.00    -0.079 NA
ATOM     19  C   UNL     1       4.420   2.770   5.433  0.00  0.00    +0.277 C 
ATOM     20  O   UNL     1       3.797   2.944   6.462  0.00  0.00    -0.270 OA
ATOM     21  C   UNL     1       3.881   1.879   4.327  0.00  0.00    +0.216 C 
ATOM     22 CL   UNL     1       3.620   0.232   5.010  0.00  0.00    -0.105 Cl
ENDBRANCH  13  15
ENDBRANCH  12  13
ENDBRANCH  10  11
BRANCH   9  23
ATOM     23  O   UNL     1       4.793  -2.716  -0.215  0.00  0.00    -0.506 OA
ATOM     24  H   UNL     1       5.066  -2.934  -1.117  0.00  0.00    +0.292 HD
ENDBRANCH   9  23
TORSDOF 4
