REMARK  Name = ZINC08923390
REMARK  11 active torsions:
REMARK  status: ('A' for Active; 'I' for Inactive)
REMARK    1  A    between atoms: C_1  and  C_2
REMARK    2  A    between atoms: C_2  and  O_3
REMARK    3  A    between atoms: O_3  and  C_4
REMARK    4  A    between atoms: C_6  and  C_20
REMARK    5  A    between atoms: C_9  and  O_10
REMARK    6  A    between atoms: O_10  and  C_11
REMARK    7  A    between atoms: C_11  and  C_13
REMARK    8  A    between atoms: C_31  and  C_32
REMARK    9  A    between atoms: C_31  and  C_33
REMARK   10  A    between atoms: C_31  and  N_64
REMARK   11  A    between atoms: C_34  and  O_36
REMARK                            x       y       z     vdW  Elec       q    Type
REMARK                         _______ _______ _______ _____ _____    ______ ____
ROOT
ATOM      1  C   UNL     1      -0.129  -6.828   1.698  0.00  0.00    +0.224 C 
ATOM      2  N   UNL     1       1.080  -5.986   1.749  0.00  0.00    -0.313 N 
ATOM      3  C   UNL     1       0.900  -4.646   1.501  0.00  0.00    +0.080 A 
ATOM      4  C   UNL     1      -0.181  -4.160   0.754  0.00  0.00    +0.067 A 
ATOM      5  C   UNL     1      -0.226  -2.722   0.571  0.00  0.00    -0.027 A 
ATOM      6  C   UNL     1       0.782  -2.025   1.150  0.00  0.00    -0.021 A 
ATOM      7  S   UNL     1       1.792  -3.252   1.934  0.00  0.00    -0.080 S 
ATOM      8  C   UNL     1       0.973  -0.541   1.115  0.00  0.00    -0.035 C 
ATOM      9  C   UNL     1      -1.266  -0.508   0.191  0.00  0.00    -0.073 C 
ATOM     10  C   UNL     1      -1.310  -1.985  -0.208  0.00  0.00    +0.018 C 
ATOM     11  C   UNL     1      -1.143  -5.159   0.222  0.00  0.00    +0.220 C 
ATOM     12  N   UNL     1      -1.049  -6.385   0.657  0.00  0.00    -0.223 NA
ATOM     13  H   UNL     1       1.954  -6.356   1.948  0.00  0.00    +0.149 HD
ATOM     14  N   UNL     1       0.112   0.002   0.036  0.00  0.00    +0.384 N 
ATOM     15  H   UNL     1       0.481  -0.303  -0.872  0.00  0.00    -0.081 HD
ENDROOT
BRANCH   1  18
ATOM     16  C   UNL     1      -2.849  -6.852   4.320  0.00  0.00    +0.163 A 
ATOM     17  C   UNL     1      -2.203  -6.909   3.095  0.00  0.00    +0.056 A 
ATOM     18  C   UNL     1      -0.830  -6.766   3.031  0.00  0.00    -0.002 A 
ATOM     19  C   UNL     1      -0.097  -6.570   4.187  0.00  0.00    +0.011 A 
ATOM     20  C   UNL     1      -0.735  -6.507   5.411  0.00  0.00    +0.050 A 
ATOM     21  C   UNL     1      -2.112  -6.650   5.483  0.00  0.00    +0.173 A 
BRANCH  16  22
ATOM     22  O   UNL     1      -4.200  -6.993   4.386  0.00  0.00    -0.489 OA
BRANCH  22  24
ATOM     23  C   UNL     1      -6.390  -7.335   3.424  0.00  0.00    +0.048 C 
ATOM     24  C   UNL     1      -4.891  -7.198   3.152  0.00  0.00    +0.226 C 
ENDBRANCH  22  24
ENDBRANCH  16  22
BRANCH  21  25
ATOM     25  O   UNL     1      -2.740  -6.593   6.688  0.00  0.00    -0.419 OA
BRANCH  25  26
ATOM     26  C   UNL     1      -3.058  -7.767   7.268  0.00  0.00    +0.345 C 
ATOM     27  O   UNL     1      -2.695  -8.812   6.764  0.00  0.00    -0.245 OA
BRANCH  26  28
ATOM     28  C   UNL     1      -3.846  -7.785   8.515  0.00  0.00    +0.060 A 
ATOM     29  C   UNL     1      -4.260  -6.585   9.100  0.00  0.00    +0.018 A 
ATOM     30  C   UNL     1      -5.000  -6.608  10.262  0.00  0.00    +0.039 A 
ATOM     31  C   UNL     1      -5.325  -7.818  10.857  0.00  0.00    +0.123 A 
ATOM     32  C   UNL     1      -4.912  -9.011  10.284  0.00  0.00    +0.039 A 
ATOM     33  C   UNL     1      -4.176  -9.001   9.119  0.00  0.00    +0.018 A 
ATOM     34  F   UNL     1      -6.047  -7.834  11.999  0.00  0.00    -0.205 F 
ENDBRANCH  26  28
ENDBRANCH  25  26
ENDBRANCH  21  25
ENDBRANCH   1  18
BRANCH  14  35
ATOM     35  C   UNL     1       0.114   1.480   0.084  0.00  0.00    -0.074 C 
ATOM     36  C   UNL     1       1.560   1.980   0.070  0.00  0.00    -0.014 C 
ATOM     37  C   UNL     1      -0.622   2.016  -1.146  0.00  0.00    -0.014 C 
ENDBRANCH  14  35
BRANCH  11  38
ATOM     38  O   UNL     1      -2.086  -4.809  -0.683  0.00  0.00    -0.492 OA
ATOM     39  H   UNL     1      -2.657  -5.540  -0.959  0.00  0.00    +0.294 HD
ENDBRANCH  11  38
TORSDOF 8
