REMARK  Name = ZINC39491174
REMARK  15 active torsions:
REMARK  status: ('A' for Active; 'I' for Inactive)
REMARK    1  A    between atoms: C_1  and  C_2
REMARK    2  A    between atoms: C_2  and  C_3
REMARK    3  A    between atoms: C_2  and  S_4
REMARK    4  A    between atoms: S_4  and  C_7
REMARK    5  A    between atoms: C_7  and  C_9
REMARK    6  A    between atoms: C_7  and  C_16
REMARK    7  A    between atoms: C_9  and  C_10
REMARK    8  A    between atoms: C_16  and  N_17
REMARK    9  A    between atoms: C_19  and  C_30
REMARK   10  A    between atoms: C_24  and  C_26
REMARK   11  A    between atoms: C_26  and  O_28
REMARK   12  A    between atoms: O_28  and  C_29
REMARK   13  A    between atoms: C_30  and  N_31
REMARK   14  A    between atoms: N_31  and  C_32
REMARK   15  A    between atoms: C_32  and  C_33
REMARK                            x       y       z     vdW  Elec       q    Type
REMARK                         _______ _______ _______ _____ _____    ______ ____
ROOT
ATOM      1  N   UNL     1      -1.559  -3.304   2.496  0.00  0.00    -0.345 N 
ATOM      2  C   UNL     1      -1.860  -2.327   3.406  0.00  0.00    +0.088 A 
ATOM      3  C   UNL     1      -2.725  -2.799   4.317  0.00  0.00    -0.039 A 
ATOM      4  C   UNL     1      -3.001  -4.194   3.960  0.00  0.00    +0.002 A 
ATOM      5  C   UNL     1      -2.243  -4.456   2.801  0.00  0.00    +0.049 A 
ATOM      6  C   UNL     1      -2.301  -5.717   2.210  0.00  0.00    +0.027 A 
ATOM      7  C   UNL     1      -3.088  -6.691   2.747  0.00  0.00    +0.017 A 
ATOM      8  C   UNL     1      -3.850  -6.442   3.898  0.00  0.00    +0.060 A 
ATOM      9  C   UNL     1      -3.800  -5.192   4.509  0.00  0.00    +0.025 A 
ENDROOT
BRANCH   8  10
ATOM     10  C   UNL     1      -4.697  -7.508   4.466  0.00  0.00    +0.339 C 
ATOM     11  O   UNL     1      -5.357  -7.292   5.463  0.00  0.00    -0.245 OA
BRANCH  10  12
ATOM     12  O   UNL     1      -4.740  -8.720   3.879  0.00  0.00    -0.464 OA
ATOM     13  C   UNL     1      -5.582  -9.704   4.482  0.00  0.00    +0.280 C 
ENDBRANCH  10  12
ENDBRANCH   8  10
BRANCH   1  14
ATOM     14  C   UNL     1      -0.647  -3.144   1.361  0.00  0.00    +0.148 C 
BRANCH  14  15
ATOM     15  C   UNL     1      -1.458  -3.006   0.071  0.00  0.00    +0.155 C 
BRANCH  15  16
ATOM     16  S   UNL     1      -2.391  -1.451   0.106  0.00  0.00    -0.024 S 
ATOM     17  O   UNL     1      -2.169  -0.766  -1.119  0.00  0.00    -0.174 OA
ATOM     18  O   UNL     1      -2.110  -0.786   1.330  0.00  0.00    -0.174 OA
BRANCH  16  20
ATOM     19  C   UNL     1      -5.049  -0.807   0.132  0.00  0.00    +0.031 C 
ATOM     20  C   UNL     1      -4.113  -2.018   0.143  0.00  0.00    +0.125 C 
ATOM     21  C   UNL     1      -4.391  -2.888  -1.085  0.00  0.00    +0.031 C 
ENDBRANCH  16  20
ENDBRANCH  15  16
BRANCH  15  22
ATOM     22  C   UNL     1      -0.509  -3.005  -1.130  0.00  0.00    +0.063 C 
BRANCH  22  23
ATOM     23  C   UNL     1      -1.312  -3.080  -2.403  0.00  0.00    -0.045 A 
ATOM     24  C   UNL     1      -1.825  -4.292  -2.827  0.00  0.00    +0.004 A 
ATOM     25  C   UNL     1      -2.560  -4.361  -3.995  0.00  0.00    +0.000 A 
ATOM     26  C   UNL     1      -2.783  -3.218  -4.740  0.00  0.00    +0.000 A 
ATOM     27  C   UNL     1      -2.271  -2.006  -4.316  0.00  0.00    +0.000 A 
ATOM     28  C   UNL     1      -1.539  -1.937  -3.146  0.00  0.00    +0.004 A 
ENDBRANCH  22  23
ENDBRANCH  15  22
ENDBRANCH  14  15
ENDBRANCH   1  14
BRANCH   3  29
ATOM     29  C   UNL     1      -3.302  -2.041   5.484  0.00  0.00    -0.044 C 
BRANCH  29  30
ATOM     30  N   UNL     1      -2.571  -2.396   6.708  0.00  0.00    +0.384 N 
ATOM     31  H   UNL     1      -2.657  -3.387   6.876  0.00  0.00    -0.085 HD
ATOM     32  H   UNL     1      -1.597  -2.156   6.600  0.00  0.00    -0.085 HD
BRANCH  30  33
ATOM     33  C   UNL     1      -3.134  -1.656   7.846  0.00  0.00    -0.046 C 
BRANCH  33  34
ATOM     34  C   UNL     1      -2.385  -2.020   9.102  0.00  0.00    -0.064 A 
ATOM     35  C   UNL     1      -2.808  -3.085   9.875  0.00  0.00    +0.002 A 
ATOM     36  C   UNL     1      -2.120  -3.419  11.027  0.00  0.00    +0.000 A 
ATOM     37  C   UNL     1      -1.009  -2.688  11.405  0.00  0.00    +0.000 A 
ATOM     38  C   UNL     1      -0.586  -1.624  10.631  0.00  0.00    +0.000 A 
ATOM     39  C   UNL     1      -1.271  -1.293   9.477  0.00  0.00    +0.002 A 
ENDBRANCH  33  34
ENDBRANCH  30  33
ENDBRANCH  29  30
ENDBRANCH   3  29
TORSDOF 12
