REMARK  Name = ZINC04548246
REMARK  12 active torsions:
REMARK  status: ('A' for Active; 'I' for Inactive)
REMARK    1  A    between atoms: C_1  and  C_2
REMARK    2  A    between atoms: C_5  and  C_30
REMARK    3  A    between atoms: C_8  and  C_26
REMARK    4  A    between atoms: C_8  and  O_29
REMARK    5  A    between atoms: C_11  and  O_14
REMARK    6  A    between atoms: O_14  and  C_15
REMARK    7  A    between atoms: C_15  and  C_17
REMARK    8  A    between atoms: C_20  and  O_24
REMARK    9  A    between atoms: C_21  and  O_23
REMARK   10  A    between atoms: O_24  and  C_25
REMARK   11  A    between atoms: C_26  and  C_27
REMARK   12  A    between atoms: C_26  and  C_28
REMARK                            x       y       z     vdW  Elec       q    Type
REMARK                         _______ _______ _______ _____ _____    ______ ____
ROOT
ATOM      1  C   UNL     1      -4.085  -3.491   1.966  0.00  0.00    +0.039 C 
ATOM      2  C   UNL     1      -5.103  -2.802   1.094  0.00  0.00    -0.073 C 
ATOM      3  C   UNL     1      -4.807  -2.646  -0.159  0.00  0.00    -0.027 C 
ATOM      4  C   UNL     1      -5.683  -1.907  -1.120  0.00  0.00    +0.034 C 
ATOM      5  C   UNL     1      -7.124  -2.426  -1.063  0.00  0.00    -0.020 C 
ATOM      6  C   UNL     1      -7.796  -2.072  -2.425  0.00  0.00    +0.010 C 
ATOM      7  C   UNL     1      -8.018  -0.543  -2.305  0.00  0.00    +0.036 C 
ATOM      8  C   UNL     1      -8.422  -0.334  -0.830  0.00  0.00    +0.075 C 
ATOM      9  C   UNL     1      -7.889  -1.548  -0.058  0.00  0.00    +0.068 C 
ATOM     10  C   UNL     1      -6.937  -1.104   1.055  0.00  0.00    +0.187 C 
ATOM     11  C   UNL     1      -6.379  -2.352   1.745  0.00  0.00    +0.075 C 
ATOM     12  C   UNL     1      -7.210  -3.916  -0.726  0.00  0.00    +0.012 C 
ENDROOT
BRANCH   8  13
ATOM     13  C   UNL     1      -7.790   0.951  -0.290  0.00  0.00    +0.015 C 
ATOM     14  C   UNL     1      -7.918   2.061  -1.335  0.00  0.00    +0.010 C 
ATOM     15  C   UNL     1      -8.509   1.373   0.993  0.00  0.00    +0.010 C 
ENDBRANCH   8  13
BRANCH   8  16
ATOM     16  O   UNL     1      -9.845  -0.266  -0.715  0.00  0.00    -0.388 OA
ATOM     17  H   UNL     1     -10.242   0.481  -1.183  0.00  0.00    +0.210 HD
ENDBRANCH   8  16
BRANCH  10  18
ATOM     18  O   UNL     1      -5.847  -0.332   0.486  0.00  0.00    -0.457 OA
BRANCH  18  19
ATOM     19  C   UNL     1      -5.300   0.621   1.266  0.00  0.00    +0.340 C 
ATOM     20  O   UNL     1      -5.721   0.801   2.392  0.00  0.00    -0.245 OA
BRANCH  19  21
ATOM     21  C   UNL     1      -4.188   1.444   0.754  0.00  0.00    +0.063 A 
ATOM     22  C   UNL     1      -3.703   1.238  -0.540  0.00  0.00    +0.019 A 
ATOM     23  C   UNL     1      -2.668   2.013  -1.018  0.00  0.00    +0.050 A 
ATOM     24  C   UNL     1      -2.099   2.990  -0.214  0.00  0.00    +0.161 A 
ATOM     25  C   UNL     1      -2.579   3.201   1.078  0.00  0.00    +0.159 A 
ATOM     26  C   UNL     1      -3.619   2.432   1.562  0.00  0.00    +0.064 A 
BRANCH  25  27
ATOM     27  O   UNL     1      -2.022   4.164   1.861  0.00  0.00    -0.503 OA
ATOM     28  H   UNL     1      -2.442   5.031   1.776  0.00  0.00    +0.292 HD
ENDBRANCH  25  27
BRANCH  24  29
ATOM     29  O   UNL     1      -1.076   3.747  -0.689  0.00  0.00    -0.491 OA
ATOM     30  C   UNL     1      -0.634   3.478  -2.021  0.00  0.00    +0.277 C 
ENDBRANCH  24  29
ENDBRANCH  19  21
ENDBRANCH  18  19
ENDBRANCH  10  18
TORSDOF 7
