REMARK  Name = ZINC54710986
REMARK  6 active torsions:
REMARK  status: ('A' for Active; 'I' for Inactive)
REMARK    1  A    between atoms: C_1  and  C_2
REMARK    2  A    between atoms: C_2  and  C_3
REMARK    3  A    between atoms: C_2  and  C_15
REMARK    4  A    between atoms: C_2  and  O_21
REMARK    5  A    between atoms: C_3  and  S_4
REMARK    6  A    between atoms: S_4  and  C_5
REMARK                            x       y       z     vdW  Elec       q    Type
REMARK                         _______ _______ _______ _____ _____    ______ ____
ROOT
ATOM      1  S   UNL     1       2.395   0.234   1.306  0.00  0.00    -0.083 S 
ENDROOT
BRANCH   1   2
ATOM      2  C   UNL     1       3.109  -0.439   2.769  0.00  0.00    +0.191 A 
ATOM      3  N   UNL     1       4.341  -0.084   3.116  0.00  0.00    -0.207 NA
ATOM      4  C   UNL     1       4.929  -0.556   4.202  0.00  0.00    +0.129 A 
ATOM      5  C   UNL     1       4.227  -1.475   5.030  0.00  0.00    +0.047 A 
ATOM      6  C   UNL     1       4.650  -2.127   6.259  0.00  0.00    +0.021 A 
ATOM      7  C   UNL     1       3.808  -2.966   6.878  0.00  0.00    +0.048 A 
ATOM      8  S   UNL     1       2.359  -2.945   5.840  0.00  0.00    -0.077 S 
ATOM      9  C   UNL     1       2.924  -1.808   4.601  0.00  0.00    +0.114 A 
ATOM     10  N   UNL     1       2.405  -1.288   3.506  0.00  0.00    -0.215 NA
ATOM     11  N   UNL     1       6.214  -0.162   4.528  0.00  0.00    -0.343 N 
ATOM     12  H   UNL     1       6.688   0.465   3.959  0.00  0.00    +0.144 HD
ATOM     13  H   UNL     1       6.640  -0.511   5.326  0.00  0.00    +0.144 HD
ENDBRANCH   1   2
BRANCH   1  14
ATOM     14  C   UNL     1       0.742  -0.511   1.242  0.00  0.00    +0.116 C 
BRANCH  14  16
ATOM     15  C   UNL     1      -0.019   1.526   0.010  0.00  0.00    +0.047 C 
ATOM     16  C   UNL     1       0.002  -0.004   0.002  0.00  0.00    +0.097 C 
BRANCH  16  17
ATOM     17  C   UNL     1      -1.412  -0.526   0.013  0.00  0.00    -0.016 A 
ATOM     18  C   UNL     1      -2.051  -0.766   1.215  0.00  0.00    +0.006 A 
ATOM     19  C   UNL     1      -3.348  -1.244   1.225  0.00  0.00    +0.000 A 
ATOM     20  C   UNL     1      -4.006  -1.482   0.032  0.00  0.00    +0.000 A 
ATOM     21  C   UNL     1      -3.367  -1.241  -1.170  0.00  0.00    +0.000 A 
ATOM     22  C   UNL     1      -2.072  -0.758  -1.179  0.00  0.00    +0.006 A 
ENDBRANCH  16  17
BRANCH  16  23
ATOM     23  O   UNL     1       0.671  -0.465  -1.174  0.00  0.00    -0.383 OA
ATOM     24  H   UNL     1       0.722  -1.428  -1.246  0.00  0.00    +0.211 HD
ENDBRANCH  16  23
ENDBRANCH  14  16
ENDBRANCH   1  14
TORSDOF 5
