REMARK  Name = ZINC14811613
REMARK  7 active torsions:
REMARK  status: ('A' for Active; 'I' for Inactive)
REMARK    1  A    between atoms: C_9  and  C_11
REMARK    2  A    between atoms: C_12  and  C_13
REMARK    3  A    between atoms: C_13  and  O_15
REMARK    4  A    between atoms: O_15  and  C_16
REMARK    5  A    between atoms: C_16  and  C_17
REMARK    6  A    between atoms: N_19  and  C_20
REMARK    7  A    between atoms: C_21  and  C_28
REMARK                            x       y       z     vdW  Elec       q    Type
REMARK                         _______ _______ _______ _____ _____    ______ ____
ROOT
ATOM      1  C   UNL     1       2.230   5.580   0.011  0.00  0.00    +0.255 C 
ATOM      2  O   UNL     1       1.103   6.028   0.024  0.00  0.00    -0.272 OA
ATOM      3  N   UNL     1       3.288   6.415   0.005  0.00  0.00    -0.277 N 
ATOM      4  H   UNL     1       4.189   6.057  -0.005  0.00  0.00    +0.155 HD
ENDROOT
BRANCH   3   5
ATOM      5  C   UNL     1       3.087   7.787   0.014  0.00  0.00    +0.084 A 
ATOM      6  C   UNL     1       4.036   8.796   0.016  0.00  0.00    +0.068 A 
ATOM      7  C   UNL     1       3.556  10.177   0.023  0.00  0.00    -0.023 A 
ATOM      8  C   UNL     1       2.219  10.317   0.036  0.00  0.00    -0.004 A 
ATOM      9  S   UNL     1       1.590   8.656   0.034  0.00  0.00    -0.077 S 
ATOM     10  C   UNL     1       1.803  11.763   0.045  0.00  0.00    +0.043 C 
ATOM     11  C   UNL     1       3.065  12.534  -0.401  0.00  0.00    +0.010 C 
ATOM     12  C   UNL     1       4.189  11.569   0.026  0.00  0.00    +0.037 C 
BRANCH   6  13
ATOM     13  C   UNL     1       5.470   8.489   0.008  0.00  0.00    +0.244 C 
ATOM     14  O   UNL     1       6.060   8.369  -1.049  0.00  0.00    -0.270 OA
ATOM     15  N   UNL     1       6.134   8.341   1.171  0.00  0.00    -0.325 N 
ATOM     16  H   UNL     1       5.663   8.436   2.014  0.00  0.00    +0.145 HD
ATOM     17  H   UNL     1       7.082   8.138   1.166  0.00  0.00    +0.145 HD
ENDBRANCH   6  13
ENDBRANCH   3   5
BRANCH   1  18
ATOM     18  C   UNL     1       2.448   4.089   0.001  0.00  0.00    +0.328 C 
BRANCH  18  19
ATOM     19  O   UNL     1       1.183   3.423   0.009  0.00  0.00    -0.452 OA
BRANCH  19  20
ATOM     20  C   UNL     1       1.202   2.074   0.002  0.00  0.00    +0.332 C 
ATOM     21  O   UNL     1       2.263   1.480  -0.012  0.00  0.00    -0.246 OA
BRANCH  20  23
ATOM     22  C   UNL     1       0.002  -0.004   0.002  0.00  0.00    +0.017 C 
ATOM     23  C   UNL     1      -0.016   1.348   0.009  0.00  0.00    +0.092 C 
BRANCH  22  32
ATOM     24  C   UNL     1      -3.672  -0.800   0.033  0.00  0.00    +0.001 A 
ATOM     25  C   UNL     1      -3.694  -2.163   0.026  0.00  0.00    +0.010 A 
ATOM     26  C   UNL     1      -2.498  -2.898   0.010  0.00  0.00    +0.001 A 
ATOM     27  C   UNL     1      -2.502  -4.306   0.003  0.00  0.00    +0.011 A 
ATOM     28  C   UNL     1      -1.299  -4.954  -0.011  0.00  0.00    +0.020 A 
ATOM     29  C   UNL     1      -0.115  -4.221  -0.019  0.00  0.00    +0.111 A 
ATOM     30  N   UNL     1      -0.117  -2.908  -0.012  0.00  0.00    -0.254 NA
ATOM     31  C   UNL     1      -1.256  -2.218   0.002  0.00  0.00    +0.078 A 
ATOM     32  C   UNL     1      -1.258  -0.755   0.010  0.00  0.00    +0.001 A 
ATOM     33  C   UNL     1      -2.481  -0.089   0.031  0.00  0.00    +0.010 A 
ENDBRANCH  22  32
ENDBRANCH  20  23
ENDBRANCH  19  20
ENDBRANCH  18  19
ENDBRANCH   1  18
TORSDOF 7
