REMARK  Name = ZINC08959964
REMARK  9 active torsions:
REMARK  status: ('A' for Active; 'I' for Inactive)
REMARK    1  A    between atoms: C_1  and  C_2
REMARK    2  A    between atoms: C_2  and  C_3
REMARK    3  A    between atoms: C_2  and  C_4
REMARK    4  A    between atoms: C_4  and  C_5
REMARK    5  A    between atoms: C_5  and  N_6
REMARK    6  A    between atoms: C_9  and  N_20
REMARK    7  A    between atoms: C_15  and  C_18
REMARK    8  A    between atoms: C_15  and  C_19
REMARK    9  A    between atoms: C_21  and  C_23
REMARK                            x       y       z     vdW  Elec       q    Type
REMARK                         _______ _______ _______ _____ _____    ______ ____
ROOT
ATOM      1  N   UNL     1      -2.587   2.170   0.042  0.00  0.00    -0.268 N 
ATOM      2  C   UNL     1      -1.837   3.140  -0.635  0.00  0.00    +0.080 A 
ATOM      3  C   UNL     1      -2.278   4.451  -0.702  0.00  0.00    +0.050 A 
ATOM      4  C   UNL     1      -1.527   5.398  -1.387  0.00  0.00    +0.036 A 
ATOM      5  C   UNL     1      -0.338   5.029  -2.002  0.00  0.00    +0.027 A 
ATOM      6  C   UNL     1       0.103   3.720  -1.934  0.00  0.00    +0.049 A 
ATOM      7  C   UNL     1      -0.641   2.773  -1.251  0.00  0.00    +0.142 A 
ATOM      8  O   UNL     1      -0.212   1.485  -1.175  0.00  0.00    -0.489 OA
ATOM      9  C   UNL     1       0.343   1.055   0.065  0.00  0.00    +0.244 C 
ATOM     10  C   UNL     1      -0.512   1.553   1.228  0.00  0.00    +0.076 C 
ATOM     11  C   UNL     1      -1.970   1.355   0.927  0.00  0.00    +0.229 C 
ATOM     12  O   UNL     1      -2.592   0.468   1.474  0.00  0.00    -0.275 OA
ATOM     13  C   UNL     1      -0.151   0.772   2.494  0.00  0.00    +0.024 C 
ATOM     14  C   UNL     1      -0.239   3.041   1.458  0.00  0.00    +0.024 C 
ENDROOT
BRANCH   4  15
ATOM     15  N   UNL     1      -1.969   6.725  -1.457  0.00  0.00    -0.281 N 
ATOM     16  C   UNL     1      -1.076   7.734  -1.433  0.00  0.00    +0.255 C 
ATOM     17  O   UNL     1       0.116   7.493  -1.439  0.00  0.00    -0.270 OA
ATOM     18  H   UNL     1      -2.917   6.917  -1.522  0.00  0.00    +0.155 HD
BRANCH  16  19
ATOM     19  C   UNL     1      -1.544   9.130  -1.401  0.00  0.00    +0.122 A 
ATOM     20  C   UNL     1      -2.898   9.419  -1.394  0.00  0.00    +0.031 A 
ATOM     21  C   UNL     1      -3.304  10.777  -1.362  0.00  0.00    +0.018 A 
ATOM     22  C   UNL     1      -4.668  11.106  -1.355  0.00  0.00    +0.011 A 
ATOM     23  C   UNL     1      -5.051  12.416  -1.325  0.00  0.00    +0.001 A 
ATOM     24  C   UNL     1      -4.101  13.427  -1.301  0.00  0.00    +0.004 A 
ATOM     25  C   UNL     1      -2.755  13.127  -1.308  0.00  0.00    +0.047 A 
ATOM     26  C   UNL     1      -2.339  11.801  -1.338  0.00  0.00    +0.139 A 
ATOM     27  O   UNL     1      -1.021  11.509  -1.345  0.00  0.00    -0.422 OA
ATOM     28  C   UNL     1      -0.584  10.239  -1.369  0.00  0.00    +0.350 A 
ATOM     29  O   UNL     1       0.611  10.008  -1.369  0.00  0.00    -0.244 OA
ENDBRANCH  16  19
ENDBRANCH   4  15
BRANCH   1  30
ATOM     30  C   UNL     1      -4.025   2.039  -0.207  0.00  0.00    +0.114 C 
BRANCH  30  31
ATOM     31  C   UNL     1      -4.256   1.049  -1.350  0.00  0.00    +0.022 C 
BRANCH  31  33
ATOM     32  C   UNL     1      -5.985   0.020  -2.832  0.00  0.00    +0.007 C 
ATOM     33  C   UNL     1      -5.758   0.912  -1.610  0.00  0.00    -0.016 C 
ATOM     34  C   UNL     1      -6.432   0.285  -0.388  0.00  0.00    +0.007 C 
ENDBRANCH  31  33
ENDBRANCH  30  31
ENDBRANCH   1  30
TORSDOF 5
