REMARK  Name = ZINC39659732
REMARK  7 active torsions:
REMARK  status: ('A' for Active; 'I' for Inactive)
REMARK    1  A    between atoms: C_1  and  C_2
REMARK    2  A    between atoms: C_2  and  C_3
REMARK    3  A    between atoms: C_3  and  C_4
REMARK    4  A    between atoms: C_4  and  C_6
REMARK    5  A    between atoms: C_4  and  C_7
REMARK    6  A    between atoms: C_11  and  C_20
REMARK    7  A    between atoms: N_22  and  C_23
REMARK                            x       y       z     vdW  Elec       q    Type
REMARK                         _______ _______ _______ _____ _____    ______ ____
ROOT
ATOM      1  C   UNL     1       1.315  -2.551  -2.247  0.00  0.00    +0.218 C 
ATOM      2  O   UNL     1       1.689  -1.681  -3.006  0.00  0.00    -0.275 OA
ATOM      3  N   UNL     1       1.443  -3.847  -2.593  0.00  0.00    -0.300 N 
ATOM      4  C   UNL     1       1.042  -5.040  -1.810  0.00  0.00    +0.121 C 
ATOM      5  C   UNL     1       0.462  -6.017  -2.857  0.00  0.00    +0.100 C 
ATOM      6  C   UNL     1       1.106  -5.594  -4.188  0.00  0.00    -0.004 C 
ATOM      7  C   UNL     1       2.010  -4.402  -3.845  0.00  0.00    +0.115 C 
ATOM      8  C   UNL     1       0.031  -5.165  -5.182  0.00  0.00    -0.010 C 
ATOM      9  C   UNL     1       0.691  -4.804  -6.516  0.00  0.00    -0.082 C 
ATOM     10  N   UNL     1       1.426  -5.966  -7.030  0.00  0.00    +0.379 N 
ATOM     11  C   UNL     1       2.517  -6.315  -6.112  0.00  0.00    -0.082 C 
ATOM     12  C   UNL     1       1.934  -6.740  -4.761  0.00  0.00    -0.010 C 
ATOM     13  H   UNL     1       0.797  -6.750  -7.115  0.00  0.00    -0.086 HD
ATOM     14  H   UNL     1       1.809  -5.746  -7.937  0.00  0.00    -0.086 HD
ENDROOT
BRANCH   5  15
ATOM     15  C   UNL     1      -1.037  -5.878  -2.929  0.00  0.00    +0.218 C 
ATOM     16  O   UNL     1      -1.560  -4.810  -2.690  0.00  0.00    -0.275 OA
ATOM     17  N   UNL     1      -1.797  -6.941  -3.259  0.00  0.00    -0.312 N 
ATOM     18  H   UNL     1      -1.379  -7.795  -3.450  0.00  0.00    +0.149 HD
BRANCH  17  19
ATOM     19  C   UNL     1      -3.254  -6.806  -3.330  0.00  0.00    +0.073 C 
ATOM     20  C   UNL     1      -3.852  -6.998  -1.934  0.00  0.00    +0.022 C 
ATOM     21  C   UNL     1      -5.290  -6.476  -1.920  0.00  0.00    +0.002 C 
ATOM     22  C   UNL     1      -5.353  -5.132  -2.648  0.00  0.00    +0.000 C 
ATOM     23  C   UNL     1      -6.167  -5.286  -3.934  0.00  0.00    +0.000 C 
ATOM     24  C   UNL     1      -5.320  -6.001  -4.990  0.00  0.00    +0.000 C 
ATOM     25  C   UNL     1      -5.252  -7.494  -4.663  0.00  0.00    +0.002 C 
ATOM     26  C   UNL     1      -3.819  -7.867  -4.277  0.00  0.00    +0.022 C 
ENDBRANCH  17  19
ENDBRANCH   5  15
BRANCH   1  27
ATOM     27  C   UNL     1       0.708  -2.182  -0.918  0.00  0.00    +0.072 C 
ATOM     28  C   UNL     1       1.546  -2.784   0.210  0.00  0.00    +0.017 C 
BRANCH  27  29
ATOM     29  C   UNL     1       0.680  -0.659  -0.776  0.00  0.00    +0.012 C 
BRANCH  29  31
ATOM     30  C   UNL     1      -0.076   1.242   0.658  0.00  0.00    +0.004 C 
ATOM     31  C   UNL     1      -0.048  -0.281   0.515  0.00  0.00    -0.003 C 
ENDBRANCH  29  31
ENDBRANCH  27  29
ENDBRANCH   1  27
TORSDOF 5
