REMARK  Name = ZINC12099847
REMARK  10 active torsions:
REMARK  status: ('A' for Active; 'I' for Inactive)
REMARK    1  A    between atoms: C_1  and  O_2
REMARK    2  A    between atoms: O_2  and  C_3
REMARK    3  A    between atoms: C_7  and  C_10
REMARK    4  A    between atoms: C_8  and  O_9
REMARK    5  A    between atoms: C_10  and  N_68
REMARK    6  A    between atoms: C_22  and  N_27
REMARK    7  A    between atoms: C_24  and  O_26
REMARK    8  A    between atoms: C_28  and  C_30
REMARK    9  A    between atoms: C_30  and  O_31
REMARK   10  A    between atoms: O_31  and  C_32
REMARK                            x       y       z     vdW  Elec       q    Type
REMARK                         _______ _______ _______ _____ _____    ______ ____
ROOT
ATOM      1  C   UNL     1       0.818  -0.506   1.197  0.00  0.00    -0.077 C 
ATOM      2  C   UNL     1       0.002  -0.004   0.002  0.00  0.00    -0.005 C 
ATOM      3  C   UNL     1      -0.019   1.522   0.010  0.00  0.00    +0.021 C 
ATOM      4  C   UNL     1       1.405   2.071  -0.000  0.00  0.00    -0.005 C 
ATOM      5  C   UNL     1       2.177   1.502   1.194  0.00  0.00    -0.077 C 
ATOM      6  C   UNL     1      -0.794   2.044  -1.175  0.00  0.00    -0.034 A 
ATOM      7  C   UNL     1      -0.432   2.168  -2.506  0.00  0.00    +0.004 A 
ATOM      8  C   UNL     1      -1.326   2.682  -3.425  0.00  0.00    +0.000 A 
ATOM      9  C   UNL     1      -2.587   3.074  -3.017  0.00  0.00    +0.000 A 
ATOM     10  C   UNL     1      -2.951   2.951  -1.690  0.00  0.00    +0.006 A 
ATOM     11  C   UNL     1      -2.056   2.436  -0.767  0.00  0.00    -0.021 A 
ATOM     12  C   UNL     1      -2.209   2.202   0.721  0.00  0.00    +0.133 C 
ATOM     13  C   UNL     1      -0.770   2.031   1.254  0.00  0.00    +0.149 C 
ATOM     14  N   UNL     1       2.194   0.027   1.094  0.00  0.00    +0.383 N 
ATOM     15  H   UNL     1       2.587  -0.240   0.183  0.00  0.00    -0.081 HD
ENDROOT
BRANCH  12  16
ATOM     16  N   UNL     1      -2.990   0.986   0.966  0.00  0.00    -0.303 N 
ATOM     17  C   UNL     1      -4.336   1.046   1.006  0.00  0.00    +0.251 C 
ATOM     18  O   UNL     1      -4.901   2.106   0.839  0.00  0.00    -0.272 OA
ATOM     19  H   UNL     1      -2.538   0.138   1.100  0.00  0.00    +0.149 HD
BRANCH  17  20
ATOM     20  C   UNL     1      -5.138  -0.204   1.258  0.00  0.00    +0.324 C 
BRANCH  20  21
ATOM     21  O   UNL     1      -6.531   0.115   1.254  0.00  0.00    -0.483 OA
BRANCH  21  22
ATOM     22  C   UNL     1      -7.399  -0.909   1.468  0.00  0.00    +0.121 A 
ATOM     23  C   UNL     1      -6.920  -2.195   1.673  0.00  0.00    +0.045 A 
ATOM     24  C   UNL     1      -7.805  -3.232   1.896  0.00  0.00    +0.004 A 
ATOM     25  C   UNL     1      -9.166  -2.992   1.905  0.00  0.00    +0.000 A 
ATOM     26  C   UNL     1      -9.646  -1.712   1.695  0.00  0.00    +0.004 A 
ATOM     27  C   UNL     1      -8.766  -0.670   1.477  0.00  0.00    +0.045 A 
ENDBRANCH  21  22
ENDBRANCH  20  21
ENDBRANCH  17  20
ENDBRANCH  12  16
BRANCH  13  28
ATOM     28  O   UNL     1      -0.239   3.283   1.692  0.00  0.00    -0.389 OA
ATOM     29  H   UNL     1      -0.679   3.645   2.473  0.00  0.00    +0.210 HD
ENDBRANCH  13  28
BRANCH  14  30
ATOM     30  C   UNL     1       3.036  -0.541   2.166  0.00  0.00    -0.039 C 
BRANCH  30  35
ATOM     31  C   UNL     1       6.254   1.449   2.040  0.00  0.00    +0.161 A 
ATOM     32  C   UNL     1       7.110   0.542   1.437  0.00  0.00    +0.049 A 
ATOM     33  C   UNL     1       6.647  -0.709   1.072  0.00  0.00    +0.004 A 
ATOM     34  C   UNL     1       5.331  -1.058   1.308  0.00  0.00    +0.005 A 
ATOM     35  C   UNL     1       4.471  -0.158   1.910  0.00  0.00    -0.019 A 
ATOM     36  C   UNL     1       4.927   1.100   2.272  0.00  0.00    +0.160 A 
BRANCH  31  38
ATOM     37  C   UNL     1       8.079   2.971   2.124  0.00  0.00    +0.277 C 
ATOM     38  O   UNL     1       6.707   2.680   2.399  0.00  0.00    -0.491 OA
ENDBRANCH  31  38
BRANCH  36  39
ATOM     39  O   UNL     1       4.081   1.989   2.858  0.00  0.00    -0.503 OA
ATOM     40  H   UNL     1       4.061   1.935   3.824  0.00  0.00    +0.292 HD
ENDBRANCH  36  39
ENDBRANCH  30  35
ENDBRANCH  14  30
TORSDOF 9
