REMARK  Name = ZINC08994417
REMARK  5 active torsions:
REMARK  status: ('A' for Active; 'I' for Inactive)
REMARK    1  A    between atoms: C_1  and  C_2
REMARK    2  A    between atoms: C_2  and  N_58
REMARK    3  A    between atoms: C_15  and  C_17
REMARK    4  A    between atoms: N_24  and  C_27
REMARK    5  A    between atoms: C_25  and  O_26
REMARK                            x       y       z     vdW  Elec       q    Type
REMARK                         _______ _______ _______ _____ _____    ______ ____
ROOT
ATOM      1  C   UNL     1      -0.711   1.752  -1.144  0.00  0.00    +0.069 A 
ATOM      2  C   UNL     1      -0.962   3.134  -1.222  0.00  0.00    +0.260 A 
ATOM      3  O   UNL     1      -0.599   3.875  -0.325  0.00  0.00    -0.267 OA
ATOM      4  N   UNL     1      -1.601   3.634  -2.298  0.00  0.00    -0.274 N 
ATOM      5  H   UNL     1      -1.773   4.617  -2.361  0.00  0.00    +0.173 HD
ATOM      6  C   UNL     1      -2.010   2.820  -3.289  0.00  0.00    +0.337 A 
ATOM      7  O   UNL     1      -2.589   3.290  -4.249  0.00  0.00    -0.246 OA
ATOM      8  N   UNL     1      -1.786   1.494  -3.233  0.00  0.00    -0.232 N 
ATOM      9  C   UNL     1      -1.133   0.944  -2.157  0.00  0.00    +0.208 A 
ENDROOT
BRANCH   1  22
ATOM     10  C   UNL     1       0.101   1.200   2.475  0.00  0.00    -0.073 C 
ATOM     11  C   UNL     1       1.337   2.104   2.578  0.00  0.00    +0.019 C 
ATOM     12  C   UNL     1       2.016   2.119   1.232  0.00  0.00    -0.022 A 
ATOM     13  C   UNL     1       3.352   2.549   0.884  0.00  0.00    +0.003 A 
ATOM     14  C   UNL     1       4.409   3.072   1.636  0.00  0.00    +0.010 A 
ATOM     15  C   UNL     1       5.564   3.374   0.959  0.00  0.00    +0.001 A 
ATOM     16  C   UNL     1       5.690   3.176  -0.407  0.00  0.00    +0.002 A 
ATOM     17  C   UNL     1       4.660   2.662  -1.176  0.00  0.00    +0.026 A 
ATOM     18  C   UNL     1       3.475   2.345  -0.515  0.00  0.00    +0.047 A 
ATOM     19  N   UNL     1       2.290   1.831  -0.958  0.00  0.00    -0.359 N 
ATOM     20  H   UNL     1       2.093   1.596  -1.878  0.00  0.00    +0.166 HD
ATOM     21  C   UNL     1       1.422   1.699   0.092  0.00  0.00    +0.011 A 
ATOM     22  C   UNL     1       0.007   1.172   0.047  0.00  0.00    +0.021 C 
ATOM     23  N   UNL     1      -0.683   1.603   1.286  0.00  0.00    +0.388 N 
ATOM     24  H   UNL     1      -0.774   2.626   1.278  0.00  0.00    -0.080 HD
BRANCH  23  26
ATOM     25  C   UNL     1      -1.941  -0.514   1.524  0.00  0.00    -0.017 C 
ATOM     26  C   UNL     1      -2.032   1.003   1.345  0.00  0.00    -0.081 C 
ENDBRANCH  23  26
ENDBRANCH   1  22
BRANCH   8  27
ATOM     27  C   UNL     1      -2.221   0.672  -4.277  0.00  0.00    +0.062 A 
ATOM     28  C   UNL     1      -3.479   0.111  -4.241  0.00  0.00    +0.027 A 
ATOM     29  C   UNL     1      -3.922  -0.709  -5.275  0.00  0.00    +0.003 A 
ATOM     30  C   UNL     1      -3.128  -0.979  -6.348  0.00  0.00    +0.008 A 
ATOM     31  C   UNL     1      -1.838  -0.426  -6.422  0.00  0.00    -0.016 A 
ATOM     32  C   UNL     1      -1.378   0.414  -5.378  0.00  0.00    +0.006 A 
ATOM     33  C   UNL     1      -0.088   0.962  -5.452  0.00  0.00    +0.010 A 
ATOM     34  C   UNL     1       0.701   0.687  -6.528  0.00  0.00    +0.001 A 
ATOM     35  C   UNL     1       0.247  -0.135  -7.558  0.00  0.00    +0.001 A 
ATOM     36  C   UNL     1      -0.996  -0.687  -7.517  0.00  0.00    +0.008 A 
ENDBRANCH   8  27
BRANCH   9  37
ATOM     37  O   UNL     1      -0.910  -0.387  -2.104  0.00  0.00    -0.493 OA
ATOM     38  H   UNL     1      -1.246  -0.872  -2.870  0.00  0.00    +0.294 HD
ENDBRANCH   9  37
TORSDOF 4
