REMARK  Name = ZINC09778979
REMARK  4 active torsions:
REMARK  status: ('A' for Active; 'I' for Inactive)
REMARK    1  A    between atoms: C_1  and  C_2
REMARK    2  A    between atoms: C_5  and  N_8
REMARK    3  A    between atoms: C_11  and  C_16
REMARK    4  A    between atoms: C_16  and  N_17
REMARK                            x       y       z     vdW  Elec       q    Type
REMARK                         _______ _______ _______ _____ _____    ______ ____
ROOT
ATOM      1  N   UNL     1      -4.663   2.982   3.985  0.00  0.00    -0.284 N 
ATOM      2  C   UNL     1      -3.850   2.033   3.397  0.00  0.00    +0.224 A 
ATOM      3  N   UNL     1      -3.447   2.188   2.137  0.00  0.00    -0.198 NA
ATOM      4  C   UNL     1      -2.669   1.281   1.574  0.00  0.00    +0.154 A 
ATOM      5  N   UNL     1      -2.291   0.214   2.256  0.00  0.00    -0.198 NA
ATOM      6  C   UNL     1      -2.685   0.054   3.518  0.00  0.00    +0.217 A 
ATOM      7  N   UNL     1      -3.468   0.964   4.087  0.00  0.00    -0.181 NA
ATOM      8  N   UNL     1      -2.286  -1.057   4.231  0.00  0.00    -0.327 N 
ATOM      9  H   UNL     1      -4.877   3.800   3.509  0.00  0.00    +0.155 HD
ATOM     10  H   UNL     1      -2.576  -1.175   5.149  0.00  0.00    +0.145 HD
ATOM     11  H   UNL     1      -1.714  -1.721   3.814  0.00  0.00    +0.145 HD
ENDROOT
BRANCH   1  16
ATOM     12  C   UNL     1      -6.756   2.095   9.182  0.00  0.00    +0.044 C 
ATOM     13  C   UNL     1      -6.201   2.331   7.801  0.00  0.00    -0.050 A 
ATOM     14  C   UNL     1      -5.888   3.615   7.393  0.00  0.00    +0.005 A 
ATOM     15  C   UNL     1      -5.378   3.834   6.128  0.00  0.00    +0.023 A 
ATOM     16  C   UNL     1      -5.180   2.763   5.266  0.00  0.00    +0.034 A 
ATOM     17  C   UNL     1      -5.500   1.476   5.677  0.00  0.00    +0.023 A 
ATOM     18  C   UNL     1      -6.004   1.263   6.945  0.00  0.00    +0.005 A 
ENDBRANCH   1  16
BRANCH   4  19
ATOM     19  C   UNL     1      -2.216   1.461   0.148  0.00  0.00    +0.194 C 
BRANCH  19  20
ATOM     20  N   UNL     1      -0.953   2.203   0.127  0.00  0.00    -0.217 N 
ATOM     21  C   UNL     1      -0.864   3.548   0.062  0.00  0.00    +0.251 C 
ATOM     22  O   UNL     1      -1.778   4.343   0.011  0.00  0.00    -0.272 OA
ATOM     23  C   UNL     1       0.614   3.852   0.061  0.00  0.00    +0.139 C 
ATOM     24  C   UNL     1       0.994   4.719   1.253  0.00  0.00    +0.040 C 
ATOM     25  C   UNL     1       0.439   6.136   1.071  0.00  0.00    +0.008 C 
ATOM     26  C   UNL     1       1.194   6.822  -0.077  0.00  0.00    +0.043 C 
ATOM     27  C   UNL     1       1.249   5.885  -1.239  0.00  0.00    -0.005 A 
ATOM     28  C   UNL     1       0.999   4.545  -1.235  0.00  0.00    -0.005 A 
ATOM     29  C   UNL     1       1.118   3.887  -2.458  0.00  0.00    +0.014 A 
ATOM     30  C   UNL     1       1.464   4.577  -3.569  0.00  0.00    +0.046 A 
ATOM     31  S   UNL     1       1.647   6.236  -2.930  0.00  0.00    -0.101 S 
ATOM     32  N   UNL     1       1.255   2.536   0.137  0.00  0.00    -0.281 N 
ATOM     33  C   UNL     1       0.257   1.631   0.174  0.00  0.00    +0.310 C 
ATOM     34  O   UNL     1       0.436   0.430   0.238  0.00  0.00    -0.252 OA
ATOM     35  H   UNL     1       2.208   2.353   0.155  0.00  0.00    +0.152 HD
ENDBRANCH  19  20
ENDBRANCH   4  19
TORSDOF 3
