REMARK  Name = ZINC10245012
REMARK  13 active torsions:
REMARK  status: ('A' for Active; 'I' for Inactive)
REMARK    1  A    between atoms: C_1  and  C_2
REMARK    2  A    between atoms: C_2  and  N_60
REMARK    3  A    between atoms: C_3  and  C_4
REMARK    4  A    between atoms: C_3  and  N_60
REMARK    5  A    between atoms: C_5  and  C_6
REMARK    6  A    between atoms: C_5  and  N_60
REMARK    7  A    between atoms: C_6  and  S_7
REMARK    8  A    between atoms: S_7  and  C_8
REMARK    9  A    between atoms: N_22  and  C_23
REMARK   10  A    between atoms: C_26  and  O_31
REMARK   11  A    between atoms: C_27  and  O_29
REMARK   12  A    between atoms: O_29  and  C_30
REMARK   13  A    between atoms: O_31  and  C_32
REMARK                            x       y       z     vdW  Elec       q    Type
REMARK                         _______ _______ _______ _____ _____    ______ ____
ROOT
ATOM      1  C   UNL     1      -1.394   3.156   0.571  0.00  0.00    +0.177 A 
ATOM      2  N   UNL     1      -0.359   3.963   0.507  0.00  0.00    -0.221 NA
ATOM      3  C   UNL     1       0.685   3.689  -0.292  0.00  0.00    +0.104 A 
ATOM      4  C   UNL     1       1.954   4.375  -0.575  0.00  0.00    +0.026 A 
ATOM      5  C   UNL     1       2.530   5.559  -0.114  0.00  0.00    +0.012 A 
ATOM      6  C   UNL     1       3.757   5.945  -0.576  0.00  0.00    +0.001 A 
ATOM      7  C   UNL     1       4.437   5.166  -1.501  0.00  0.00    +0.002 A 
ATOM      8  C   UNL     1       3.887   3.993  -1.970  0.00  0.00    +0.026 A 
ATOM      9  C   UNL     1       2.637   3.582  -1.513  0.00  0.00    +0.049 A 
ATOM     10  N   UNL     1       1.857   2.481  -1.798  0.00  0.00    -0.349 N 
ATOM     11  H   UNL     1       2.098   1.774  -2.417  0.00  0.00    +0.166 HD
ATOM     12  C   UNL     1       0.679   2.532  -1.070  0.00  0.00    +0.132 A 
ATOM     13  C   UNL     1      -0.438   1.675  -0.992  0.00  0.00    +0.283 A 
ATOM     14  O   UNL     1      -0.486   0.652  -1.656  0.00  0.00    -0.265 OA
ATOM     15  N   UNL     1      -1.457   2.013  -0.173  0.00  0.00    -0.254 N 
ENDROOT
BRANCH  15  16
ATOM     16  C   UNL     1      -2.582   1.181  -0.080  0.00  0.00    +0.056 A 
ATOM     17  C   UNL     1      -3.657   1.370  -0.939  0.00  0.00    +0.030 A 
ATOM     18  C   UNL     1      -4.765   0.548  -0.853  0.00  0.00    +0.051 A 
ATOM     19  C   UNL     1      -4.810  -0.458   0.099  0.00  0.00    +0.162 A 
ATOM     20  C   UNL     1      -3.737  -0.646   0.965  0.00  0.00    +0.163 A 
ATOM     21  C   UNL     1      -2.625   0.174   0.874  0.00  0.00    +0.075 A 
BRANCH  20  22
ATOM     22  O   UNL     1      -3.780  -1.633   1.898  0.00  0.00    -0.491 OA
ATOM     23  C   UNL     1      -2.643  -1.769   2.753  0.00  0.00    +0.277 C 
ENDBRANCH  20  22
BRANCH  19  24
ATOM     24  O   UNL     1      -5.904  -1.262   0.187  0.00  0.00    -0.491 OA
ATOM     25  C   UNL     1      -6.968  -1.013  -0.734  0.00  0.00    +0.277 C 
ENDBRANCH  19  24
ENDBRANCH  15  16
BRANCH   1  26
ATOM     26  S   UNL     1      -2.737   3.564   1.636  0.00  0.00    -0.089 S 
BRANCH  26  27
ATOM     27  C   UNL     1      -2.127   5.121   2.330  0.00  0.00    +0.059 C 
BRANCH  27  28
ATOM     28  C   UNL     1      -3.157   5.679   3.313  0.00  0.00    -0.068 C 
BRANCH  28  29
ATOM     29  N   UNL     1      -2.635   6.938   3.886  0.00  0.00    +0.380 N 
ATOM     30  H   UNL     1      -1.690   6.772   4.251  0.00  0.00    -0.082 HD
BRANCH  29  32
ATOM     31  C   UNL     1      -3.951   8.210   2.224  0.00  0.00    -0.017 C 
ATOM     32  C   UNL     1      -2.570   7.980   2.840  0.00  0.00    -0.082 C 
ENDBRANCH  29  32
BRANCH  29  33
ATOM     33  C   UNL     1      -3.506   7.388   4.993  0.00  0.00    -0.082 C 
ATOM     34  C   UNL     1      -2.790   8.503   5.759  0.00  0.00    -0.017 C 
ENDBRANCH  29  33
ENDBRANCH  28  29
ENDBRANCH  27  28
ENDBRANCH  26  27
ENDBRANCH   1  26
TORSDOF 9
