REMARK  Name = ZINC08972928
REMARK  6 active torsions:
REMARK  status: ('A' for Active; 'I' for Inactive)
REMARK    1  A    between atoms: C_4  and  C_7
REMARK    2  A    between atoms: C_7  and  S_8
REMARK    3  A    between atoms: S_8  and  C_11
REMARK    4  A    between atoms: C_14  and  C_16
REMARK    5  A    between atoms: N_21  and  S_22
REMARK    6  A    between atoms: S_22  and  C_25
REMARK                            x       y       z     vdW  Elec       q    Type
REMARK                         _______ _______ _______ _____ _____    ______ ____
ROOT
ATOM      1  C   UNL     1       1.239  -0.338   0.862  0.00  0.00    +0.167 C 
ATOM      2  C   UNL     1       0.002  -0.004   0.002  0.00  0.00    +0.031 C 
ATOM      3  C   UNL     1      -0.019   1.547   0.011  0.00  0.00    +0.019 C 
ATOM      4  C   UNL     1       1.494   1.879  -0.002  0.00  0.00    +0.110 C 
ATOM      5  N   UNL     1       2.115   0.844   0.844  0.00  0.00    -0.165 NA
ENDROOT
BRANCH   1   9
ATOM      6  C   UNL     1       2.744  -3.500  -0.055  0.00  0.00    +0.361 A 
ATOM      7  N   UNL     1       3.160  -2.707  -1.001  0.00  0.00    -0.090 NA
ATOM      8  N   UNL     1       2.694  -1.524  -0.802  0.00  0.00    -0.109 NA
ATOM      9  C   UNL     1       1.965  -1.522   0.278  0.00  0.00    +0.238 A 
ATOM     10  O   UNL     1       1.984  -2.769   0.778  0.00  0.00    -0.406 OA
BRANCH   6  11
ATOM     11  S   UNL     1       3.117  -5.214   0.107  0.00  0.00    +0.053 S 
ATOM     12  O   UNL     1       2.026  -5.754   0.841  0.00  0.00    -0.165 OA
ATOM     13  O   UNL     1       3.387  -5.653  -1.217  0.00  0.00    -0.165 OA
BRANCH  11  14
ATOM     14  C   UNL     1       4.630  -5.270   1.105  0.00  0.00    +0.212 C 
BRANCH  14  18
ATOM     15  C   UNL     1       5.806  -9.336   1.683  0.00  0.00    +0.000 A 
ATOM     16  C   UNL     1       6.275  -8.630   0.591  0.00  0.00    +0.000 A 
ATOM     17  C   UNL     1       5.895  -7.314   0.404  0.00  0.00    +0.005 A 
ATOM     18  C   UNL     1       5.045  -6.705   1.309  0.00  0.00    -0.026 A 
ATOM     19  C   UNL     1       4.580  -7.410   2.403  0.00  0.00    +0.005 A 
ATOM     20  C   UNL     1       4.956  -8.727   2.587  0.00  0.00    +0.000 A 
ENDBRANCH  14  18
ENDBRANCH  11  14
ENDBRANCH   6  11
ENDBRANCH   1   9
BRANCH   5  21
ATOM     21  S   UNL     1       3.558   0.988   1.644  0.00  0.00    +0.062 S 
ATOM     22  O   UNL     1       3.782   2.378   1.830  0.00  0.00    -0.153 OA
ATOM     23  O   UNL     1       3.514   0.071   2.729  0.00  0.00    -0.153 OA
BRANCH  21  24
ATOM     24  C   UNL     1       4.817   0.416   0.552  0.00  0.00    +0.106 A 
ATOM     25  C   UNL     1       5.188  -0.916   0.558  0.00  0.00    +0.029 A 
ATOM     26  C   UNL     1       6.174  -1.356  -0.300  0.00  0.00    +0.006 A 
ATOM     27  C   UNL     1       6.804  -0.470  -1.165  0.00  0.00    -0.044 A 
ATOM     28  C   UNL     1       6.434   0.856  -1.171  0.00  0.00    -0.042 A 
ATOM     29  C   UNL     1       5.440   1.297  -0.307  0.00  0.00    +0.032 A 
ATOM     30  C   UNL     1       7.062   1.868  -2.094  0.00  0.00    +0.035 C 
ATOM     31  C   UNL     1       8.388   1.346  -2.642  0.00  0.00    +0.005 C 
ATOM     32  C   UNL     1       8.156  -0.056  -3.219  0.00  0.00    +0.005 C 
ATOM     33  C   UNL     1       7.885  -1.015  -2.062  0.00  0.00    +0.035 C 
ENDBRANCH  21  24
ENDBRANCH   5  21
TORSDOF 6
