REMARK  Name = ZINC09885601
REMARK  10 active torsions:
REMARK  status: ('A' for Active; 'I' for Inactive)
REMARK    1  A    between atoms: C_1  and  C_2
REMARK    2  A    between atoms: C_4  and  C_14
REMARK    3  A    between atoms: C_5  and  C_13
REMARK    4  A    between atoms: N_6  and  C_7
REMARK    5  A    between atoms: C_7  and  C_8
REMARK    6  A    between atoms: C_14  and  C_16
REMARK    7  A    between atoms: C_16  and  N_17
REMARK    8  A    between atoms: C_20  and  C_24
REMARK    9  A    between atoms: C_20  and  C_25
REMARK   10  A    between atoms: C_29  and  N_31
REMARK                            x       y       z     vdW  Elec       q    Type
REMARK                         _______ _______ _______ _____ _____    ______ ____
ROOT
ATOM      1  N   UNL     1       5.801   3.002  -6.749  0.00  0.00    -0.216 N 
ATOM      2  C   UNL     1       4.889   3.510  -7.601  0.00  0.00    +0.251 C 
ATOM      3  O   UNL     1       3.733   3.165  -7.729  0.00  0.00    -0.272 OA
ATOM      4  C   UNL     1       5.607   4.603  -8.366  0.00  0.00    +0.135 C 
ATOM      5  N   UNL     1       6.971   4.578  -7.809  0.00  0.00    -0.281 N 
ATOM      6  C   UNL     1       6.985   3.611  -6.873  0.00  0.00    +0.310 C 
ATOM      7  O   UNL     1       7.965   3.324  -6.213  0.00  0.00    -0.252 OA
ATOM      8  C   UNL     1       5.631   4.286  -9.863  0.00  0.00    +0.047 C 
ATOM      9  H   UNL     1       7.713   5.146  -8.067  0.00  0.00    +0.152 HD
ENDROOT
BRANCH   4  10
ATOM     10  C   UNL     1       4.959   5.942  -8.120  0.00  0.00    -0.014 A 
ATOM     11  C   UNL     1       3.591   6.024  -7.940  0.00  0.00    +0.006 A 
ATOM     12  C   UNL     1       2.993   7.250  -7.714  0.00  0.00    +0.002 A 
ATOM     13  C   UNL     1       3.761   8.396  -7.668  0.00  0.00    +0.028 A 
ATOM     14  C   UNL     1       5.135   8.317  -7.848  0.00  0.00    +0.069 A 
ATOM     15  C   UNL     1       5.733   7.084  -8.070  0.00  0.00    +0.034 A 
BRANCH  14  16
ATOM     16  N   UNL     1       5.918   9.480  -7.802  0.00  0.00    -0.200 N 
ATOM     17  C   UNL     1       5.509  10.733  -7.507  0.00  0.00    +0.250 A 
ATOM     18  N   UNL     1       6.558  11.510  -7.576  0.00  0.00    -0.116 NA
ATOM     19  N   UNL     1       7.601  10.835  -7.903  0.00  0.00    -0.023 NA
ATOM     20  N   UNL     1       7.296   9.592  -8.059  0.00  0.00    -0.039 NA
ENDBRANCH  14  16
ENDBRANCH   4  10
BRANCH   1  21
ATOM     21  C   UNL     1       5.530   1.913  -5.807  0.00  0.00    +0.197 C 
BRANCH  21  22
ATOM     22  C   UNL     1       5.052   2.487  -4.498  0.00  0.00    +0.183 C 
ATOM     23  O   UNL     1       4.948   3.689  -4.365  0.00  0.00    -0.290 OA
BRANCH  22  27
ATOM     24  C   UNL     1       4.299  -1.687  -1.676  0.00  0.00    +0.063 C 
ATOM     25  C   UNL     1       4.386  -0.261  -2.154  0.00  0.00    +0.017 A 
ATOM     26  C   UNL     1       4.781   0.128  -3.377  0.00  0.00    +0.034 A 
ATOM     27  C   UNL     1       4.714   1.596  -3.387  0.00  0.00    +0.040 A 
ATOM     28  C   UNL     1       4.264   1.962  -2.132  0.00  0.00    +0.027 A 
ATOM     29  N   UNL     1       4.071   0.842  -1.413  0.00  0.00    -0.340 N 
ATOM     30  C   UNL     1       4.032   3.371  -1.653  0.00  0.00    +0.064 C 
BRANCH  29  31
ATOM     31  C   UNL     1       3.596   0.810  -0.028  0.00  0.00    +0.196 C 
BRANCH  31  32
ATOM     32  C   UNL     1       2.091   0.734  -0.014  0.00  0.00    +0.124 A 
ATOM     33  C   UNL     1       1.361  -0.395  -0.013  0.00  0.00    +0.046 A 
ATOM     34  C   UNL     1       0.002  -0.004   0.002  0.00  0.00    +0.041 A 
ATOM     35  C   UNL     1      -0.016   1.341   0.009  0.00  0.00    +0.195 A 
ATOM     36  O   UNL     1       1.252   1.783  -0.000  0.00  0.00    -0.466 OA
ENDBRANCH  31  32
ENDBRANCH  29  31
ENDBRANCH  22  27
ENDBRANCH  21  22
ENDBRANCH   1  21
TORSDOF 7
