REMARK  Name = ZINC20208110
REMARK  8 active torsions:
REMARK  status: ('A' for Active; 'I' for Inactive)
REMARK    1  A    between atoms: C_1  and  C_2
REMARK    2  A    between atoms: C_4  and  C_17
REMARK    3  A    between atoms: C_5  and  C_16
REMARK    4  A    between atoms: N_6  and  C_7
REMARK    5  A    between atoms: C_12  and  O_13
REMARK    6  A    between atoms: O_13  and  C_14
REMARK    7  A    between atoms: C_27  and  S_29
REMARK    8  A    between atoms: S_29  and  C_32
REMARK                            x       y       z     vdW  Elec       q    Type
REMARK                         _______ _______ _______ _____ _____    ______ ____
ROOT
ATOM      1  C   UNL     1       0.129  -3.413  -1.426  0.00  0.00    +0.026 C 
ATOM      2  C   UNL     1       0.589  -3.322  -2.724  0.00  0.00    +0.081 C 
ATOM      3  C   UNL     1       1.181  -2.066  -3.261  0.00  0.00    +0.153 C 
ATOM      4  N   UNL     1       1.873  -1.230  -2.531  0.00  0.00    -0.283 NA
ATOM      5  N   UNL     1       0.922  -1.866  -4.634  0.00  0.00    -0.150 N 
ATOM      6  C   UNL     1       0.637  -2.979  -5.396  0.00  0.00    +0.182 C 
ATOM      7  N   UNL     1       0.480  -4.210  -4.981  0.00  0.00    -0.152 NA
ATOM      8  C   UNL     1       0.524  -4.472  -3.658  0.00  0.00    +0.273 C 
ATOM      9  O   UNL     1       0.508  -5.620  -3.241  0.00  0.00    -0.268 OA
ATOM     10  S   UNL     1       0.524  -2.292  -7.027  0.00  0.00    -0.015 S 
ATOM     11  C   UNL     1       0.760  -0.578  -6.577  0.00  0.00    +0.235 C 
ATOM     12  N   UNL     1       0.941  -0.653  -5.289  0.00  0.00    -0.145 NA
ATOM     13  H   UNL     1       2.208  -0.408  -2.922  0.00  0.00    +0.188 HD
ENDROOT
BRANCH   1  17
ATOM     14  C   UNL     1      -0.265   1.422  -0.016  0.00  0.00    +0.064 C 
ATOM     15  C   UNL     1      -0.171  -0.082  -0.017  0.00  0.00    +0.022 A 
ATOM     16  C   UNL     1      -0.052  -0.854  -1.110  0.00  0.00    +0.031 A 
ATOM     17  C   UNL     1       0.005  -2.243  -0.634  0.00  0.00    -0.003 A 
ATOM     18  C   UNL     1      -0.088  -2.175   0.746  0.00  0.00    +0.028 A 
ATOM     19  N   UNL     1      -0.186  -0.877   1.095  0.00  0.00    -0.314 N 
ATOM     20  C   UNL     1      -0.076  -3.348   1.693  0.00  0.00    +0.064 C 
BRANCH  19  21
ATOM     21  C   UNL     1      -0.293  -0.408   2.413  0.00  0.00    +0.090 A 
ATOM     22  C   UNL     1      -1.542  -0.257   2.998  0.00  0.00    +0.049 A 
ATOM     23  C   UNL     1      -1.645   0.204   4.297  0.00  0.00    +0.043 A 
ATOM     24  C   UNL     1      -0.505   0.517   5.016  0.00  0.00    +0.024 A 
ATOM     25  C   UNL     1       0.742   0.368   4.439  0.00  0.00    +0.049 A 
ATOM     26  C   UNL     1       0.854  -0.099   3.139  0.00  0.00    +0.144 A 
ATOM     27 CL   UNL     1      -3.209   0.393   5.028  0.00  0.00    -0.083 Cl
BRANCH  26  28
ATOM     28  O   UNL     1       2.080  -0.250   2.572  0.00  0.00    -0.493 OA
ATOM     29  C   UNL     1       3.213   0.086   3.377  0.00  0.00    +0.277 C 
ENDBRANCH  26  28
ENDBRANCH  19  21
ENDBRANCH   1  17
BRANCH  11  30
ATOM     30  S   UNL     1       0.750   0.848  -7.611  0.00  0.00    +0.019 S 
ATOM     31  O   UNL     1      -0.155   0.530  -8.659  0.00  0.00    -0.168 OA
ATOM     32  O   UNL     1       0.486   1.932  -6.731  0.00  0.00    -0.168 OA
ATOM     33  C   UNL     1       2.440   0.966  -8.259  0.00  0.00    +0.202 C 
ENDBRANCH  11  30
TORSDOF 4
