REMARK  Name = ZINC23151325
REMARK  6 active torsions:
REMARK  status: ('A' for Active; 'I' for Inactive)
REMARK    1  A    between atoms: C_3  and  N_24
REMARK    2  A    between atoms: C_6  and  N_7
REMARK    3  A    between atoms: C_8  and  C_10
REMARK    4  A    between atoms: C_12  and  S_16
REMARK    5  A    between atoms: S_16  and  N_19
REMARK    6  A    between atoms: C_25  and  C_27
REMARK                            x       y       z     vdW  Elec       q    Type
REMARK                         _______ _______ _______ _____ _____    ______ ____
ROOT
ATOM      1  N   UNL     1      -1.593   3.482   5.936  0.00  0.00    -0.280 N 
ATOM      2  C   UNL     1      -0.606   3.133   5.087  0.00  0.00    +0.265 C 
ATOM      3  O   UNL     1       0.547   3.100   5.476  0.00  0.00    -0.268 OA
ATOM      4  H   UNL     1      -2.624   3.586   5.567  0.00  0.00    +0.155 HD
ENDROOT
BRANCH   1  10
ATOM      5  C   UNL     1      -2.231   3.366   8.262  0.00  0.00    +0.025 A 
ATOM      6  C   UNL     1      -1.946   3.590   9.595  0.00  0.00    +0.025 A 
ATOM      7  C   UNL     1      -0.738   4.171   9.958  0.00  0.00    +0.034 A 
ATOM      8  C   UNL     1       0.185   4.523   8.982  0.00  0.00    +0.025 A 
ATOM      9  C   UNL     1      -0.098   4.295   7.650  0.00  0.00    +0.025 A 
ATOM     10  C   UNL     1      -1.306   3.713   7.287  0.00  0.00    +0.034 A 
BRANCH   7  11
ATOM     11  N   UNL     1      -0.451   4.403  11.309  0.00  0.00    -0.283 N 
ATOM     12  C   UNL     1      -0.880   3.535  12.248  0.00  0.00    +0.246 C 
ATOM     13  O   UNL     1      -1.585   2.600  11.932  0.00  0.00    -0.273 OA
ATOM     14  H   UNL     1       0.124   5.293  11.605  0.00  0.00    +0.155 HD
BRANCH  12  15
ATOM     15  C   UNL     1      -0.484   3.728  13.689  0.00  0.00    +0.204 C 
ATOM     16  C   UNL     1      -1.096   5.034  14.231  0.00  0.00    +0.043 C 
ATOM     17  C   UNL     1      -1.958   4.578  15.434  0.00  0.00    +0.031 C 
ATOM     18  C   UNL     1      -1.333   3.203  15.778  0.00  0.00    +0.161 C 
ATOM     19  O   UNL     1      -1.002   2.650  14.486  0.00  0.00    -0.367 OA
ENDBRANCH  12  15
ENDBRANCH   7  11
ENDBRANCH   1  10
BRANCH   2  20
ATOM     20  C   UNL     1      -0.921   2.793   3.696  0.00  0.00    +0.104 A 
ATOM     21  C   UNL     1      -0.018   2.420   2.724  0.00  0.00    +0.061 A 
ATOM     22  C   UNL     1      -0.746   2.189   1.553  0.00  0.00    +0.123 A 
ATOM     23  C   UNL     1      -2.052   2.426   1.823  0.00  0.00    +0.112 A 
ATOM     24  N   UNL     1      -2.173   2.788   3.123  0.00  0.00    -0.355 N 
ATOM     25  H   UNL     1      -3.054   3.053   3.726  0.00  0.00    +0.166 HD
BRANCH  22  26
ATOM     26  S   UNL     1      -0.082   1.688  -0.001  0.00  0.00    +0.062 S 
ATOM     27  O   UNL     1       1.279   2.096  -0.011  0.00  0.00    -0.153 OA
ATOM     28  O   UNL     1      -1.010   2.104  -0.993  0.00  0.00    -0.153 OA
BRANCH  26  29
ATOM     29  N   UNL     1      -0.080   0.032  -0.020  0.00  0.00    -0.177 NA
ATOM     30  C   UNL     1       1.021  -0.829   0.434  0.00  0.00    +0.109 C 
ATOM     31  C   UNL     1       0.585  -2.291   0.205  0.00  0.00    +0.018 C 
ATOM     32  C   UNL     1      -0.501  -2.159  -0.895  0.00  0.00    +0.018 C 
ATOM     33  C   UNL     1      -1.180  -0.823  -0.502  0.00  0.00    +0.109 C 
ENDBRANCH  26  29
ENDBRANCH  22  26
ENDBRANCH   2  20
TORSDOF 6
