REMARK  Name = ZINC12503455
REMARK  9 active torsions:
REMARK  status: ('A' for Active; 'I' for Inactive)
REMARK    1  A    between atoms: C_1  and  C_2
REMARK    2  A    between atoms: C_7  and  O_8
REMARK    3  A    between atoms: O_8  and  C_9
REMARK    4  A    between atoms: C_9  and  C_10
REMARK    5  A    between atoms: N_12  and  C_13
REMARK    6  A    between atoms: C_13  and  N_15
REMARK    7  A    between atoms: N_15  and  N_16
REMARK    8  A    between atoms: C_17  and  C_19
REMARK    9  A    between atoms: C_19  and  C_20
REMARK                            x       y       z     vdW  Elec       q    Type
REMARK                         _______ _______ _______ _____ _____    ______ ____
ROOT
ATOM      1  N   UNL     1       2.366   1.214  -0.014  0.00  0.00    -0.246 N 
ATOM      2  H   UNL     1       2.379   0.244  -0.019  0.00  0.00    +0.172 HD
ENDROOT
BRANCH   1   3
ATOM      3  N   UNL     1       1.143   1.898   0.001  0.00  0.00    -0.235 N 
ATOM      4  C   UNL     1      -0.014   1.209   0.009  0.00  0.00    +0.233 C 
ATOM      5  O   UNL     1       0.002  -0.004   0.002  0.00  0.00    -0.274 OA
ATOM      6  H   UNL     1       1.130   2.868   0.007  0.00  0.00    +0.173 HD
BRANCH   4   7
ATOM      7  C   UNL     1      -1.330   1.944   0.019  0.00  0.00    +0.133 C 
BRANCH   7   8
ATOM      8  C   UNL     1      -2.462   0.950   0.019  0.00  0.00    -0.031 A 
ATOM      9  C   UNL     1      -3.049   0.581  -1.153  0.00  0.00    +0.005 A 
ATOM     10  C   UNL     1      -4.097  -0.337  -1.173  0.00  0.00    +0.001 A 
ATOM     11  C   UNL     1      -4.563  -0.893  -0.021  0.00  0.00    +0.008 A 
ATOM     12  C   UNL     1      -3.982  -0.537   1.208  0.00  0.00    -0.018 A 
ATOM     13  C   UNL     1      -2.913   0.393   1.228  0.00  0.00    -0.014 A 
ATOM     14  C   UNL     1      -2.334   0.751   2.457  0.00  0.00    +0.009 A 
ATOM     15  C   UNL     1      -2.801   0.196   3.608  0.00  0.00    +0.001 A 
ATOM     16  C   UNL     1      -3.849  -0.722   3.589  0.00  0.00    +0.001 A 
ATOM     17  C   UNL     1      -4.437  -1.090   2.418  0.00  0.00    +0.008 A 
ENDBRANCH   7   8
ENDBRANCH   4   7
ENDBRANCH   1   3
BRANCH   1  18
ATOM     18  C   UNL     1       3.524   1.904  -0.021  0.00  0.00    +0.153 C 
ATOM     19  S   UNL     1       5.018   1.068  -0.040  0.00  0.00    -0.017 S 
BRANCH  18  22
ATOM     20  C   UNL     1       4.664   3.941  -0.021  0.00  0.00    +0.256 C 
ATOM     21  O   UNL     1       5.722   3.350  -0.035  0.00  0.00    -0.272 OA
ATOM     22  N   UNL     1       3.506   3.252  -0.014  0.00  0.00    -0.264 N 
ATOM     23  H   UNL     1       2.659   3.725  -0.003  0.00  0.00    +0.157 HD
BRANCH  20  24
ATOM     24  C   UNL     1       4.643   5.448  -0.013  0.00  0.00    +0.325 C 
BRANCH  24  25
ATOM     25  O   UNL     1       5.984   5.943  -0.023  0.00  0.00    -0.482 OA
BRANCH  25  32
ATOM     26  C   UNL     1       8.626   6.941  -0.031  0.00  0.00    +0.047 C 
ATOM     27  C   UNL     1       7.418   7.841  -0.021  0.00  0.00    -0.007 A 
ATOM     28  C   UNL     1       7.578   9.213  -0.020  0.00  0.00    +0.027 A 
ATOM     29  C   UNL     1       6.469  10.040  -0.005  0.00  0.00    +0.041 A 
ATOM     30  C   UNL     1       5.197   9.495   0.004  0.00  0.00    +0.023 A 
ATOM     31  C   UNL     1       5.033   8.124  -0.002  0.00  0.00    +0.047 A 
ATOM     32  C   UNL     1       6.144   7.293  -0.017  0.00  0.00    +0.124 A 
ATOM     33 CL   UNL     1       6.673  11.764   0.003  0.00  0.00    -0.084 Cl
ENDBRANCH  25  32
ENDBRANCH  24  25
ENDBRANCH  20  24
ENDBRANCH  18  22
ENDBRANCH   1  18
TORSDOF 8
