REMARK  Name = ZINC22563847
REMARK  6 active torsions:
REMARK  status: ('A' for Active; 'I' for Inactive)
REMARK    1  A    between atoms: C_8  and  O_9
REMARK    2  A    between atoms: C_10  and  N_12
REMARK    3  A    between atoms: N_12  and  C_13
REMARK    4  A    between atoms: C_13  and  N_15
REMARK    5  A    between atoms: C_16  and  C_18
REMARK    6  A    between atoms: C_21  and  C_23
REMARK                            x       y       z     vdW  Elec       q    Type
REMARK                         _______ _______ _______ _____ _____    ______ ____
ROOT
ATOM      1  N   UNL     1       0.062  -4.114   0.183  0.00  0.00    -0.261 N 
ATOM      2  C   UNL     1      -1.095  -4.795   0.292  0.00  0.00    +0.285 C 
ATOM      3  O   UNL     1      -2.155  -4.197   0.307  0.00  0.00    -0.266 OA
ATOM      4  H   UNL     1       0.907  -4.591   0.172  0.00  0.00    +0.157 HD
ENDROOT
BRANCH   2   5
ATOM      5  C   UNL     1      -1.079  -6.256   0.394  0.00  0.00    +0.190 A 
ATOM      6  C   UNL     1      -2.184  -7.072   0.505  0.00  0.00    +0.055 A 
ATOM      7  C   UNL     1      -1.709  -8.386   0.574  0.00  0.00    +0.051 A 
ATOM      8  C   UNL     1      -0.347  -8.325   0.503  0.00  0.00    +0.137 A 
ATOM      9  O   UNL     1       0.022  -7.038   0.390  0.00  0.00    -0.450 OA
BRANCH   8  10
ATOM     10  C   UNL     1       0.569  -9.482   0.539  0.00  0.00    +0.037 A 
ATOM     11  C   UNL     1       0.438 -10.450   1.538  0.00  0.00    +0.033 A 
ATOM     12  C   UNL     1       1.298 -11.530   1.566  0.00  0.00    +0.042 A 
ATOM     13  C   UNL     1       2.289 -11.654   0.606  0.00  0.00    +0.021 A 
ATOM     14  C   UNL     1       2.425 -10.700  -0.385  0.00  0.00    +0.022 A 
ATOM     15  C   UNL     1       1.568  -9.618  -0.429  0.00  0.00    +0.052 A 
ATOM     16 CL   UNL     1       1.736  -8.424  -1.678  0.00  0.00    -0.083 Cl
ATOM     17 CL   UNL     1       1.136 -12.733   2.806  0.00  0.00    -0.084 Cl
ENDBRANCH   8  10
ENDBRANCH   2   5
BRANCH   1  18
ATOM     18  C   UNL     1       0.047  -2.770   0.089  0.00  0.00    +0.141 C 
ATOM     19  S   UNL     1      -1.444  -1.927   0.109  0.00  0.00    -0.018 S 
BRANCH  18  20
ATOM     20  N   UNL     1       1.204  -2.088  -0.021  0.00  0.00    -0.296 N 
ATOM     21  H   UNL     1       2.043  -2.568  -0.112  0.00  0.00    +0.154 HD
BRANCH  20  30
ATOM     22  C   UNL     1       0.418   1.379   0.947  0.00  0.00    +0.003 A 
ATOM     23  C   UNL     1       1.156   2.105   0.063  0.00  0.00    +0.012 A 
ATOM     24  C   UNL     1       1.948   1.451  -0.895  0.00  0.00    +0.025 A 
ATOM     25  C   UNL     1       1.971   0.035  -0.931  0.00  0.00    +0.007 A 
ATOM     26  C   UNL     1       2.763  -0.618  -1.890  0.00  0.00    +0.010 A 
ATOM     27  C   UNL     1       3.498   0.114  -2.772  0.00  0.00    +0.004 A 
ATOM     28  C   UNL     1       3.479   1.506  -2.741  0.00  0.00    +0.046 A 
ATOM     29  C   UNL     1       2.722   2.177  -1.823  0.00  0.00    +0.125 A 
ATOM     30  C   UNL     1       1.197  -0.693  -0.003  0.00  0.00    +0.040 A 
ATOM     31  C   UNL     1       0.433  -0.013   0.921  0.00  0.00    +0.024 A 
BRANCH  29  32
ATOM     32  O   UNL     1       2.714   3.536  -1.805  0.00  0.00    -0.506 OA
ATOM     33  H   UNL     1       3.391   3.925  -1.236  0.00  0.00    +0.292 HD
ENDBRANCH  29  32
ENDBRANCH  20  30
ENDBRANCH  18  20
ENDBRANCH   1  18
TORSDOF 6
