REMARK  Name = ZINC26772203
REMARK  13 active torsions:
REMARK  status: ('A' for Active; 'I' for Inactive)
REMARK    1  A    between atoms: C_1  and  C_2
REMARK    2  A    between atoms: C_6  and  O_21
REMARK    3  A    between atoms: C_7  and  C_20
REMARK    4  A    between atoms: C_12  and  C_13
REMARK    5  A    between atoms: C_13  and  C_14
REMARK    6  A    between atoms: O_21  and  C_22
REMARK    7  A    between atoms: C_22  and  C_23
REMARK    8  A    between atoms: N_25  and  CA_26
REMARK    9  A    between atoms: CA_26  and  CB_28
REMARK   10  A    between atoms: CA_26  and  C_32
REMARK   11  A    between atoms: CB_28  and  CG_29
REMARK   12  A    between atoms: CG_29  and  CD1_30
REMARK   13  A    between atoms: CG_29  and  CD2_31
REMARK                            x       y       z     vdW  Elec       q    Type
REMARK                         _______ _______ _______ _____ _____    ______ ____
ROOT
ATOM      1  C   UNK A   0      -9.169  -5.211   2.075  0.00  0.00    +0.045 C 
ATOM      2  C   UNK A   0      -8.386  -4.669   3.242  0.00  0.00    -0.030 A 
ATOM      3  C   UNK A   0      -7.310  -3.696   3.039  0.00  0.00    +0.021 A 
ATOM      4  C   UNK A   0      -6.980  -3.245   1.756  0.00  0.00    +0.015 A 
ATOM      5  C   UNK A   0      -5.972  -2.339   1.595  0.00  0.00    +0.047 A 
ATOM      6  C   UNK A   0      -5.269  -1.861   2.699  0.00  0.00    +0.128 A 
ATOM      7  C   UNK A   0      -5.579  -2.301   3.975  0.00  0.00    +0.034 A 
ATOM      8  C   UNK A   0      -6.604  -3.217   4.158  0.00  0.00    +0.146 A 
ATOM      9  O   UNK A   0      -6.925  -3.657   5.394  0.00  0.00    -0.422 OA
ATOM     10  C   UNK A   0      -7.910  -4.548   5.587  0.00  0.00    +0.341 A 
ATOM     11  O   UNK A   0      -8.164  -4.915   6.720  0.00  0.00    -0.245 OA
ATOM     12  C   UNK A   0      -8.658  -5.069   4.512  0.00  0.00    +0.045 A 
ATOM     13  C   UNK A   0      -4.808  -1.782   5.162  0.00  0.00    +0.051 C 
ENDROOT
BRANCH  12  14
ATOM     14  C   UNK A   0      -9.756  -6.069   4.770  0.00  0.00    +0.077 C 
BRANCH  14  15
ATOM     15  C   UNK A   0      -9.187  -7.464   4.721  0.00  0.00    -0.043 A 
ATOM     16  C   UNK A   0      -9.159  -8.158   3.526  0.00  0.00    +0.004 A 
ATOM     17  C   UNK A   0      -8.633  -9.435   3.481  0.00  0.00    +0.000 A 
ATOM     18  C   UNK A   0      -8.144 -10.022   4.632  0.00  0.00    +0.000 A 
ATOM     19  C   UNK A   0      -8.176  -9.330   5.829  0.00  0.00    +0.000 A 
ATOM     20  C   UNK A   0      -8.698  -8.051   5.873  0.00  0.00    +0.004 A 
ENDBRANCH  14  15
ENDBRANCH  12  14
BRANCH   6  21
ATOM     21  O   UNK A   0      -4.269  -0.960   2.522  0.00  0.00    -0.482 OA
BRANCH  21  22
ATOM     22  C   UNK A   0      -3.996  -0.550   1.181  0.00  0.00    +0.324 C 
BRANCH  22  23
ATOM     23  C   UNK A   0      -2.864   0.445   1.181  0.00  0.00    +0.251 C 
ATOM     24  O   UNK A   0      -2.343   0.771   2.227  0.00  0.00    -0.272 OA
ATOM     25  N   LEU A   1      -2.430   0.973   0.019  0.00  0.00    -0.299 N 
ATOM     26  H   LEU A   1      -2.902   0.677  -0.929  0.00  0.00    +0.150 HD
BRANCH  25  27
ATOM     27  CA  LEU A   1      -1.329   1.940   0.019  0.00  0.00    +0.187 C 
BRANCH  27  28
ATOM     28  C   LEU A   1      -0.014   1.204   0.009  0.00  0.00    +0.376 C 
ATOM     29  O   LEU A   1       0.002  -0.004   0.002  0.00  0.00    -0.244 OA
ATOM     30  OXT LEU A   1       1.139   1.891   0.001  0.00  0.00    -0.244 OA
ENDBRANCH  27  28
BRANCH  27  31
ATOM     31  CB  LEU A   1      -1.428   2.825  -1.225  0.00  0.00    +0.037 C 
BRANCH  31  32
ATOM     32  CG  LEU A   1      -2.705   3.665  -1.153  0.00  0.00    -0.015 C 
ATOM     33  CD1 LEU A   1      -2.612   4.634   0.027  0.00  0.00    +0.007 C 
ATOM     34  CD2 LEU A   1      -2.869   4.457  -2.452  0.00  0.00    +0.007 C 
ENDBRANCH  31  32
ENDBRANCH  27  31
ENDBRANCH  25  27
ENDBRANCH  22  23
ENDBRANCH  21  22
ENDBRANCH   6  21
TORSDOF 9
