REMARK  Name = ZINC56828063
REMARK  8 active torsions:
REMARK  status: ('A' for Active; 'I' for Inactive)
REMARK    1  A    between atoms: C_1  and  C_2
REMARK    2  A    between atoms: C_2  and  C_4
REMARK    3  A    between atoms: C_2  and  N_13
REMARK    4  A    between atoms: C_4  and  C_5
REMARK    5  A    between atoms: C_5  and  C_6
REMARK    6  A    between atoms: C_9  and  O_12
REMARK    7  A    between atoms: C_24  and  N_25
REMARK    8  A    between atoms: C_26  and  C_28
REMARK                            x       y       z     vdW  Elec       q    Type
REMARK                         _______ _______ _______ _____ _____    ______ ____
ROOT
ATOM      1  N   UNL     1      -1.359  -0.530   0.030  0.00  0.00    -0.297 N 
ATOM      2  C   UNL     1      -2.041  -0.655  -1.126  0.00  0.00    +0.303 C 
ATOM      3  O   UNL     1      -1.549  -0.265  -2.167  0.00  0.00    -0.253 OA
ATOM      4  N   UNL     1      -3.267  -1.214  -1.128  0.00  0.00    -0.281 N 
ATOM      5  C   UNL     1      -3.991  -1.468  -2.385  0.00  0.00    +0.114 C 
ATOM      6  C   UNL     1      -4.165  -2.980  -2.529  0.00  0.00    +0.056 C 
ATOM      7  C   UNL     1      -4.671  -3.586  -1.246  0.00  0.00    -0.020 A 
ATOM      8  C   UNL     1      -4.555  -2.959  -0.027  0.00  0.00    -0.025 A 
ATOM      9  C   UNL     1      -5.030  -3.583   1.119  0.00  0.00    +0.005 A 
ATOM     10  C   UNL     1      -5.629  -4.824   1.048  0.00  0.00    +0.002 A 
ATOM     11  C   UNL     1      -5.758  -5.455  -0.173  0.00  0.00    +0.023 A 
ATOM     12  C   UNL     1      -5.280  -4.839  -1.319  0.00  0.00    +0.037 A 
ATOM     13  C   UNL     1      -3.933  -1.598   0.122  0.00  0.00    +0.144 C 
ATOM     14  H   UNL     1      -1.780  -0.773   0.870  0.00  0.00    +0.151 HD
ENDROOT
BRANCH  12  15
ATOM     15  N   UNL     1      -5.409  -5.478  -2.557  0.00  0.00    -0.285 N 
ATOM     16  C   UNL     1      -6.495  -6.234  -2.816  0.00  0.00    +0.214 C 
ATOM     17  O   UNL     1      -7.319  -6.428  -1.948  0.00  0.00    -0.276 OA
ATOM     18  C   UNL     1      -6.684  -6.838  -4.183  0.00  0.00    +0.109 C 
ATOM     19  H   UNL     1      -4.717  -5.378  -3.230  0.00  0.00    +0.155 HD
ENDBRANCH  12  15
BRANCH   1  21
ATOM     20  C   UNL     1      -0.000   1.503   0.033  0.00  0.00    +0.028 C 
ATOM     21  C   UNL     1       0.016  -0.026   0.019  0.00  0.00    +0.072 C 
BRANCH  21  22
ATOM     22  C   UNL     1       0.758  -0.540   1.255  0.00  0.00    +0.026 C 
BRANCH  22  23
ATOM     23  C   UNL     1       0.883  -2.063   1.178  0.00  0.00    +0.037 C 
BRANCH  23  24
ATOM     24  C   UNL     1       1.613  -2.569   2.396  0.00  0.00    -0.047 A 
ATOM     25  C   UNL     1       2.991  -2.680   2.377  0.00  0.00    +0.007 A 
ATOM     26  C   UNL     1       3.663  -3.144   3.492  0.00  0.00    +0.045 A 
ATOM     27  C   UNL     1       2.954  -3.498   4.631  0.00  0.00    +0.117 A 
ATOM     28  C   UNL     1       1.571  -3.385   4.647  0.00  0.00    +0.045 A 
ATOM     29  C   UNL     1       0.904  -2.915   3.531  0.00  0.00    +0.007 A 
BRANCH  27  30
ATOM     30  O   UNL     1       3.612  -3.954   5.728  0.00  0.00    -0.507 OA
ATOM     31  H   UNL     1       3.874  -3.259   6.347  0.00  0.00    +0.292 HD
ENDBRANCH  27  30
ENDBRANCH  23  24
ENDBRANCH  22  23
ENDBRANCH  21  22
ENDBRANCH   1  21
TORSDOF 6
