REMARK  Name = ZINC20418472
REMARK  7 active torsions:
REMARK  status: ('A' for Active; 'I' for Inactive)
REMARK    1  A    between atoms: C_1  and  C_2
REMARK    2  A    between atoms: C_7  and  C_8
REMARK    3  A    between atoms: C_8  and  N_9
REMARK    4  A    between atoms: C_10  and  C_29
REMARK    5  A    between atoms: C_11  and  N_16
REMARK    6  A    between atoms: C_12  and  C_15
REMARK    7  A    between atoms: C_17  and  C_19
REMARK                            x       y       z     vdW  Elec       q    Type
REMARK                         _______ _______ _______ _____ _____    ______ ____
ROOT
ATOM      1  N   UNL     1       0.581   3.405  -0.122  0.00  0.00    -0.265 N 
ATOM      2  C   UNL     1       0.994   2.082  -0.212  0.00  0.00    +0.038 C 
ATOM      3  C   UNL     1      -0.023   1.247  -0.074  0.00  0.00    +0.047 C 
ATOM      4  C   UNL     1      -1.262   2.094   0.125  0.00  0.00    +0.115 C 
ATOM      5  N   UNL     1      -0.767   3.484   0.085  0.00  0.00    -0.232 NA
ATOM      6  C   UNL     1      -1.899   1.796   1.483  0.00  0.00    +0.032 C 
ATOM      7  C   UNL     1       2.421   1.653  -0.438  0.00  0.00    +0.063 C 
ATOM      8  H   UNL     1      -1.217   4.002  -0.655  0.00  0.00    +0.145 HD
ENDROOT
BRANCH   3   9
ATOM      9  N   UNL     1       0.034  -0.151  -0.112  0.00  0.00    -0.281 N 
ATOM     10  C   UNL     1      -0.719  -0.833  -0.997  0.00  0.00    +0.270 C 
ATOM     11  O   UNL     1      -1.378  -0.233  -1.823  0.00  0.00    -0.268 OA
ATOM     12  H   UNL     1       0.695  -0.693   0.581  0.00  0.00    +0.155 HD
BRANCH  10  13
ATOM     13  C   UNL     1      -0.743  -2.315  -0.963  0.00  0.00    +0.171 A 
ATOM     14  C   UNL     1      -1.474  -3.177  -1.814  0.00  0.00    +0.027 A 
ATOM     15  C   UNL     1      -1.171  -4.418  -1.379  0.00  0.00    +0.141 A 
ATOM     16  O   UNL     1      -0.318  -4.269  -0.362  0.00  0.00    -0.359 OA
ATOM     17  N   UNL     1      -0.086  -3.100  -0.140  0.00  0.00    -0.073 NA
ATOM     18  C   UNL     1      -1.715  -5.700  -1.954  0.00  0.00    +0.077 C 
ATOM     19  C   UNL     1      -1.609  -5.649  -3.481  0.00  0.00    +0.008 C 
ATOM     20  C   UNL     1      -2.867  -5.013  -4.067  0.00  0.00    +0.001 C 
ATOM     21  C   UNL     1      -3.417  -3.936  -3.136  0.00  0.00    +0.005 C 
ATOM     22  C   UNL     1      -2.374  -2.826  -2.962  0.00  0.00    +0.041 C 
ENDBRANCH  10  13
ENDBRANCH   3   9
BRANCH   1  23
ATOM     23  C   UNL     1       1.472   4.563  -0.235  0.00  0.00    +0.159 C 
BRANCH  23  30
ATOM     24  C   UNL     1       3.327   6.643  -0.994  0.00  0.00    +0.044 C 
ATOM     25  C   UNL     1       2.539   5.913  -2.051  0.00  0.00    -0.046 A 
ATOM     26  C   UNL     1       2.708   6.237  -3.385  0.00  0.00    +0.003 A 
ATOM     27  C   UNL     1       1.982   5.571  -4.355  0.00  0.00    +0.000 A 
ATOM     28  C   UNL     1       1.090   4.579  -3.991  0.00  0.00    +0.000 A 
ATOM     29  C   UNL     1       0.925   4.253  -2.658  0.00  0.00    +0.005 A 
ATOM     30  C   UNL     1       1.652   4.918  -1.688  0.00  0.00    -0.026 A 
ENDBRANCH  23  30
ENDBRANCH   1  23
TORSDOF 4
