REMARK  Name = ZINC00891483
REMARK  10 active torsions:
REMARK  status: ('A' for Active; 'I' for Inactive)
REMARK    1  A    between atoms: C_1  and  C_2
REMARK    2  A    between atoms: C_7  and  C_8
REMARK    3  A    between atoms: C_8  and  C_9
REMARK    4  A    between atoms: C_9  and  N_10
REMARK    5  A    between atoms: N_10  and  C_11
REMARK    6  A    between atoms: N_10  and  C_28
REMARK    7  A    between atoms: C_11  and  C_12
REMARK    8  A    between atoms: C_28  and  N_30
REMARK    9  A    between atoms: N_30  and  C_31
REMARK   10  A    between atoms: C_31  and  C_32
REMARK                            x       y       z     vdW  Elec       q    Type
REMARK                         _______ _______ _______ _____ _____    ______ ____
ROOT
ATOM      1  N   UNL     1       4.037   2.562  -1.404  0.00  0.00    -0.308 N 
ENDROOT
BRANCH   1   2
ATOM      2  C   UNL     1       3.657   3.711  -1.996  0.00  0.00    +0.133 C 
ATOM      3  S   UNL     1       2.823   4.904  -1.093  0.00  0.00    -0.019 S 
BRANCH   2   4
ATOM      4  N   UNL     1       3.932   3.922  -3.298  0.00  0.00    -0.324 N 
ATOM      5  H   UNL     1       4.405   3.247  -3.809  0.00  0.00    +0.148 HD
BRANCH   4   6
ATOM      6  C   UNL     1       3.518   5.172  -3.941  0.00  0.00    +0.134 C 
BRANCH   6   7
ATOM      7  C   UNL     1       3.950   5.157  -5.409  0.00  0.00    +0.135 C 
ATOM      8  C   UNL     1       3.636   6.515  -6.075  0.00  0.00    +0.035 C 
ATOM      9  C   UNL     1       3.191   6.137  -7.506  0.00  0.00    +0.031 C 
ATOM     10  C   UNL     1       3.288   4.595  -7.534  0.00  0.00    +0.160 C 
ATOM     11  O   UNL     1       3.174   4.193  -6.152  0.00  0.00    -0.375 OA
ENDBRANCH   6   7
ENDBRANCH   4   6
ENDBRANCH   2   4
ENDBRANCH   1   2
BRANCH   1  12
ATOM     12  C   UNL     1       4.857   1.596  -2.139  0.00  0.00    +0.112 C 
BRANCH  12  13
ATOM     13  C   UNL     1       3.947   0.614  -2.880  0.00  0.00    +0.054 C 
BRANCH  13  20
ATOM     14  C   UNL     1       4.944  -1.747  -1.546  0.00  0.00    +0.044 C 
ATOM     15  C   UNL     1       5.268  -1.509  -2.999  0.00  0.00    -0.047 A 
ATOM     16  C   UNL     1       6.042  -2.420  -3.693  0.00  0.00    +0.003 A 
ATOM     17  C   UNL     1       6.338  -2.202  -5.025  0.00  0.00    +0.000 A 
ATOM     18  C   UNL     1       5.861  -1.073  -5.663  0.00  0.00    +0.000 A 
ATOM     19  C   UNL     1       5.083  -0.164  -4.971  0.00  0.00    +0.004 A 
ATOM     20  C   UNL     1       4.791  -0.379  -3.637  0.00  0.00    -0.043 A 
ENDBRANCH  13  20
ENDBRANCH  12  13
ENDBRANCH   1  12
BRANCH   1  21
ATOM     21  C   UNL     1       3.631   2.278  -0.025  0.00  0.00    +0.147 C 
BRANCH  21  22
ATOM     22  C   UNL     1       2.402   1.406  -0.033  0.00  0.00    +0.035 A 
ATOM     23  C   UNL     1       2.529   0.058   0.064  0.00  0.00    +0.020 A 
ATOM     24  C   UNL     1       1.318  -0.761   0.054  0.00  0.00    +0.003 A 
ATOM     25  C   UNL     1       1.388  -2.156   0.152  0.00  0.00    +0.059 A 
ATOM     26  C   UNL     1       0.229  -2.903   0.139  0.00  0.00    +0.163 A 
ATOM     27  C   UNL     1      -1.013  -2.272   0.030  0.00  0.00    +0.164 A 
ATOM     28  C   UNL     1      -1.092  -0.893  -0.067  0.00  0.00    +0.075 A 
ATOM     29  C   UNL     1       0.066  -0.127  -0.056  0.00  0.00    +0.053 A 
ATOM     30  N   UNL     1       0.005   1.249  -0.151  0.00  0.00    -0.322 N 
ATOM     31  H   UNL     1      -0.857   1.685  -0.231  0.00  0.00    +0.169 HD
ATOM     32  C   UNL     1       1.125   1.992  -0.141  0.00  0.00    +0.254 A 
ATOM     33  O   UNL     1       1.034   3.205  -0.227  0.00  0.00    -0.268 OA
ATOM     34  O   UNL     1      -2.162  -3.001   0.020  0.00  0.00    -0.485 OA
ATOM     35  C   UNL     1      -2.035  -4.399  -0.259  0.00  0.00    +0.270 C 
ATOM     36  C   UNL     1      -0.884  -4.956   0.589  0.00  0.00    +0.270 C 
ATOM     37  O   UNL     1       0.314  -4.260   0.231  0.00  0.00    -0.485 OA
ENDBRANCH  21  22
ENDBRANCH   1  21
TORSDOF 9
