REMARK  Name = ZINC65976238
REMARK  9 active torsions:
REMARK  status: ('A' for Active; 'I' for Inactive)
REMARK    1  A    between atoms: C_1  and  C_2
REMARK    2  A    between atoms: C_2  and  C_3
REMARK    3  A    between atoms: C_2  and  C_4
REMARK    4  A    between atoms: C_7  and  C_10
REMARK    5  A    between atoms: C_10  and  C_11
REMARK    6  A    between atoms: C_10  and  O_27
REMARK    7  A    between atoms: C_11  and  N_12
REMARK    8  A    between atoms: C_15  and  C_19
REMARK    9  A    between atoms: C_15  and  C_20
REMARK                            x       y       z     vdW  Elec       q    Type
REMARK                         _______ _______ _______ _____ _____    ______ ____
ROOT
ATOM      1  N   UNL     1      -6.813  -3.917   0.662  0.00  0.00    -0.221 N 
ATOM      2  C   UNL     1      -7.680  -3.734   1.678  0.00  0.00    +0.251 C 
ATOM      3  O   UNL     1      -7.477  -3.141   2.716  0.00  0.00    -0.272 OA
ATOM      4  C   UNL     1      -8.961  -4.423   1.252  0.00  0.00    +0.138 C 
ATOM      5  N   UNL     1      -8.637  -4.965  -0.079  0.00  0.00    -0.281 N 
ATOM      6  C   UNL     1      -7.365  -4.614  -0.338  0.00  0.00    +0.310 C 
ATOM      7  O   UNL     1      -6.780  -4.901  -1.364  0.00  0.00    -0.252 OA
ATOM      8  C   UNL     1      -9.312  -5.553   2.223  0.00  0.00    +0.047 C 
ATOM      9  H   UNL     1      -9.227  -5.474  -0.657  0.00  0.00    +0.152 HD
ENDROOT
BRANCH   4  10
ATOM     10  C   UNL     1     -10.092  -3.431   1.160  0.00  0.00    +0.020 A 
ATOM     11  C   UNL     1     -10.750  -3.243  -0.040  0.00  0.00    +0.009 A 
ATOM     12  C   UNL     1     -11.787  -2.333  -0.125  0.00  0.00    +0.001 A 
ATOM     13  C   UNL     1     -12.167  -1.610   0.991  0.00  0.00    +0.003 A 
ATOM     14  C   UNL     1     -11.510  -1.797   2.192  0.00  0.00    +0.039 A 
ATOM     15  C   UNL     1     -10.475  -2.712   2.280  0.00  0.00    +0.129 A 
ATOM     16  F   UNL     1      -9.835  -2.899   3.455  0.00  0.00    -0.205 F 
ENDBRANCH   4  10
BRANCH   1  17
ATOM     17  C   UNL     1      -5.439  -3.409   0.651  0.00  0.00    +0.154 C 
BRANCH  17  18
ATOM     18  C   UNL     1      -5.419  -2.005   0.043  0.00  0.00    +0.162 C 
BRANCH  18  22
ATOM     19  C   UNL     1      -1.412  -0.526   0.013  0.00  0.00    -0.045 A 
ATOM     20  C   UNL     1      -2.259  -0.204   1.056  0.00  0.00    +0.004 A 
ATOM     21  C   UNL     1      -3.556  -0.683   1.066  0.00  0.00    +0.006 A 
ATOM     22  C   UNL     1      -4.006  -1.482   0.032  0.00  0.00    -0.018 A 
ATOM     23  C   UNL     1      -3.159  -1.803  -1.012  0.00  0.00    +0.006 A 
ATOM     24  C   UNL     1      -1.863  -1.321  -1.024  0.00  0.00    +0.004 A 
BRANCH  19  26
ATOM     25  C   UNL     1      -0.019   1.526   0.010  0.00  0.00    +0.012 C 
ATOM     26  C   UNL     1       0.002  -0.004   0.002  0.00  0.00    +0.013 C 
ATOM     27  C   UNL     1       0.742  -0.511   1.242  0.00  0.00    +0.012 C 
ENDBRANCH  19  26
ENDBRANCH  18  22
BRANCH  18  28
ATOM     28  O   UNL     1      -5.918  -2.058  -1.295  0.00  0.00    -0.386 OA
ATOM     29  H   UNL     1      -5.407  -2.630  -1.883  0.00  0.00    +0.210 HD
ENDBRANCH  18  28
ENDBRANCH  17  18
ENDBRANCH   1  17
TORSDOF 6
