REMARK  Name = ZINC34690841
REMARK  6 active torsions:
REMARK  status: ('A' for Active; 'I' for Inactive)
REMARK    1  A    between atoms: C_1  and  C_2
REMARK    2  A    between atoms: C_2  and  C_3
REMARK    3  A    between atoms: C_3  and  N_4
REMARK    4  A    between atoms: C_5  and  C_7
REMARK    5  A    between atoms: C_11  and  C_24
REMARK    6  A    between atoms: C_14  and  C_16
REMARK                            x       y       z     vdW  Elec       q    Type
REMARK                         _______ _______ _______ _____ _____    ______ ____
ROOT
ATOM      1  C   UNL     1       2.602  -2.811   2.999  0.00  0.00    +0.173 C 
ATOM      2  C   UNL     1       3.884  -2.647   2.145  0.00  0.00    +0.103 C 
ATOM      3  S   UNL     1       5.049  -3.707   3.112  0.00  0.00    -0.136 S 
ATOM      4  C   UNL     1       3.775  -4.876   3.763  0.00  0.00    +0.138 C 
ATOM      5  N   UNL     1       2.595  -3.993   3.845  0.00  0.00    -0.273 N 
ATOM      6  C   UNL     1       1.562  -4.271   4.665  0.00  0.00    +0.250 C 
ATOM      7  O   UNL     1       1.555  -5.305   5.304  0.00  0.00    -0.270 OA
ENDROOT
BRANCH   6   8
ATOM      8  C   UNL     1       0.438  -3.321   4.786  0.00  0.00    +0.055 A 
ATOM      9  C   UNL     1      -0.216  -2.859   3.642  0.00  0.00    +0.016 A 
ATOM     10  C   UNL     1      -1.264  -1.972   3.762  0.00  0.00    +0.021 A 
ATOM     11  C   UNL     1      -1.669  -1.537   5.013  0.00  0.00    +0.042 A 
ATOM     12  C   UNL     1      -1.025  -1.990   6.152  0.00  0.00    +0.040 A 
ATOM     13  C   UNL     1       0.022  -2.884   6.046  0.00  0.00    +0.054 A 
ATOM     14 CL   UNL     1       0.824  -3.457   7.475  0.00  0.00    -0.083 Cl
ATOM     15 CL   UNL     1      -2.990  -0.419   5.155  0.00  0.00    -0.083 Cl
ENDBRANCH   6   8
BRANCH   4  16
ATOM     16  C   UNL     1       4.166  -5.403   5.145  0.00  0.00    +0.020 C 
ATOM     17  C   UNL     1       4.212  -4.241   6.139  0.00  0.00    +0.006 C 
ATOM     18  C   UNL     1       4.603  -4.768   7.521  0.00  0.00    +0.000 C 
ATOM     19  C   UNL     1       5.981  -5.428   7.444  0.00  0.00    +0.000 C 
ATOM     20  C   UNL     1       5.935  -6.590   6.449  0.00  0.00    +0.000 C 
ATOM     21  C   UNL     1       5.544  -6.063   5.067  0.00  0.00    +0.006 C 
ENDBRANCH   4  16
BRANCH   1  23
ATOM     22  N   UNL     1       2.367  -0.370   3.318  0.00  0.00    -0.314 N 
ATOM     23  C   UNL     1       2.451  -1.595   3.875  0.00  0.00    +0.234 C 
ATOM     24  O   UNL     1       2.406  -1.717   5.080  0.00  0.00    -0.274 OA
ATOM     25  H   UNL     1       2.403  -0.272   2.354  0.00  0.00    +0.149 HD
BRANCH  22  26
ATOM     26  C   UNL     1       2.220   0.813   4.170  0.00  0.00    +0.104 C 
BRANCH  26  28
ATOM     27  C   UNL     1       1.996   3.301   4.184  0.00  0.00    +0.005 C 
ATOM     28  C   UNL     1       2.149   2.066   3.295  0.00  0.00    +0.015 C 
ENDBRANCH  26  28
ENDBRANCH  22  26
ENDBRANCH   1  23
TORSDOF 5
