REMARK  Name = ZINC39495717
REMARK  8 active torsions:
REMARK  status: ('A' for Active; 'I' for Inactive)
REMARK    1  A    between atoms: C_1  and  S_2
REMARK    2  A    between atoms: S_2  and  C_3
REMARK    3  A    between atoms: C_6  and  C_17
REMARK    4  A    between atoms: C_7  and  C_10
REMARK    5  A    between atoms: C_15  and  O_16
REMARK    6  A    between atoms: C_17  and  C_19
REMARK    7  A    between atoms: C_17  and  N_22
REMARK    8  A    between atoms: C_19  and  C_20
REMARK                            x       y       z     vdW  Elec       q    Type
REMARK                         _______ _______ _______ _____ _____    ______ ____
ROOT
ATOM      1  C   UNL     1      -3.272  -3.207   3.026  0.00  0.00    +0.021 A 
ATOM      2  C   UNL     1      -3.790  -1.927   3.189  0.00  0.00    +0.016 A 
ATOM      3  C   UNL     1      -4.622  -1.387   2.226  0.00  0.00    +0.007 A 
ATOM      4  C   UNL     1      -4.942  -2.115   1.097  0.00  0.00    -0.018 A 
ATOM      5  C   UNL     1      -4.427  -3.398   0.925  0.00  0.00    +0.005 A 
ATOM      6  C   UNL     1      -3.584  -3.942   1.891  0.00  0.00    +0.035 A 
ATOM      7  I   UNL     1      -2.797  -5.867   1.637  0.00  0.00    -0.042 I 
ENDROOT
BRANCH   5   8
ATOM      8  C   UNL     1      -4.771  -4.181  -0.287  0.00  0.00    +0.025 A 
ATOM      9  C   UNL     1      -3.973  -4.094  -1.426  0.00  0.00    +0.012 A 
ATOM     10  C   UNL     1      -4.297  -4.824  -2.551  0.00  0.00    +0.001 A 
ATOM     11  C   UNL     1      -5.413  -5.643  -2.553  0.00  0.00    +0.004 A 
ATOM     12  C   UNL     1      -6.212  -5.736  -1.429  0.00  0.00    +0.046 A 
ATOM     13  C   UNL     1      -5.894  -5.013  -0.290  0.00  0.00    +0.125 A 
BRANCH  13  14
ATOM     14  O   UNL     1      -6.675  -5.109   0.817  0.00  0.00    -0.506 OA
ATOM     15  H   UNL     1      -7.396  -4.466   0.846  0.00  0.00    +0.292 HD
ENDBRANCH  13  14
ENDBRANCH   5   8
BRANCH   1  17
ATOM     16  C   UNL     1      -2.102  -2.590   5.515  0.00  0.00    +0.090 C 
ATOM     17  S   UNL     1      -2.212  -3.892   4.256  0.00  0.00    -0.128 S 
ENDBRANCH   1  17
BRANCH   4  18
ATOM     18  C   UNL     1      -5.849  -1.520   0.051  0.00  0.00    +0.110 C 
BRANCH  18  19
ATOM     19  N   UNL     1      -6.628  -0.429   0.642  0.00  0.00    -0.311 N 
ATOM     20  C   UNL     1      -7.769  -0.700   1.307  0.00  0.00    +0.326 C 
ATOM     21  O   UNL     1      -8.151  -1.846   1.415  0.00  0.00    -0.280 OA
ATOM     22  H   UNL     1      -6.323   0.487   0.555  0.00  0.00    +0.149 HD
ENDBRANCH  18  19
BRANCH  18  23
ATOM     23  C   UNL     1      -5.007  -0.977  -1.105  0.00  0.00    +0.097 C 
BRANCH  23  24
ATOM     24  C   UNL     1      -5.916  -0.494  -2.206  0.00  0.00    +0.225 C 
ATOM     25  O   UNL     1      -5.818   0.637  -2.618  0.00  0.00    -0.301 OA
ENDBRANCH  23  24
ENDBRANCH  18  23
ENDBRANCH   4  18
TORSDOF 7
