REMARK  Name = ZINC66598015
REMARK  12 active torsions:
REMARK  status: ('A' for Active; 'I' for Inactive)
REMARK    1  A    between atoms: C_1  and  C_2
REMARK    2  A    between atoms: C_2  and  C_3
REMARK    3  A    between atoms: C_3  and  C_4
REMARK    4  A    between atoms: C_4  and  N_5
REMARK    5  A    between atoms: C_10  and  C_12
REMARK    6  A    between atoms: C_12  and  N_13
REMARK    7  A    between atoms: N_16  and  C_17
REMARK    8  A    between atoms: C_17  and  C_19
REMARK    9  A    between atoms: C_17  and  C_20
REMARK   10  A    between atoms: C_21  and  C_27
REMARK   11  A    between atoms: N_23  and  C_26
REMARK   12  A    between atoms: C_24  and  C_25
REMARK                            x       y       z     vdW  Elec       q    Type
REMARK                         _______ _______ _______ _____ _____    ______ ____
ROOT
ATOM      1  N   UNL     1      -0.448  -3.886  -1.189  0.00  0.00    -0.301 N 
ATOM      2  C   UNL     1       0.460  -4.008  -2.177  0.00  0.00    +0.300 C 
ATOM      3  O   UNL     1       0.147  -4.529  -3.230  0.00  0.00    -0.253 OA
ATOM      4  N   UNL     1       1.716  -3.552  -1.998  0.00  0.00    -0.293 N 
ATOM      5  H   UNL     1      -0.199  -3.470  -0.349  0.00  0.00    +0.150 HD
ATOM      6  H   UNL     1       1.966  -3.136  -1.158  0.00  0.00    +0.151 HD
ENDROOT
BRANCH   4   7
ATOM      7  C   UNL     1       2.704  -3.685  -3.072  0.00  0.00    +0.105 C 
ATOM      8  C   UNL     1       2.570  -2.505  -4.036  0.00  0.00    +0.033 C 
BRANCH   7   9
ATOM      9  C   UNL     1       4.090  -3.696  -2.481  0.00  0.00    +0.016 A 
ATOM     10  C   UNL     1       4.568  -2.835  -1.487  0.00  0.00    +0.065 A 
ATOM     11  N   UNL     1       5.812  -3.152  -1.236  0.00  0.00    -0.176 NA
ATOM     12  N   UNL     1       6.166  -4.226  -2.063  0.00  0.00    -0.271 N 
ATOM     13  C   UNL     1       5.090  -4.545  -2.813  0.00  0.00    +0.041 A 
ATOM     14  C   UNL     1       5.017  -5.645  -3.839  0.00  0.00    +0.065 C 
ATOM     15  C   UNL     1       7.471  -4.890  -2.102  0.00  0.00    +0.172 C 
ATOM     16  C   UNL     1       3.785  -1.733  -0.821  0.00  0.00    +0.068 C 
ENDBRANCH   7   9
ENDBRANCH   4   7
BRANCH   1  17
ATOM     17  C   UNL     1      -1.813  -4.381  -1.384  0.00  0.00    +0.090 C 
BRANCH  17  23
ATOM     18  N   UNL     1      -2.021  -4.517   1.051  0.00  0.00    +0.383 N 
ATOM     19  C   UNL     1      -2.870  -4.238   2.215  0.00  0.00    -0.078 C 
ATOM     20  C   UNL     1      -3.022  -2.725   2.390  0.00  0.00    -0.019 C 
ATOM     21  C   UNL     1      -3.666  -2.134   1.133  0.00  0.00    -0.003 C 
ATOM     22  C   UNL     1      -2.811  -2.495  -0.085  0.00  0.00    -0.014 C 
ATOM     23  C   UNL     1      -2.667  -4.016  -0.168  0.00  0.00    -0.051 C 
ATOM     24  H   UNL     1      -1.129  -4.060   1.170  0.00  0.00    -0.081 HD
BRANCH  18  25
ATOM     25  C   UNL     1      -1.814  -5.966   0.933  0.00  0.00    -0.078 C 
BRANCH  25  26
ATOM     26  C   UNL     1      -1.016  -6.467   2.138  0.00  0.00    -0.019 C 
BRANCH  26  28
ATOM     27  C   UNL     1      -0.002  -8.478   3.221  0.00  0.00    +0.004 C 
ATOM     28  C   UNL     1      -0.800  -7.977   2.016  0.00  0.00    -0.005 C 
ENDBRANCH  26  28
ENDBRANCH  25  26
ENDBRANCH  18  25
ENDBRANCH  17  23
ENDBRANCH   1  17
TORSDOF 7
