REMARK  Name = ZINC00710631
REMARK  6 active torsions:
REMARK  status: ('A' for Active; 'I' for Inactive)
REMARK    1  A    between atoms: C_1  and  O_2
REMARK    2  A    between atoms: O_2  and  C_3
REMARK    3  A    between atoms: C_5  and  C_12
REMARK    4  A    between atoms: C_8  and  O_9
REMARK    5  A    between atoms: O_9  and  C_10
REMARK    6  A    between atoms: C_17  and  C_22
REMARK                            x       y       z     vdW  Elec       q    Type
REMARK                         _______ _______ _______ _____ _____    ______ ____
ROOT
ATOM      1  C   UNL     1       2.214   0.509  -3.627  0.00  0.00    +0.136 C 
ATOM      2  C   UNL     1       1.326   0.959  -2.490  0.00  0.00    +0.036 C 
ATOM      3  C   UNL     1      -0.007   1.111  -2.544  0.00  0.00    +0.017 C 
ATOM      4  C   UNL     1      -0.772   1.612  -1.330  0.00  0.00    +0.059 C 
ATOM      5  C   UNL     1      -0.096   1.121  -0.050  0.00  0.00    +0.032 C 
ATOM      6  C   UNL     1       1.334   1.673  -0.038  0.00  0.00    +0.088 C 
ATOM      7  C   UNL     1       2.028   1.231  -1.292  0.00  0.00    +0.163 C 
ATOM      8  O   UNL     1       3.236   1.103  -1.279  0.00  0.00    -0.292 OA
ATOM      9  N   UNL     1      -0.775   0.862  -3.635  0.00  0.00    -0.316 N 
ATOM     10  C   UNL     1      -0.486   1.298  -4.923  0.00  0.00    +0.052 A 
ATOM     11  C   UNL     1      -1.322   2.155  -5.617  0.00  0.00    +0.025 A 
ATOM     12  C   UNL     1      -1.032   2.465  -6.936  0.00  0.00    +0.002 A 
ATOM     13  C   UNL     1       0.082   1.924  -7.551  0.00  0.00    +0.002 A 
ATOM     14  C   UNL     1       0.929   1.083  -6.851  0.00  0.00    +0.025 A 
ATOM     15  C   UNL     1       0.652   0.784  -5.527  0.00  0.00    +0.049 A 
ATOM     16  N   UNL     1       1.500  -0.021  -4.769  0.00  0.00    -0.331 N 
ATOM     17  H   UNL     1      -1.584   0.343  -3.506  0.00  0.00    +0.152 HD
ATOM     18  H   UNL     1       1.614  -0.954  -5.011  0.00  0.00    +0.147 HD
ENDROOT
BRANCH   1  21
ATOM     19  C   UNL     1       5.171   2.735  -4.386  0.00  0.00    +0.163 A 
ATOM     20  C   UNL     1       4.413   1.656  -3.960  0.00  0.00    +0.055 A 
ATOM     21  C   UNL     1       3.036   1.686  -4.086  0.00  0.00    -0.018 A 
ATOM     22  C   UNL     1       2.412   2.795  -4.627  0.00  0.00    +0.025 A 
ATOM     23  C   UNL     1       3.163   3.877  -5.050  0.00  0.00    +0.063 A 
ATOM     24  C   UNL     1       4.544   3.850  -4.931  0.00  0.00    +0.175 A 
ATOM     25 BR   UNL     1       2.306   5.391  -5.789  0.00  0.00    -0.046 Br
BRANCH  19  27
ATOM     26  C   UNL     1       7.101   1.526  -3.700  0.00  0.00    +0.277 C 
ATOM     27  O   UNL     1       6.526   2.704  -4.269  0.00  0.00    -0.491 OA
ENDBRANCH  19  27
BRANCH  24  28
ATOM     28  O   UNL     1       5.284   4.913  -5.347  0.00  0.00    -0.490 OA
ATOM     29  C   UNL     1       5.547   5.937  -4.385  0.00  0.00    +0.277 C 
ENDBRANCH  24  28
ENDBRANCH   1  21
BRANCH   5  30
ATOM     30  C   UNL     1      -0.849   1.628   1.153  0.00  0.00    -0.044 A 
ATOM     31  C   UNL     1      -1.002   2.987   1.351  0.00  0.00    +0.004 A 
ATOM     32  C   UNL     1      -1.697   3.452   2.452  0.00  0.00    +0.000 A 
ATOM     33  C   UNL     1      -2.230   2.557   3.361  0.00  0.00    +0.000 A 
ATOM     34  C   UNL     1      -2.072   1.197   3.166  0.00  0.00    +0.000 A 
ATOM     35  C   UNL     1      -1.382   0.733   2.062  0.00  0.00    +0.004 A 
ENDBRANCH   5  30
TORSDOF 4
