REMARK  Name = ZINC09472923
REMARK  14 active torsions:
REMARK  status: ('A' for Active; 'I' for Inactive)
REMARK    1  A    between atoms: C_1  and  C_2
REMARK    2  A    between atoms: C_2  and  O_3
REMARK    3  A    between atoms: O_3  and  C_4
REMARK    4  A    between atoms: C_4  and  C_6
REMARK    5  A    between atoms: C_10  and  N_11
REMARK    6  A    between atoms: C_12  and  C_14
REMARK    7  A    between atoms: C_14  and  C_15
REMARK    8  A    between atoms: C_15  and  C_16
REMARK    9  A    between atoms: C_16  and  S_17
REMARK   10  A    between atoms: S_17  and  C_18
REMARK   11  A    between atoms: C_21  and  C_24
REMARK   12  A    between atoms: C_28  and  C_29
REMARK   13  A    between atoms: C_28  and  C_30
REMARK   14  A    between atoms: C_28  and  N_63
REMARK                            x       y       z     vdW  Elec       q    Type
REMARK                         _______ _______ _______ _____ _____    ______ ____
ROOT
ATOM      1  C   UNL     1       7.409  -8.869  -0.120  0.00  0.00    +0.091 A 
ATOM      2  C   UNL     1       7.293 -10.315  -0.121  0.00  0.00    -0.025 A 
ATOM      3  C   UNL     1       6.029 -10.794  -0.112  0.00  0.00    -0.021 A 
ATOM      4  S   UNL     1       5.001  -9.354  -0.094  0.00  0.00    -0.079 S 
ATOM      5  C   UNL     1       6.231  -8.133  -0.099  0.00  0.00    +0.086 A 
ATOM      6  C   UNL     1       5.624 -12.235  -0.118  0.00  0.00    -0.035 C 
ATOM      7  C   UNL     1       7.973 -12.657   0.301  0.00  0.00    -0.073 C 
ATOM      8  C   UNL     1       8.475 -11.278  -0.136  0.00  0.00    +0.018 C 
ATOM      9  N   UNL     1       6.805 -13.036  -0.521  0.00  0.00    +0.384 N 
ATOM     10  H   UNL     1       7.016 -12.848  -1.508  0.00  0.00    -0.081 HD
ENDROOT
BRANCH   5  11
ATOM     11  N   UNL     1       6.076  -6.755  -0.091  0.00  0.00    -0.279 N 
ATOM     12  C   UNL     1       4.841  -6.216  -0.076  0.00  0.00    +0.218 C 
ATOM     13  O   UNL     1       3.865  -6.936  -0.070  0.00  0.00    -0.275 OA
ATOM     14  H   UNL     1       6.857  -6.180  -0.096  0.00  0.00    +0.155 HD
BRANCH  12  15
ATOM     15  C   UNL     1       4.673  -4.718  -0.067  0.00  0.00    +0.097 C 
BRANCH  15  16
ATOM     16  C   UNL     1       3.182  -4.373  -0.051  0.00  0.00    +0.020 C 
BRANCH  16  17
ATOM     17  C   UNL     1       3.012  -2.852  -0.042  0.00  0.00    +0.075 C 
BRANCH  17  18
ATOM     18  S   UNL     1       1.245  -2.442  -0.022  0.00  0.00    -0.125 S 
BRANCH  18  19
ATOM     19  C   UNL     1       1.216  -0.681  -0.013  0.00  0.00    +0.008 A 
ATOM     20  C   UNL     1       0.002  -0.004   0.002  0.00  0.00    +0.015 A 
ATOM     21  C   UNL     1      -0.017   1.377   0.010  0.00  0.00    +0.004 A 
ATOM     22  C   UNL     1       1.171   2.086   0.002  0.00  0.00    -0.050 A 
ATOM     23  C   UNL     1       2.380   1.416  -0.013  0.00  0.00    +0.004 A 
ATOM     24  C   UNL     1       2.407   0.035  -0.021  0.00  0.00    +0.015 A 
ATOM     25  C   UNL     1       1.146   3.593   0.010  0.00  0.00    +0.044 C 
ENDBRANCH  18  19
ENDBRANCH  17  18
ENDBRANCH  16  17
ENDBRANCH  15  16
ENDBRANCH  12  15
ENDBRANCH   5  11
BRANCH   9  26
ATOM     26  C   UNL     1       6.518 -14.478  -0.358  0.00  0.00    -0.074 C 
ATOM     27  C   UNL     1       6.180 -14.794   1.100  0.00  0.00    -0.014 C 
ATOM     28  C   UNL     1       5.331 -14.852  -1.249  0.00  0.00    -0.014 C 
ENDBRANCH   9  26
BRANCH   1  29
ATOM     29  C   UNL     1       8.717  -8.211  -0.137  0.00  0.00    +0.342 C 
ATOM     30  O   UNL     1       9.277  -7.942   0.909  0.00  0.00    -0.245 OA
BRANCH  29  31
ATOM     31  O   UNL     1       9.302  -7.902  -1.313  0.00  0.00    -0.461 OA
BRANCH  31  33
ATOM     32  C   UNL     1      11.099  -6.981  -2.674  0.00  0.00    +0.048 C 
ATOM     33  C   UNL     1      10.598  -7.251  -1.254  0.00  0.00    +0.229 C 
ENDBRANCH  31  33
ENDBRANCH  29  31
ENDBRANCH   1  29
TORSDOF 10
