REMARK  Name = ZINC49770902
REMARK  5 active torsions:
REMARK  status: ('A' for Active; 'I' for Inactive)
REMARK    1  A    between atoms: C_7  and  C_11
REMARK    2  A    between atoms: C_14  and  N_16
REMARK    3  A    between atoms: C_17  and  C_19
REMARK    4  A    between atoms: C_19  and  N_20
REMARK    5  A    between atoms: C_24  and  C_26
REMARK                            x       y       z     vdW  Elec       q    Type
REMARK                         _______ _______ _______ _____ _____    ______ ____
ROOT
ATOM      1  N   UNL     1      -2.833  -4.101  -0.002  0.00  0.00    -0.188 NA
ATOM      2  C   UNL     1      -3.485  -5.228  -0.001  0.00  0.00    +0.232 C 
ATOM      3  O   UNL     1      -2.812  -6.396  -0.008  0.00  0.00    -0.273 OA
ENDROOT
BRANCH   1   7
ATOM      4  C   UNL     1       0.679  -3.264  -0.022  0.00  0.00    +0.082 A 
ATOM      5  C   UNL     1       1.176  -4.539  -0.028  0.00  0.00    +0.077 A 
ATOM      6  S   UNL     1      -0.340  -5.488  -0.021  0.00  0.00    -0.056 S 
ATOM      7  C   UNL     1      -1.470  -4.103  -0.010  0.00  0.00    +0.196 A 
ATOM      8  N   UNL     1      -0.629  -3.077  -0.007  0.00  0.00    -0.221 NA
BRANCH   4  15
ATOM      9  C   UNL     1      -0.017   1.363   0.009  0.00  0.00    +0.001 A 
ATOM     10  C   UNL     1       1.170   2.083   0.002  0.00  0.00    +0.002 A 
ATOM     11  C   UNL     1       2.385   1.435  -0.013  0.00  0.00    +0.026 A 
ATOM     12  C   UNL     1       2.426   0.043  -0.021  0.00  0.00    +0.047 A 
ATOM     13  C   UNL     1       1.222  -0.680  -0.013  0.00  0.00    +0.009 A 
ATOM     14  C   UNL     1       0.002  -0.004   0.002  0.00  0.00    +0.010 A 
ATOM     15  C   UNL     1       1.601  -2.102  -0.025  0.00  0.00    +0.026 A 
ATOM     16  C   UNL     1       2.954  -2.144  -0.038  0.00  0.00    +0.093 A 
ATOM     17  N   UNL     1       3.456  -0.871  -0.036  0.00  0.00    -0.360 N 
ATOM     18  H   UNL     1       4.399  -0.646  -0.044  0.00  0.00    +0.165 HD
ENDBRANCH   4  15
ENDBRANCH   1   7
BRANCH   2  19
ATOM     19  C   UNL     1      -4.992  -5.227   0.008  0.00  0.00    +0.024 C 
BRANCH  19  20
ATOM     20  N   UNL     1      -5.480  -3.841   0.015  0.00  0.00    +0.390 N 
ATOM     21  C   UNL     1      -5.102  -3.188   1.281  0.00  0.00    -0.077 C 
ATOM     22  C   UNL     1      -6.407  -2.735   1.969  0.00  0.00    -0.020 C 
ATOM     23  C   UNL     1      -7.412  -2.649   0.790  0.00  0.00    -0.013 C 
ATOM     24  C   UNL     1      -6.955  -3.833  -0.098  0.00  0.00    -0.037 C 
ATOM     25  H   UNL     1      -5.078  -3.335  -0.760  0.00  0.00    -0.080 HD
BRANCH  24  26
ATOM     26  C   UNL     1      -7.370  -3.607  -1.529  0.00  0.00    -0.057 A 
ATOM     27  C   UNL     1      -6.680  -2.702  -2.313  0.00  0.00    +0.006 A 
ATOM     28  C   UNL     1      -7.059  -2.491  -3.625  0.00  0.00    +0.049 A 
ATOM     29  C   UNL     1      -8.133  -3.187  -4.159  0.00  0.00    +0.162 A 
ATOM     30  C   UNL     1      -8.825  -4.099  -3.371  0.00  0.00    +0.162 A 
ATOM     31  C   UNL     1      -8.437  -4.309  -2.056  0.00  0.00    +0.051 A 
ATOM     32  O   UNL     1      -9.878  -4.799  -3.877  0.00  0.00    -0.485 OA
ATOM     33  C   UNL     1     -10.466  -4.295  -5.081  0.00  0.00    +0.270 C 
ATOM     34  C   UNL     1      -9.336  -3.953  -6.061  0.00  0.00    +0.270 C 
ATOM     35  O   UNL     1      -8.497  -2.966  -5.452  0.00  0.00    -0.485 OA
ENDBRANCH  24  26
ENDBRANCH  19  20
ENDBRANCH   2  19
TORSDOF 5
