REMARK  Name = ZINC58171215
REMARK  5 active torsions:
REMARK  status: ('A' for Active; 'I' for Inactive)
REMARK    1  A    between atoms: C_6  and  C_7
REMARK    2  A    between atoms: C_7  and  C_8
REMARK    3  A    between atoms: N_13  and  C_14
REMARK    4  A    between atoms: C_14  and  C_15
REMARK    5  A    between atoms: C_15  and  C_16
REMARK                            x       y       z     vdW  Elec       q    Type
REMARK                         _______ _______ _______ _____ _____    ______ ____
ROOT
ATOM      1  C   UNL     1      -1.745  -1.028  -1.429  0.00  0.00    -0.064 C 
ATOM      2  C   UNL     1      -3.026  -1.887  -1.434  0.00  0.00    -0.017 C 
ATOM      3  C   UNL     1      -4.154  -0.832  -1.579  0.00  0.00    -0.020 C 
ATOM      4  C   UNL     1      -3.489   0.210  -2.511  0.00  0.00    -0.078 C 
ATOM      5  N   UNL     1      -2.071   0.252  -2.085  0.00  0.00    +0.382 N 
ATOM      6  H   UNL     1      -1.932   1.011  -1.435  0.00  0.00    -0.081 HD
ENDROOT
BRANCH   1   7
ATOM      7  C   UNL     1      -1.293  -0.775   0.010  0.00  0.00    +0.020 C 
BRANCH   7  13
ATOM      8  C   UNL     1      -0.017   1.378   0.010  0.00  0.00    +0.004 A 
ATOM      9  C   UNL     1       1.171   2.086   0.002  0.00  0.00    +0.015 A 
ATOM     10  C   UNL     1       2.378   1.411  -0.013  0.00  0.00    +0.018 A 
ATOM     11  C   UNL     1       2.396   0.027  -0.021  0.00  0.00    +0.015 A 
ATOM     12  C   UNL     1       1.208  -0.679  -0.013  0.00  0.00    +0.004 A 
ATOM     13  C   UNL     1       0.002  -0.004   0.002  0.00  0.00    -0.049 A 
ATOM     14 BR   UNL     1       4.003   2.378  -0.024  0.00  0.00    -0.050 Br
ENDBRANCH   7  13
ENDBRANCH   1   7
BRANCH   5  15
ATOM     15  C   UNL     1      -1.204   0.441  -3.256  0.00  0.00    -0.069 C 
BRANCH  15  16
ATOM     16  C   UNL     1      -1.459   1.824  -3.860  0.00  0.00    +0.078 C 
BRANCH  16  17
ATOM     17  C   UNL     1      -0.570   2.019  -5.062  0.00  0.00    +0.219 C 
ATOM     18  O   UNL     1       0.191   1.139  -5.401  0.00  0.00    -0.275 OA
ATOM     19  N   UNL     1      -0.622   3.171  -5.758  0.00  0.00    -0.240 N 
ATOM     20  C   UNL     1       0.173   3.345  -6.833  0.00  0.00    +0.303 C 
ATOM     21  O   UNL     1       0.936   2.463  -7.173  0.00  0.00    -0.253 OA
ATOM     22  N   UNL     1       0.121   4.498  -7.530  0.00  0.00    -0.313 N 
ATOM     23  H   UNL     1      -1.231   3.875  -5.487  0.00  0.00    +0.159 HD
ATOM     24  H   UNL     1      -0.489   5.202  -7.258  0.00  0.00    +0.146 HD
ATOM     25  H   UNL     1       0.693   4.623  -8.303  0.00  0.00    +0.146 HD
ENDBRANCH  16  17
ENDBRANCH  15  16
ENDBRANCH   5  15
TORSDOF 5
