REMARK  Name = ZINC56143506
REMARK  9 active torsions:
REMARK  status: ('A' for Active; 'I' for Inactive)
REMARK    1  A    between atoms: C_1  and  C_2
REMARK    2  A    between atoms: C_2  and  C_3
REMARK    3  A    between atoms: C_2  and  N_4
REMARK    4  A    between atoms: C_5  and  C_7
REMARK    5  A    between atoms: C_7  and  C_9
REMARK    6  A    between atoms: C_7  and  N_15
REMARK    7  A    between atoms: N_15  and  C_16
REMARK    8  A    between atoms: C_16  and  C_18
REMARK    9  A    between atoms: C_16  and  C_24
REMARK                            x       y       z     vdW  Elec       q    Type
REMARK                         _______ _______ _______ _____ _____    ______ ____
ROOT
ATOM      1  C   UNL     1       0.780  -1.133   3.576  0.00  0.00    +0.172 C 
ENDROOT
BRANCH   1   2
ATOM      2  C   UNL     1       1.338  -2.505   3.302  0.00  0.00    -0.022 A 
ATOM      3  C   UNL     1       0.516  -3.614   3.376  0.00  0.00    +0.005 A 
ATOM      4  C   UNL     1       1.028  -4.873   3.124  0.00  0.00    +0.000 A 
ATOM      5  C   UNL     1       2.363  -5.023   2.798  0.00  0.00    +0.000 A 
ATOM      6  C   UNL     1       3.185  -3.915   2.723  0.00  0.00    +0.000 A 
ATOM      7  C   UNL     1       2.672  -2.655   2.971  0.00  0.00    +0.005 A 
ENDBRANCH   1   2
BRANCH   1   9
ATOM      8  N   UNL     1       0.711  -0.489   1.189  0.00  0.00    -0.311 N 
ATOM      9  C   UNL     1       0.051  -0.633   2.355  0.00  0.00    +0.235 C 
ATOM     10  O   UNL     1      -1.129  -0.361   2.423  0.00  0.00    -0.274 OA
ATOM     11  H   UNL     1       1.654  -0.707   1.135  0.00  0.00    +0.149 HD
BRANCH   8  13
ATOM     12  C   UNL     1      -0.019   1.526   0.010  0.00  0.00    +0.027 C 
ATOM     13  C   UNL     1       0.002  -0.004   0.002  0.00  0.00    +0.067 C 
ATOM     14  C   UNL     1       0.718  -0.497  -1.257  0.00  0.00    +0.027 C 
ENDBRANCH   8  13
ENDBRANCH   1   9
BRANCH   1  15
ATOM     15  N   UNL     1      -0.152  -1.201   4.710  0.00  0.00    -0.289 NA
ATOM     16  H   UNL     1      -0.865  -0.490   4.635  0.00  0.00    +0.124 HD
BRANCH  15  17
ATOM     17  C   UNL     1       0.564  -1.096   5.988  0.00  0.00    +0.152 C 
BRANCH  17  18
ATOM     18  C   UNL     1      -0.369  -0.563   7.044  0.00  0.00    -0.023 A 
ATOM     19  C   UNL     1      -1.681  -0.995   7.090  0.00  0.00    +0.005 A 
ATOM     20  C   UNL     1      -2.537  -0.506   8.059  0.00  0.00    +0.000 A 
ATOM     21  C   UNL     1      -2.080   0.416   8.982  0.00  0.00    +0.000 A 
ATOM     22  C   UNL     1      -0.768   0.848   8.937  0.00  0.00    +0.000 A 
ATOM     23  C   UNL     1       0.089   0.355   7.971  0.00  0.00    +0.005 A 
ENDBRANCH  17  18
BRANCH  17  24
ATOM     24  C   UNL     1       1.061  -2.458   6.398  0.00  0.00    +0.126 A 
ATOM     25  C   UNL     1       2.253  -2.724   6.963  0.00  0.00    +0.046 A 
ATOM     26  C   UNL     1       2.301  -4.120   7.179  0.00  0.00    +0.041 A 
ATOM     27  C   UNL     1       1.137  -4.625   6.734  0.00  0.00    +0.195 A 
ATOM     28  O   UNL     1       0.387  -3.613   6.267  0.00  0.00    -0.466 OA
ENDBRANCH  17  24
ENDBRANCH  15  17
ENDBRANCH   1  15
TORSDOF 7
