REMARK  Name = ZINC27696814
REMARK  9 active torsions:
REMARK  status: ('A' for Active; 'I' for Inactive)
REMARK    1  A    between atoms: C_10  and  C_11
REMARK    2  A    between atoms: C_11  and  C_12
REMARK    3  A    between atoms: N_20  and  C_21
REMARK    4  A    between atoms: C_21  and  C_22
REMARK    5  A    between atoms: C_22  and  C_24
REMARK    6  A    between atoms: C_22  and  O_38
REMARK    7  A    between atoms: C_24  and  N_25
REMARK    8  A    between atoms: N_25  and  C_26
REMARK    9  A    between atoms: N_25  and  C_32
REMARK                            x       y       z     vdW  Elec       q    Type
REMARK                         _______ _______ _______ _____ _____    ______ ____
ROOT
ATOM      1  C   UNL     1       3.553   2.935   1.573  0.00  0.00    +0.115 A 
ATOM      2  N   UNL     1       2.535   2.304   2.083  0.00  0.00    -0.232 NA
ATOM      3  C   UNL     1       2.256   1.208   1.332  0.00  0.00    +0.089 A 
ATOM      4  C   UNL     1       1.292   0.200   1.419  0.00  0.00    +0.030 A 
ATOM      5  C   UNL     1       1.259  -0.794   0.483  0.00  0.00    +0.002 A 
ATOM      6  C   UNL     1       2.184  -0.823  -0.551  0.00  0.00    +0.002 A 
ATOM      7  C   UNL     1       3.144   0.161  -0.658  0.00  0.00    +0.028 A 
ATOM      8  C   UNL     1       3.188   1.182   0.281  0.00  0.00    +0.069 A 
ATOM      9  N   UNL     1       3.995   2.288   0.461  0.00  0.00    -0.325 N 
ENDROOT
BRANCH   1  10
ATOM     10  C   UNL     1       4.153   4.199   2.132  0.00  0.00    +0.110 C 
BRANCH  10  20
ATOM     11  C   UNL     1       3.846   2.958   7.089  0.00  0.00    +0.001 A 
ATOM     12  C   UNL     1       2.919   3.279   6.099  0.00  0.00    +0.001 A 
ATOM     13  C   UNL     1       3.319   3.573   4.832  0.00  0.00    +0.009 A 
ATOM     14  C   UNL     1       4.688   3.554   4.513  0.00  0.00    -0.014 A 
ATOM     15  C   UNL     1       5.631   3.227   5.520  0.00  0.00    -0.018 A 
ATOM     16  C   UNL     1       5.179   2.929   6.817  0.00  0.00    +0.008 A 
ATOM     17  C   UNL     1       6.999   3.207   5.202  0.00  0.00    +0.008 A 
ATOM     18  C   UNL     1       7.400   3.501   3.934  0.00  0.00    +0.001 A 
ATOM     19  C   UNL     1       6.472   3.815   2.943  0.00  0.00    +0.004 A 
ATOM     20  C   UNL     1       5.139   3.850   3.216  0.00  0.00    -0.032 A 
ENDBRANCH  10  20
ENDBRANCH   1  10
BRANCH   9  21
ATOM     21  C   UNL     1       5.120   2.690  -0.388  0.00  0.00    +0.153 C 
BRANCH  21  22
ATOM     22  C   UNL     1       4.599   3.513  -1.568  0.00  0.00    +0.118 C 
BRANCH  22  23
ATOM     23  O   UNL     1       4.035   4.734  -1.085  0.00  0.00    -0.392 OA
ATOM     24  H   UNL     1       3.607   5.460  -1.792  0.00  0.00    +0.210 HD
ENDBRANCH  22  23
BRANCH  22  25
ATOM     25  C   UNL     1       5.755   3.827  -2.520  0.00  0.00    -0.045 C 
BRANCH  25  26
ATOM     26  N   UNL     1       5.288   4.737  -3.574  0.00  0.00    +0.385 N 
ATOM     27  H   UNL     1       4.689   5.528  -3.097  0.00  0.00    -0.081 HD
BRANCH  26  28
ATOM     28  C   UNL     1       6.420   5.378  -4.256  0.00  0.00    -0.068 C 
ATOM     29  C   UNL     1       7.411   4.306  -4.716  0.00  0.00    -0.015 C 
ATOM     30  C   UNL     1       8.590   4.973  -5.427  0.00  0.00    -0.002 C 
ATOM     31  C   UNL     1       9.289   5.935  -4.463  0.00  0.00    -0.000 C 
ATOM     32  C   UNL     1       8.298   7.006  -4.004  0.00  0.00    -0.002 C 
ATOM     33  C   UNL     1       7.119   6.339  -3.293  0.00  0.00    -0.015 C 
ENDBRANCH  26  28
BRANCH  26  34
ATOM     34  C   UNL     1       4.425   4.034  -4.532  0.00  0.00    -0.068 C 
ATOM     35  C   UNL     1       4.538   4.700  -5.905  0.00  0.00    -0.015 C 
ATOM     36  C   UNL     1       3.639   3.967  -6.903  0.00  0.00    -0.002 C 
ATOM     37  C   UNL     1       2.188   4.030  -6.424  0.00  0.00    -0.000 C 
ATOM     38  C   UNL     1       2.074   3.364  -5.051  0.00  0.00    -0.002 C 
ATOM     39  C   UNL     1       2.973   4.097  -4.053  0.00  0.00    -0.015 C 
ENDBRANCH  26  34
ENDBRANCH  25  26
ENDBRANCH  22  25
ENDBRANCH  21  22
ENDBRANCH   9  21
TORSDOF 9
