REMARK  Name = ZINC03669156
REMARK  8 active torsions:
REMARK  status: ('A' for Active; 'I' for Inactive)
REMARK    1  A    between atoms: C_1  and  O_2
REMARK    2  A    between atoms: O_2  and  C_3
REMARK    3  A    between atoms: C_3  and  C_5
REMARK    4  A    between atoms: C_3  and  C_11
REMARK    5  A    between atoms: N_13  and  N_14
REMARK    6  A    between atoms: N_14  and  C_15
REMARK    7  A    between atoms: C_15  and  N_17
REMARK    8  A    between atoms: C_18  and  C_20
REMARK                            x       y       z     vdW  Elec       q    Type
REMARK                         _______ _______ _______ _____ _____    ______ ____
ROOT
ATOM      1  C   UNL     1       6.013   5.993  -0.026  0.00  0.00    +0.153 C 
ATOM      2  S   UNL     1       7.491   5.128  -0.046  0.00  0.00    -0.017 S 
ENDROOT
BRANCH   1   3
ATOM      3  N   UNL     1       4.842   5.325  -0.018  0.00  0.00    -0.262 N 
ATOM      4  C   UNL     1       4.834   3.978  -0.025  0.00  0.00    +0.256 C 
ATOM      5  O   UNL     1       5.884   3.364  -0.038  0.00  0.00    -0.270 OA
ATOM      6  H   UNL     1       4.005   5.815  -0.007  0.00  0.00    +0.157 HD
BRANCH   4   7
ATOM      7  C   UNL     1       3.555   3.249  -0.015  0.00  0.00    +0.122 A 
ATOM      8  C   UNL     1       2.353   3.936   0.000  0.00  0.00    +0.031 A 
ATOM      9  C   UNL     1       1.145   3.194   0.008  0.00  0.00    +0.018 A 
ATOM     10  C   UNL     1      -0.091   3.857   0.024  0.00  0.00    +0.011 A 
ATOM     11  C   UNL     1      -1.250   3.137   0.031  0.00  0.00    +0.001 A 
ATOM     12  C   UNL     1      -1.216   1.749   0.017  0.00  0.00    +0.004 A 
ATOM     13  C   UNL     1      -0.013   1.076   0.008  0.00  0.00    +0.047 A 
ATOM     14  C   UNL     1       1.182   1.788   0.000  0.00  0.00    +0.139 A 
ATOM     15  O   UNL     1       2.359   1.126  -0.015  0.00  0.00    -0.422 OA
ATOM     16  C   UNL     1       3.532   1.782  -0.023  0.00  0.00    +0.350 A 
ATOM     17  O   UNL     1       4.576   1.158  -0.036  0.00  0.00    -0.244 OA
ENDBRANCH   4   7
ENDBRANCH   1   3
BRANCH   1  18
ATOM     18  N   UNL     1       6.021   7.340  -0.020  0.00  0.00    -0.245 N 
ATOM     19  H   UNL     1       6.864   7.821  -0.026  0.00  0.00    +0.172 HD
BRANCH  18  22
ATOM     20  C   UNL     1       4.819   9.396   0.003  0.00  0.00    +0.262 C 
ATOM     21  O   UNL     1       5.873   9.996  -0.005  0.00  0.00    -0.271 OA
ATOM     22  N   UNL     1       4.812   8.048  -0.004  0.00  0.00    -0.233 N 
ATOM     23  H   UNL     1       3.969   7.568   0.002  0.00  0.00    +0.173 HD
BRANCH  20  24
ATOM     24  C   UNL     1       3.519  10.156   0.020  0.00  0.00    +0.235 C 
BRANCH  24  25
ATOM     25  C   UNL     1       2.795   9.885   1.314  0.00  0.00    -0.010 A 
ATOM     26  C   UNL     1       3.096  10.625   2.442  0.00  0.00    +0.006 A 
ATOM     27  C   UNL     1       2.429  10.379   3.628  0.00  0.00    +0.000 A 
ATOM     28  C   UNL     1       1.468   9.388   3.687  0.00  0.00    +0.000 A 
ATOM     29  C   UNL     1       1.171   8.644   2.560  0.00  0.00    +0.000 A 
ATOM     30  C   UNL     1       1.834   8.893   1.373  0.00  0.00    +0.006 A 
ENDBRANCH  24  25
BRANCH  24  32
ATOM     31  C   UNL     1       2.748  12.293  -0.744  0.00  0.00    +0.195 C 
ATOM     32  O   UNL     1       3.784  11.556  -0.093  0.00  0.00    -0.366 OA
ENDBRANCH  24  32
ENDBRANCH  20  24
ENDBRANCH  18  22
ENDBRANCH   1  18
TORSDOF 7
