REMARK  Name = ZINC45625185
REMARK  5 active torsions:
REMARK  status: ('A' for Active; 'I' for Inactive)
REMARK    1  A    between atoms: C_1  and  C_2
REMARK    2  A    between atoms: C_7  and  N_12
REMARK    3  A    between atoms: C_9  and  C_11
REMARK    4  A    between atoms: C_13  and  C_15
REMARK    5  A    between atoms: C_17  and  N_22
REMARK                            x       y       z     vdW  Elec       q    Type
REMARK                         _______ _______ _______ _____ _____    ______ ____
ROOT
ATOM      1  N   UNL     1       1.471  -2.526   2.420  0.00  0.00    -0.308 N 
ATOM      2  C   UNL     1       1.207  -3.754   2.907  0.00  0.00    +0.245 C 
ATOM      3  O   UNL     1       0.380  -4.460   2.362  0.00  0.00    -0.270 OA
ATOM      4  H   UNL     1       2.131  -1.963   2.855  0.00  0.00    +0.149 HD
ENDROOT
BRANCH   1  10
ATOM      5  C   UNL     1      -0.019   1.526   0.010  0.00  0.00    +0.008 C 
ATOM      6  C   UNL     1       0.002  -0.004   0.002  0.00  0.00    -0.009 C 
ATOM      7  C   UNL     1       0.718  -0.497  -1.257  0.00  0.00    +0.003 C 
ATOM      8  C   UNL     1       0.739  -2.027  -1.265  0.00  0.00    +0.002 C 
ATOM      9  C   UNL     1       1.479  -2.534  -0.026  0.00  0.00    +0.022 C 
ATOM     10  C   UNL     1       0.763  -2.041   1.233  0.00  0.00    +0.076 C 
ATOM     11  C   UNL     1       0.742  -0.511   1.242  0.00  0.00    +0.009 C 
ATOM     12  C   UNL     1       0.026  -0.018   2.500  0.00  0.00    +0.009 C 
ENDBRANCH   1  10
BRANCH   2  13
ATOM     13  C   UNL     1       1.922  -4.244   4.105  0.00  0.00    +0.053 A 
ATOM     14  C   UNL     1       2.867  -3.434   4.737  0.00  0.00    +0.047 A 
ATOM     15  C   UNL     1       3.530  -3.897   5.854  0.00  0.00    +0.127 A 
ATOM     16  C   UNL     1       3.261  -5.161   6.349  0.00  0.00    +0.034 A 
ATOM     17  C   UNL     1       2.326  -5.969   5.729  0.00  0.00    +0.018 A 
ATOM     18  C   UNL     1       1.650  -5.516   4.613  0.00  0.00    +0.030 A 
ATOM     19 BR   UNL     1       0.366  -6.619   3.769  0.00  0.00    -0.050 Br
BRANCH  15  20
ATOM     20  N   UNL     1       4.534  -3.040   6.525  0.00  0.00    +0.056 N 
ATOM     21  O   UNL     1       4.771  -1.936   6.093  0.00  0.00    -0.126 OA
ATOM     22  O   UNL     1       5.116  -3.444   7.504  0.00  0.00    -0.126 OA
ENDBRANCH  15  20
ENDBRANCH   2  13
TORSDOF 3
