REMARK  Name = ZINC17197165
REMARK  2 active torsions:
REMARK  status: ('A' for Active; 'I' for Inactive)
REMARK    1  A    between atoms: C_4  and  N_7
REMARK    2  A    between atoms: C_9  and  C_16
REMARK                            x       y       z     vdW  Elec       q    Type
REMARK                         _______ _______ _______ _____ _____    ______ ____
ROOT
ATOM      1  N   UNL     1       3.623  -0.652  -0.036  0.00  0.00    -0.229 N 
ATOM      2  C   UNL     1       3.642  -2.022   0.060  0.00  0.00    +0.267 A 
ATOM      3  C   UNL     1       4.836  -2.679   0.044  0.00  0.00    +0.073 A 
ATOM      4  C   UNL     1       6.024  -1.935  -0.071  0.00  0.00    +0.260 A 
ATOM      5  O   UNL     1       7.103  -2.501  -0.088  0.00  0.00    -0.267 OA
ATOM      6  N   UNL     1       5.961  -0.592  -0.163  0.00  0.00    -0.274 N 
ATOM      7  H   UNL     1       6.779  -0.076  -0.243  0.00  0.00    +0.173 HD
ATOM      8  C   UNL     1       4.772   0.039  -0.151  0.00  0.00    +0.337 A 
ATOM      9  O   UNL     1       4.737   1.251  -0.241  0.00  0.00    -0.246 OA
ATOM     10  O   UNL     1       2.486  -2.712   0.170  0.00  0.00    -0.267 OA
ENDROOT
BRANCH   3  11
ATOM     11  C   UNL     1       4.882  -4.182   0.149  0.00  0.00    +0.018 C 
ATOM     12  C   UNL     1       5.573  -4.579   1.431  0.00  0.00    +0.011 A 
ATOM     13  C   UNL     1       6.477  -5.584   1.499  0.00  0.00    -0.022 A 
ATOM     14  C   UNL     1       6.921  -5.668   2.871  0.00  0.00    +0.003 A 
ATOM     15  C   UNL     1       7.834  -6.501   3.527  0.00  0.00    +0.010 A 
ATOM     16  C   UNL     1       8.012  -6.291   4.872  0.00  0.00    +0.001 A 
ATOM     17  C   UNL     1       7.325  -5.304   5.560  0.00  0.00    +0.002 A 
ATOM     18  C   UNL     1       6.417  -4.466   4.938  0.00  0.00    +0.026 A 
ATOM     19  C   UNL     1       6.215  -4.656   3.572  0.00  0.00    +0.047 A 
ATOM     20  N   UNL     1       5.411  -4.020   2.670  0.00  0.00    -0.359 N 
ATOM     21  H   UNL     1       4.815  -3.283   2.875  0.00  0.00    +0.166 HD
ATOM     22  C   UNL     1       6.881  -6.413   0.305  0.00  0.00    +0.018 C 
ATOM     23  C   UNL     1       5.846  -6.176  -0.803  0.00  0.00    -0.076 C 
ATOM     24  N   UNL     1       5.638  -4.733  -0.986  0.00  0.00    +0.388 N 
ATOM     25  H   UNL     1       5.125  -4.572  -1.840  0.00  0.00    -0.084 HD
ATOM     26  H   UNL     1       6.535  -4.273  -1.046  0.00  0.00    -0.084 HD
ENDBRANCH   3  11
BRANCH   1  30
ATOM     27  C   UNL     1      -0.016   1.379   0.011  0.00  0.00    +0.000 A 
ATOM     28  C   UNL     1       0.650   1.131   1.196  0.00  0.00    +0.002 A 
ATOM     29  C   UNL     1       1.857   0.458   1.184  0.00  0.00    +0.026 A 
ATOM     30  C   UNL     1       2.400   0.031  -0.021  0.00  0.00    +0.054 A 
ATOM     31  C   UNL     1       1.728   0.282  -1.210  0.00  0.00    +0.026 A 
ATOM     32  C   UNL     1       0.522   0.956  -1.191  0.00  0.00    +0.002 A 
ENDBRANCH   1  30
TORSDOF 2
