REMARK  Name = ZINC44321455
REMARK  10 active torsions:
REMARK  status: ('A' for Active; 'I' for Inactive)
REMARK    1  A    between atoms: C_1  and  O_2
REMARK    2  A    between atoms: O_2  and  C_3
REMARK    3  A    between atoms: C_6  and  C_11
REMARK    4  A    between atoms: C_8  and  O_9
REMARK    5  A    between atoms: C_11  and  CA_12
REMARK    6  A    between atoms: CA_12  and  C_14
REMARK    7  A    between atoms: CA_12  and  N_17
REMARK    8  A    between atoms: C_18  and  O_20
REMARK    9  A    between atoms: O_20  and  C_21
REMARK   10  A    between atoms: C_21  and  C_22
REMARK                            x       y       z     vdW  Elec       q    Type
REMARK                         _______ _______ _______ _____ _____    ______ ____
ROOT
ATOM      1  N   UNL     1       0.875  -1.608  -5.979  0.00  0.00    -0.267 N 
ATOM      2  C   UNL     1      -0.362  -1.621  -6.514  0.00  0.00    +0.401 C 
ATOM      3  O   UNL     1      -0.996  -2.656  -6.555  0.00  0.00    -0.226 OA
ATOM      4  H   UNL     1       1.381  -0.782  -5.946  0.00  0.00    +0.153 HD
ENDROOT
BRANCH   1   5
ATOM      5  CA  UNL     1       1.455  -2.844  -5.447  0.00  0.00    +0.193 C 
BRANCH   5   6
ATOM      6  C   UNL     1       2.104  -3.617  -6.566  0.00  0.00    +0.376 C 
ATOM      7  O   UNL     1       2.156  -4.834  -6.515  0.00  0.00    -0.244 OA
ATOM      8  OXT UNL     1       2.576  -3.026  -7.521  0.00  0.00    -0.244 OA
ENDBRANCH   5   6
BRANCH   5   9
ATOM      9  C   UNL     1       2.506  -2.500  -4.389  0.00  0.00    +0.070 C 
BRANCH   9  13
ATOM     10  C   UNL     1       0.606  -0.608  -1.056  0.00  0.00    +0.162 A 
ATOM     11  C   UNL     1       1.173   0.159  -2.062  0.00  0.00    +0.050 A 
ATOM     12  C   UNL     1       1.786  -0.455  -3.138  0.00  0.00    +0.008 A 
ATOM     13  C   UNL     1       1.836  -1.835  -3.214  0.00  0.00    -0.027 A 
ATOM     14  C   UNL     1       1.273  -2.606  -2.213  0.00  0.00    +0.066 A 
ATOM     15  C   UNL     1       0.662  -1.996  -1.129  0.00  0.00    +0.173 A 
ATOM     16 BR   UNL     1       1.342  -4.493  -2.321  0.00  0.00    -0.046 Br
BRANCH  10  18
ATOM     17  C   UNL     1      -0.017   1.425   0.010  0.00  0.00    +0.277 C 
ATOM     18  O   UNL     1       0.002  -0.004   0.002  0.00  0.00    -0.491 OA
ENDBRANCH  10  18
BRANCH  15  19
ATOM     19  O   UNL     1       0.112  -2.752  -0.141  0.00  0.00    -0.503 OA
ATOM     20  H   UNL     1      -0.816  -2.979  -0.290  0.00  0.00    +0.292 HD
ENDBRANCH  15  19
ENDBRANCH   9  13
ENDBRANCH   5   9
ENDBRANCH   1   5
BRANCH   2  21
ATOM     21  O   UNL     1      -0.895  -0.485  -7.003  0.00  0.00    -0.449 OA
BRANCH  21  22
ATOM     22  C   UNL     1      -2.210  -0.572  -7.556  0.00  0.00    +0.246 C 
BRANCH  22  23
ATOM     23  C   UNL     1      -2.644   0.807  -8.057  0.00  0.00    +0.088 C 
ATOM     24  C   UNL     1      -1.820   1.207  -9.256  0.00  0.00    -0.029 A 
ATOM     25  C   UNL     1      -0.466   1.407  -9.424  0.00  0.00    +0.005 A 
ATOM     26  C   UNL     1       0.031   1.779 -10.661  0.00  0.00    +0.000 A 
ATOM     27  C   UNL     1      -0.829   1.950 -11.731  0.00  0.00    +0.001 A 
ATOM     28  C   UNL     1      -2.184   1.751 -11.572  0.00  0.00    +0.009 A 
ATOM     29  C   UNL     1      -2.693   1.377 -10.327  0.00  0.00    -0.014 A 
ATOM     30  C   UNL     1      -4.082   1.102  -9.881  0.00  0.00    -0.014 A 
ATOM     31  C   UNL     1      -4.076   0.761  -8.531  0.00  0.00    -0.029 A 
ATOM     32  C   UNL     1      -5.256   0.460  -7.885  0.00  0.00    +0.005 A 
ATOM     33  C   UNL     1      -6.453   0.496  -8.577  0.00  0.00    +0.000 A 
ATOM     34  C   UNL     1      -6.469   0.833  -9.919  0.00  0.00    +0.001 A 
ATOM     35  C   UNL     1      -5.293   1.136 -10.573  0.00  0.00    +0.009 A 
ENDBRANCH  22  23
ENDBRANCH  21  22
ENDBRANCH   2  21
TORSDOF 9
