REMARK  Name = ZINC03576070
REMARK  7 active torsions:
REMARK  status: ('A' for Active; 'I' for Inactive)
REMARK    1  A    between atoms: C_1  and  C_2
REMARK    2  A    between atoms: C_2  and  O_3
REMARK    3  A    between atoms: O_3  and  C_4
REMARK    4  A    between atoms: C_6  and  C_12
REMARK    5  A    between atoms: C_9  and  O_10
REMARK    6  A    between atoms: N_13  and  N_14
REMARK    7  A    between atoms: C_15  and  C_17
REMARK                            x       y       z     vdW  Elec       q    Type
REMARK                         _______ _______ _______ _____ _____    ______ ____
ROOT
ATOM      1  C   UNL     1       9.617   2.644  -0.073  0.00  0.00    +0.163 A 
ATOM      2  C   UNL     1       8.310   3.092  -0.065  0.00  0.00    +0.059 A 
ATOM      3  C   UNL     1       7.259   2.171  -0.054  0.00  0.00    -0.001 A 
ATOM      4  C   UNL     1       7.535   0.802  -0.064  0.00  0.00    +0.028 A 
ATOM      5  C   UNL     1       8.842   0.362  -0.078  0.00  0.00    +0.063 A 
ATOM      6  C   UNL     1       9.886   1.278  -0.083  0.00  0.00    +0.173 A 
ATOM      7 BR   UNL     1       9.214  -1.492  -0.091  0.00  0.00    -0.046 Br
ENDROOT
BRANCH   6   8
ATOM      8  O   UNL     1      11.173   0.839  -0.097  0.00  0.00    -0.503 OA
ATOM      9  H   UNL     1      11.537   0.717  -0.984  0.00  0.00    +0.292 HD
ENDBRANCH   6   8
BRANCH   3  10
ATOM     10  C   UNL     1       5.862   2.644  -0.039  0.00  0.00    +0.138 C 
ATOM     11  N   UNL     1       4.888   1.787  -0.034  0.00  0.00    -0.187 NA
BRANCH  11  12
ATOM     12  N   UNL     1       3.560   2.236  -0.020  0.00  0.00    -0.203 N 
ATOM     13  C   UNL     1       2.548   1.346  -0.015  0.00  0.00    +0.270 C 
ATOM     14  O   UNL     1       2.787   0.152  -0.023  0.00  0.00    -0.268 OA
ATOM     15  H   UNL     1       3.370   3.187  -0.013  0.00  0.00    +0.178 HD
BRANCH  13  16
ATOM     16  C   UNL     1       1.160   1.815   0.001  0.00  0.00    +0.075 A 
ATOM     17  C   UNL     1      -0.013   1.076   0.008  0.00  0.00    +0.021 A 
ATOM     18  C   UNL     1      -1.193   1.776   0.017  0.00  0.00    +0.008 A 
ATOM     19  C   UNL     1      -1.159   3.135   0.029  0.00  0.00    +0.046 A 
ATOM     20  S   UNL     1       0.539   3.488   0.015  0.00  0.00    -0.092 S 
ENDBRANCH  13  16
ENDBRANCH  11  12
ENDBRANCH   3  10
BRANCH   1  21
ATOM     21  O   UNL     1      10.642   3.538  -0.078  0.00  0.00    -0.489 OA
BRANCH  21  23
ATOM     22  C   UNL     1      11.569   5.770  -0.074  0.00  0.00    +0.048 C 
ATOM     23  C   UNL     1      10.294   4.924  -0.067  0.00  0.00    +0.226 C 
ENDBRANCH  21  23
ENDBRANCH   1  21
TORSDOF 6
