REMARK  Name = ZINC66133853
REMARK  10 active torsions:
REMARK  status: ('A' for Active; 'I' for Inactive)
REMARK    1  A    between atoms: C_1  and  C_2
REMARK    2  A    between atoms: C_2  and  C_3
REMARK    3  A    between atoms: C_3  and  C_5
REMARK    4  A    between atoms: C_3  and  N_6
REMARK    5  A    between atoms: C_16  and  C_17
REMARK    6  A    between atoms: C_16  and  C_18
REMARK    7  A    between atoms: C_23  and  O_24
REMARK    8  A    between atoms: O_24  and  C_25
REMARK    9  A    between atoms: C_25  and  C_26
REMARK   10  A    between atoms: C_26  and  C_28
REMARK                            x       y       z     vdW  Elec       q    Type
REMARK                         _______ _______ _______ _____ _____    ______ ____
ROOT
ATOM      1  N   UNL     1      -1.961  -0.176   0.881  0.00  0.00    -0.270 N 
ATOM      2  C   UNL     1      -1.288  -0.277   2.045  0.00  0.00    +0.250 C 
ATOM      3  O   UNL     1      -0.122  -0.624   2.051  0.00  0.00    -0.270 OA
ATOM      4  C   UNL     1      -1.977   0.038   3.309  0.00  0.00    +0.058 A 
ATOM      5  C   UNL     1      -1.284   0.133   4.514  0.00  0.00    +0.015 A 
ATOM      6  C   UNL     1      -1.971   0.439   5.670  0.00  0.00    +0.001 A 
ATOM      7  C   UNL     1      -3.340   0.652   5.641  0.00  0.00    +0.002 A 
ATOM      8  C   UNL     1      -4.040   0.557   4.453  0.00  0.00    +0.024 A 
ATOM      9  C   UNL     1      -3.367   0.247   3.284  0.00  0.00    +0.041 A 
ATOM     10  N   UNL     1      -4.031   0.117   2.069  0.00  0.00    -0.319 N 
ATOM     11  C   UNL     1      -3.299   0.413   0.829  0.00  0.00    +0.129 C 
ATOM     12  C   UNL     1      -4.064  -0.171  -0.361  0.00  0.00    +0.059 C 
ATOM     13  H   UNL     1      -4.960  -0.161   2.042  0.00  0.00    +0.148 HD
ENDROOT
BRANCH  11  14
ATOM     14  C   UNL     1      -3.181   1.906   0.658  0.00  0.00    +0.035 A 
ATOM     15  C   UNL     1      -1.938   2.488   0.506  0.00  0.00    +0.011 A 
ATOM     16  C   UNL     1      -1.829   3.857   0.349  0.00  0.00    +0.001 A 
ATOM     17  C   UNL     1      -2.963   4.647   0.345  0.00  0.00    +0.004 A 
ATOM     18  C   UNL     1      -4.209   4.070   0.496  0.00  0.00    +0.046 A 
ATOM     19  C   UNL     1      -4.321   2.696   0.648  0.00  0.00    +0.128 A 
BRANCH  19  20
ATOM     20  O   UNL     1      -5.546   2.125   0.792  0.00  0.00    -0.487 OA
BRANCH  20  21
ATOM     21  C   UNL     1      -6.676   2.999   0.772  0.00  0.00    +0.259 C 
BRANCH  21  22
ATOM     22  C   UNL     1      -7.938   2.193   0.944  0.00  0.00    -0.043 C 
ATOM     23  C   UNL     1      -7.871   0.892   1.081  0.00  0.00    +0.011 C 
ATOM     24  C   UNL     1      -9.277   2.885   0.958  0.00  0.00    +0.042 C 
ENDBRANCH  21  22
ENDBRANCH  20  21
ENDBRANCH  19  20
ENDBRANCH  11  14
BRANCH   1  25
ATOM     25  C   UNL     1      -1.339  -0.659  -0.354  0.00  0.00    +0.075 C 
ATOM     26  C   UNL     1      -1.349   0.458  -1.401  0.00  0.00    +0.028 C 
BRANCH  25  28
ATOM     27  C   UNL     1      -2.161  -2.956   0.184  0.00  0.00    +0.006 C 
ATOM     28  C   UNL     1      -2.123  -1.861  -0.884  0.00  0.00    +0.019 C 
ENDBRANCH  25  28
ENDBRANCH   1  25
TORSDOF 6
