REMARK  Name = ZINC40264548
REMARK  5 active torsions:
REMARK  status: ('A' for Active; 'I' for Inactive)
REMARK    1  A    between atoms: C_1  and  O_2
REMARK    2  A    between atoms: O_2  and  C_3
REMARK    3  A    between atoms: C_6  and  C_10
REMARK    4  A    between atoms: C_10  and  C_12
REMARK    5  A    between atoms: C_10  and  O_22
REMARK                            x       y       z     vdW  Elec       q    Type
REMARK                         _______ _______ _______ _____ _____    ______ ____
ROOT
ATOM      1  C   UNL     1       2.588  -2.548   4.311  0.00  0.00    +0.176 C 
ENDROOT
BRANCH   1   2
ATOM      2  C   UNL     1       4.012  -2.859   3.930  0.00  0.00    -0.014 A 
ATOM      3  C   UNL     1       4.995  -1.884   4.092  0.00  0.00    +0.007 A 
ATOM      4  C   UNL     1       6.290  -2.132   3.757  0.00  0.00    +0.009 A 
ATOM      5  C   UNL     1       6.646  -3.389   3.240  0.00  0.00    -0.018 A 
ATOM      6  C   UNL     1       7.974  -3.683   2.883  0.00  0.00    +0.008 A 
ATOM      7  C   UNL     1       8.282  -4.911   2.386  0.00  0.00    +0.001 A 
ATOM      8  C   UNL     1       7.299  -5.887   2.224  0.00  0.00    +0.001 A 
ATOM      9  C   UNL     1       6.004  -5.639   2.559  0.00  0.00    +0.008 A 
ATOM     10  C   UNL     1       5.648  -4.381   3.075  0.00  0.00    -0.018 A 
ATOM     11  C   UNL     1       4.321  -4.090   3.437  0.00  0.00    +0.015 A 
ENDBRANCH   1   2
BRANCH   1  15
ATOM     12  C   UNL     1       0.626  -0.618   1.042  0.00  0.00    +0.121 A 
ATOM     13  C   UNL     1       1.202   0.139   2.051  0.00  0.00    +0.046 A 
ATOM     14  C   UNL     1       1.836  -0.487   3.107  0.00  0.00    +0.011 A 
ATOM     15  C   UNL     1       1.896  -1.868   3.158  0.00  0.00    -0.001 A 
ATOM     16  C   UNL     1       1.323  -2.625   2.153  0.00  0.00    +0.027 A 
ATOM     17  C   UNL     1       0.682  -2.003   1.097  0.00  0.00    +0.061 A 
ATOM     18 BR   UNL     1       1.408  -4.513   2.226  0.00  0.00    -0.050 Br
BRANCH  12  20
ATOM     19  C   UNL     1      -0.017   1.425   0.010  0.00  0.00    +0.277 C 
ATOM     20  O   UNL     1       0.002  -0.004   0.002  0.00  0.00    -0.495 OA
ENDBRANCH  12  20
ENDBRANCH   1  15
BRANCH   1  21
ATOM     21  O   UNL     1       2.578  -1.685   5.450  0.00  0.00    -0.382 OA
ATOM     22  H   UNL     1       3.025  -0.840   5.307  0.00  0.00    +0.211 HD
ENDBRANCH   1  21
TORSDOF 4
