REMARK  Name = ZINC64985253
REMARK  6 active torsions:
REMARK  status: ('A' for Active; 'I' for Inactive)
REMARK    1  A    between atoms: C_1  and  C_2
REMARK    2  A    between atoms: C_4  and  C_31
REMARK    3  A    between atoms: C_6  and  N_8
REMARK    4  A    between atoms: C_9  and  C_11
REMARK    5  A    between atoms: N_14  and  S_22
REMARK    6  A    between atoms: S_22  and  C_25
REMARK                            x       y       z     vdW  Elec       q    Type
REMARK                         _______ _______ _______ _____ _____    ______ ____
ROOT
ATOM      1  C   UNL     1       0.484  -2.949   4.975  0.00  0.00    +0.278 C 
ATOM      2  C   UNL     1      -0.812  -3.767   5.067  0.00  0.00    +0.186 C 
ATOM      3  N   UNL     1      -0.850  -4.391   6.401  0.00  0.00    -0.195 N 
ATOM      4  C   UNL     1      -0.456  -3.610   7.498  0.00  0.00    +0.093 A 
ATOM      5  C   UNL     1      -0.737  -4.032   8.788  0.00  0.00    +0.028 A 
ATOM      6  C   UNL     1      -0.344  -3.260   9.866  0.00  0.00    +0.002 A 
ATOM      7  C   UNL     1       0.329  -2.070   9.658  0.00  0.00    +0.004 A 
ATOM      8  C   UNL     1       0.610  -1.644   8.373  0.00  0.00    +0.047 A 
ATOM      9  C   UNL     1       0.219  -2.410   7.286  0.00  0.00    +0.144 A 
ATOM     10  O   UNL     1       0.496  -1.980   6.026  0.00  0.00    -0.476 OA
ENDROOT
BRANCH   1  12
ATOM     11  N   UNL     1       0.642  -2.968   2.506  0.00  0.00    -0.282 N 
ATOM     12  C   UNL     1       0.545  -2.248   3.642  0.00  0.00    +0.260 C 
ATOM     13  O   UNL     1       0.508  -1.037   3.591  0.00  0.00    -0.271 OA
ATOM     14  H   UNL     1       0.594  -3.936   2.540  0.00  0.00    +0.155 HD
BRANCH  11  20
ATOM     15  C   UNL     1      -0.182  -2.794  -2.337  0.00  0.00    +0.044 C 
ATOM     16  C   UNL     1       0.421  -2.212  -1.085  0.00  0.00    -0.048 A 
ATOM     17  C   UNL     1       1.143  -1.034  -1.150  0.00  0.00    +0.006 A 
ATOM     18  C   UNL     1       1.698  -0.497  -0.003  0.00  0.00    -0.048 A 
ATOM     19  C   UNL     1       1.534  -1.135   1.211  0.00  0.00    +0.026 A 
ATOM     20  C   UNL     1       0.810  -2.318   1.278  0.00  0.00    +0.034 A 
ATOM     21  C   UNL     1       0.249  -2.853   0.126  0.00  0.00    +0.026 A 
ATOM     22  C   UNL     1       2.484   0.787  -0.078  0.00  0.00    +0.044 C 
ENDBRANCH  11  20
ENDBRANCH   1  12
BRANCH   3  23
ATOM     23  S   UNL     1      -1.343  -5.960   6.598  0.00  0.00    +0.075 S 
ATOM     24  O   UNL     1      -1.228  -6.585   5.327  0.00  0.00    -0.150 OA
ATOM     25  O   UNL     1      -0.675  -6.452   7.752  0.00  0.00    -0.150 OA
BRANCH  23  26
ATOM     26  C   UNL     1      -3.061  -5.921   6.988  0.00  0.00    +0.109 A 
ATOM     27  C   UNL     1      -3.469  -5.837   8.306  0.00  0.00    +0.029 A 
ATOM     28  C   UNL     1      -4.817  -5.807   8.612  0.00  0.00    +0.002 A 
ATOM     29  C   UNL     1      -5.756  -5.861   7.599  0.00  0.00    +0.000 A 
ATOM     30  C   UNL     1      -5.348  -5.945   6.281  0.00  0.00    +0.002 A 
ATOM     31  C   UNL     1      -4.000  -5.970   5.975  0.00  0.00    +0.029 A 
ENDBRANCH  23  26
ENDBRANCH   3  23
TORSDOF 4
