REMARK  Name = ZINC45873574
REMARK  6 active torsions:
REMARK  status: ('A' for Active; 'I' for Inactive)
REMARK    1  A    between atoms: C_1  and  C_2
REMARK    2  A    between atoms: C_2  and  C_4
REMARK    3  A    between atoms: C_2  and  N_15
REMARK    4  A    between atoms: N_6  and  C_7
REMARK    5  A    between atoms: N_15  and  C_16
REMARK    6  A    between atoms: C_19  and  N_22
REMARK                            x       y       z     vdW  Elec       q    Type
REMARK                         _______ _______ _______ _____ _____    ______ ____
ROOT
ATOM      1  N   UNL     1      -0.578   2.431   0.975  0.00  0.00    -0.333 N 
ATOM      2  H   UNL     1      -1.385   2.939   1.148  0.00  0.00    +0.147 HD
ENDROOT
BRANCH   1   3
ATOM      3  C   UNL     1       0.604   2.738   1.660  0.00  0.00    +0.028 A 
ATOM      4  C   UNL     1       1.761   2.013   1.407  0.00  0.00    +0.025 A 
ATOM      5  C   UNL     1       2.926   2.315   2.083  0.00  0.00    +0.026 A 
ATOM      6  C   UNL     1       2.941   3.345   3.016  0.00  0.00    +0.051 A 
ATOM      7  C   UNL     1       1.784   4.069   3.268  0.00  0.00    +0.026 A 
ATOM      8  C   UNL     1       0.620   3.770   2.588  0.00  0.00    +0.025 A 
BRANCH   6   9
ATOM      9  N   UNL     1       4.122   3.651   3.702  0.00  0.00    -0.207 N 
ATOM     10  C   UNL     1       5.257   2.747   3.964  0.00  0.00    +0.133 C 
ATOM     11  C   UNL     1       6.575   3.537   4.060  0.00  0.00    +0.045 C 
ATOM     12  C   UNL     1       6.248   4.762   4.966  0.00  0.00    +0.190 C 
ATOM     13  S   UNL     1       4.540   5.123   4.387  0.00  0.00    +0.046 S 
ATOM     14  O   UNL     1       4.557   6.051   3.311  0.00  0.00    -0.155 OA
ATOM     15  O   UNL     1       3.661   5.290   5.491  0.00  0.00    -0.155 OA
ENDBRANCH   6   9
ENDBRANCH   1   3
BRANCH   1  17
ATOM     16  C   UNL     1      -0.118   1.866  -1.360  0.00  0.00    +0.038 C 
ATOM     17  C   UNL     1      -0.595   1.341  -0.005  0.00  0.00    +0.154 C 
BRANCH  17  18
ATOM     18  C   UNL     1      -1.998   0.807  -0.138  0.00  0.00    +0.237 C 
ATOM     19  O   UNL     1      -2.895   1.290   0.520  0.00  0.00    -0.273 OA
ATOM     20  N   UNL     1      -2.256  -0.206  -0.988  0.00  0.00    -0.279 N 
ATOM     21  H   UNL     1      -1.555  -0.542  -1.569  0.00  0.00    +0.155 HD
BRANCH  20  22
ATOM     22  C   UNL     1      -3.536  -0.774  -1.034  0.00  0.00    +0.105 A 
ATOM     23  C   UNL     1      -4.477  -0.300  -1.941  0.00  0.00    +0.147 A 
ATOM     24  C   UNL     1      -5.739  -0.864  -1.983  0.00  0.00    +0.040 A 
ATOM     25  C   UNL     1      -6.066  -1.897  -1.124  0.00  0.00    +0.006 A 
ATOM     26  C   UNL     1      -5.133  -2.372  -0.221  0.00  0.00    +0.040 A 
ATOM     27  C   UNL     1      -3.866  -1.817  -0.177  0.00  0.00    +0.147 A 
ATOM     28  F   UNL     1      -2.954  -2.285   0.702  0.00  0.00    -0.203 F 
ATOM     29  F   UNL     1      -4.159   0.710  -2.780  0.00  0.00    -0.203 F 
ENDBRANCH  20  22
ENDBRANCH  17  18
ENDBRANCH   1  17
TORSDOF 5
