REMARK  Name = ZINC60372347
REMARK  3 active torsions:
REMARK  status: ('A' for Active; 'I' for Inactive)
REMARK    1  A    between atoms: C_2  and  C_11
REMARK    2  A    between atoms: C_11  and  N_12
REMARK    3  A    between atoms: C_16  and  C_19
REMARK                            x       y       z     vdW  Elec       q    Type
REMARK                         _______ _______ _______ _____ _____    ______ ____
ROOT
ATOM      1  C   UNL     1       1.147   3.596   0.010  0.00  0.00    +0.138 C 
ENDROOT
BRANCH   1   3
ATOM      2  C   UNL     1      -0.017   1.381   0.010  0.00  0.00    +0.054 A 
ATOM      3  C   UNL     1       1.171   2.090   0.002  0.00  0.00    -0.026 A 
ATOM      4  C   UNL     1       2.379   1.419  -0.013  0.00  0.00    +0.024 A 
ATOM      5  C   UNL     1       2.406   0.036  -0.021  0.00  0.00    +0.064 A 
ATOM      6  C   UNL     1       1.220  -0.680  -0.014  0.00  0.00    +0.180 A 
ATOM      7  C   UNL     1       0.002  -0.004   0.002  0.00  0.00    +0.168 A 
ATOM      8  O   UNL     1      -1.007  -0.923   0.006  0.00  0.00    -0.453 OA
ATOM      9  C   UNL     1      -0.404  -2.159  -0.419  0.00  0.00    +0.466 C 
ATOM     10  O   UNL     1       0.973  -2.023  -0.020  0.00  0.00    -0.451 OA
ATOM     11 BR   UNL     1       4.061  -0.877  -0.043  0.00  0.00    -0.046 Br
ENDBRANCH   1   3
BRANCH   1  12
ATOM     12  N   UNL     1       1.153   4.077   1.394  0.00  0.00    -0.324 N 
ATOM     13  C   UNL     1       1.133   5.439   1.655  0.00  0.00    +0.137 A 
ATOM     14  C   UNL     1       1.145   5.886   2.976  0.00  0.00    +0.082 A 
ATOM     15  C   UNL     1       1.126   7.232   3.229  0.00  0.00    +0.043 A 
ATOM     16  C   UNL     1       1.096   8.118   2.141  0.00  0.00    +0.071 A 
ATOM     17  C   UNL     1       1.086   7.599   0.845  0.00  0.00    +0.131 A 
ATOM     18  N   UNL     1       1.110   6.297   0.645  0.00  0.00    -0.238 NA
ATOM     19 CL   UNL     1       1.181   4.748   4.286  0.00  0.00    -0.080 Cl
ATOM     20  H   UNL     1       1.169   3.443   2.128  0.00  0.00    +0.148 HD
BRANCH  16  21
ATOM     21  C   UNL     1       1.075   9.533   2.357  0.00  0.00    +0.101 C 
ATOM     22  N   UNL     1       1.058  10.656   2.528  0.00  0.00    -0.191 NA
ENDBRANCH  16  21
ENDBRANCH   1  12
TORSDOF 3
