REMARK  Name = ZINC36545235
REMARK  15 active torsions:
REMARK  status: ('A' for Active; 'I' for Inactive)
REMARK    1  A    between atoms: C_1  and  C_2
REMARK    2  A    between atoms: C_2  and  C_3
REMARK    3  A    between atoms: C_3  and  C_4
REMARK    4  A    between atoms: C_3  and  C_6
REMARK    5  A    between atoms: C_4  and  C_5
REMARK    6  A    between atoms: C_6  and  C_8
REMARK    7  A    between atoms: C_6  and  N_15
REMARK    8  A    between atoms: N_10  and  C_11
REMARK    9  A    between atoms: C_11  and  C_12
REMARK   10  A    between atoms: C_11  and  C_13
REMARK   11  A    between atoms: C_11  and  C_14
REMARK   12  A    between atoms: N_15  and  C_16
REMARK   13  A    between atoms: C_23  and  C_25
REMARK   14  A    between atoms: C_26  and  O_32
REMARK   15  A    between atoms: C_30  and  O_31
REMARK                            x       y       z     vdW  Elec       q    Type
REMARK                         _______ _______ _______ _____ _____    ______ ____
ROOT
ATOM      1  N   UNL     1       3.135   1.826   1.256  0.00  0.00    -0.254 N 
ATOM      2  C   UNL     1       2.986   2.832   0.370  0.00  0.00    +0.259 C 
ATOM      3  O   UNL     1       2.834   2.584  -0.811  0.00  0.00    -0.269 OA
ENDROOT
BRANCH   1   4
ATOM      4  C   UNL     1       3.204   2.104   2.625  0.00  0.00    +0.056 A 
ATOM      5  C   UNL     1       4.438   2.244   3.246  0.00  0.00    +0.025 A 
ATOM      6  C   UNL     1       4.503   2.519   4.598  0.00  0.00    +0.002 A 
ATOM      7  C   UNL     1       3.340   2.655   5.334  0.00  0.00    +0.002 A 
ATOM      8  C   UNL     1       2.109   2.517   4.720  0.00  0.00    +0.022 A 
ATOM      9  C   UNL     1       2.037   2.247   3.366  0.00  0.00    +0.062 A 
ATOM     10 CL   UNL     1       0.491   2.081   2.594  0.00  0.00    -0.082 Cl
ENDBRANCH   1   4
BRANCH   2  11
ATOM     11  C   UNL     1       3.009   4.229   0.833  0.00  0.00    +0.120 A 
ATOM     12  C   UNL     1       4.225   4.843   1.166  0.00  0.00    +0.133 A 
ATOM     13  C   UNL     1       4.235   6.159   1.601  0.00  0.00    +0.046 A 
ATOM     14  C   UNL     1       3.051   6.865   1.707  0.00  0.00    +0.007 A 
ATOM     15  C   UNL     1       1.847   6.270   1.381  0.00  0.00    +0.046 A 
ATOM     16  C   UNL     1       1.815   4.957   0.939  0.00  0.00    +0.133 A 
BRANCH  16  17
ATOM     17  O   UNL     1       0.632   4.377   0.614  0.00  0.00    -0.506 OA
ATOM     18  H   UNL     1       0.178   3.966   1.363  0.00  0.00    +0.292 HD
ENDBRANCH  16  17
BRANCH  12  19
ATOM     19  O   UNL     1       5.388   4.152   1.064  0.00  0.00    -0.506 OA
ATOM     20  H   UNL     1       5.814   4.226   0.199  0.00  0.00    +0.292 HD
ENDBRANCH  12  19
ENDBRANCH   2  11
BRANCH   1  21
ATOM     21  C   UNL     1       3.224   0.442   0.784  0.00  0.00    +0.170 C 
BRANCH  21  22
ATOM     22  C   UNL     1       4.381  -0.246   1.461  0.00  0.00    +0.235 C 
ATOM     23  O   UNL     1       5.015   0.334   2.317  0.00  0.00    -0.274 OA
ATOM     24  N   UNL     1       4.712  -1.506   1.115  0.00  0.00    -0.309 N 
ATOM     25  H   UNL     1       4.239  -1.951   0.395  0.00  0.00    +0.149 HD
BRANCH  24  26
ATOM     26  C   UNL     1       5.786  -2.203   1.828  0.00  0.00    +0.026 C 
ATOM     27  C   UNL     1       5.428  -2.308   3.312  0.00  0.00    +0.031 C 
ATOM     28  C   UNL     1       5.958  -3.607   1.244  0.00  0.00    +0.031 C 
ATOM     29  C   UNL     1       7.092  -1.422   1.672  0.00  0.00    +0.031 C 
ENDBRANCH  24  26
ENDBRANCH  21  22
BRANCH  21  30
ATOM     30  C   UNL     1       1.926  -0.295   1.118  0.00  0.00    +0.018 C 
BRANCH  30  32
ATOM     31  C   UNL     1       2.507  -1.660   3.129  0.00  0.00    +0.004 C 
ATOM     32  C   UNL     1       1.780  -0.407   2.637  0.00  0.00    +0.002 C 
ENDBRANCH  30  32
BRANCH  30  33
ATOM     33  C   UNL     1       0.737   0.480   0.547  0.00  0.00    +0.002 C 
ATOM     34  C   UNL     1       0.731   0.354  -0.978  0.00  0.00    +0.004 C 
ENDBRANCH  30  33
ENDBRANCH  21  30
ENDBRANCH   1  21
TORSDOF 10
