REMARK  Name = ZINC04824109
REMARK  5 active torsions:
REMARK  status: ('A' for Active; 'I' for Inactive)
REMARK    1  A    between atoms: C_4  and  C_7
REMARK    2  A    between atoms: C_10  and  N_11
REMARK    3  A    between atoms: N_11  and  N_12
REMARK    4  A    between atoms: N_12  and  C_13
REMARK    5  A    between atoms: N_12  and  C_19
REMARK                            x       y       z     vdW  Elec       q    Type
REMARK                         _______ _______ _______ _____ _____    ______ ____
ROOT
ATOM      1  N   UNL     1       4.365  -5.107   0.120  0.00  0.00    -0.265 N 
ATOM      2  H   UNL     1       3.477  -5.493   0.173  0.00  0.00    +0.170 HD
ENDROOT
BRANCH   1   6
ATOM      3  C   UNL     1       1.394  -2.291   0.792  0.00  0.00    +0.232 C 
ATOM      4  N   UNL     1       2.134  -3.344   0.583  0.00  0.00    -0.204 NA
ATOM      5  C   UNL     1       3.439  -2.953   0.484  0.00  0.00    +0.167 C 
ATOM      6  C   UNL     1       4.533  -3.765   0.263  0.00  0.00    +0.123 C 
ATOM      7  C   UNL     1       3.446  -1.540   0.653  0.00  0.00    +0.366 C 
ATOM      8  O   UNL     1       4.416  -0.804   0.633  0.00  0.00    -0.243 OA
ATOM      9  O   UNL     1       2.158  -1.180   0.835  0.00  0.00    -0.402 OA
BRANCH   3  13
ATOM     10  C   UNL     1      -2.827  -2.346   1.256  0.00  0.00    +0.000 A 
ATOM     11  C   UNL     1      -2.143  -1.145   1.320  0.00  0.00    +0.001 A 
ATOM     12  C   UNL     1      -0.772  -1.120   1.170  0.00  0.00    +0.013 A 
ATOM     13  C   UNL     1      -0.074  -2.310   0.954  0.00  0.00    +0.037 A 
ATOM     14  C   UNL     1      -0.771  -3.519   0.892  0.00  0.00    +0.013 A 
ATOM     15  C   UNL     1      -2.142  -3.530   1.043  0.00  0.00    +0.001 A 
ENDBRANCH   3  13
ENDBRANCH   1   6
BRANCH   1  16
ATOM     16  N   UNL     1       5.475  -5.932  -0.104  0.00  0.00    -0.222 N 
BRANCH  16  17
ATOM     17  C   UNL     1       6.346  -6.232   0.947  0.00  0.00    +0.053 A 
ATOM     18  C   UNL     1       6.016  -5.874   2.248  0.00  0.00    +0.025 A 
ATOM     19  C   UNL     1       6.879  -6.172   3.284  0.00  0.00    +0.002 A 
ATOM     20  C   UNL     1       8.070  -6.827   3.027  0.00  0.00    +0.000 A 
ATOM     21  C   UNL     1       8.401  -7.185   1.733  0.00  0.00    +0.002 A 
ATOM     22  C   UNL     1       7.540  -6.894   0.693  0.00  0.00    +0.025 A 
ENDBRANCH  16  17
BRANCH  16  23
ATOM     23  C   UNL     1       5.711  -6.454  -1.378  0.00  0.00    +0.053 A 
ATOM     24  C   UNL     1       5.855  -7.825  -1.553  0.00  0.00    +0.025 A 
ATOM     25  C   UNL     1       6.088  -8.338  -2.813  0.00  0.00    +0.002 A 
ATOM     26  C   UNL     1       6.178  -7.489  -3.901  0.00  0.00    +0.000 A 
ATOM     27  C   UNL     1       6.035  -6.124  -3.731  0.00  0.00    +0.002 A 
ATOM     28  C   UNL     1       5.797  -5.605  -2.474  0.00  0.00    +0.025 A 
ENDBRANCH  16  23
ENDBRANCH   1  16
TORSDOF 5
