REMARK  Name = ZINC59269519
REMARK  4 active torsions:
REMARK  status: ('A' for Active; 'I' for Inactive)
REMARK    1  A    between atoms: C_1  and  C_2
REMARK    2  A    between atoms: C_7  and  C_8
REMARK    3  A    between atoms: C_10  and  C_12
REMARK    4  A    between atoms: C_13  and  C_14
REMARK                            x       y       z     vdW  Elec       q    Type
REMARK                         _______ _______ _______ _____ _____    ______ ____
ROOT
ATOM      1  C   UNL     1       0.056  -5.170  -3.322  0.00  0.00    +0.036 C 
ATOM      2  C   UNL     1       0.044  -4.764  -4.606  0.00  0.00    +0.013 C 
ENDROOT
BRANCH   1  12
ATOM      3  C   UNL     1      -0.018   1.503   0.010  0.00  0.00    +0.044 C 
ATOM      4  C   UNL     1       0.002  -0.004   0.002  0.00  0.00    -0.045 A 
ATOM      5  C   UNL     1       0.005  -0.660  -1.189  0.00  0.00    +0.032 A 
ATOM      6  C   UNL     1       0.024  -2.075  -1.238  0.00  0.00    +0.079 A 
ATOM      7  C   UNL     1       0.039  -2.742   0.011  0.00  0.00    +0.040 A 
ATOM      8  C   UNL     1       0.036  -2.070   1.207  0.00  0.00    +0.020 A 
ATOM      9  C   UNL     1       0.023  -0.686   1.210  0.00  0.00    -0.046 A 
ATOM     10  C   UNL     1       0.025   0.072   2.512  0.00  0.00    +0.044 C 
ATOM     11  S   UNL     1       0.060  -4.451  -0.473  0.00  0.00    -0.068 S 
ATOM     12  C   UNL     1       0.048  -4.181  -2.241  0.00  0.00    +0.102 A 
ATOM     13  N   UNL     1       0.029  -2.865  -2.322  0.00  0.00    -0.240 NA
ENDBRANCH   1  12
BRANCH   2  14
ATOM     14  C   UNL     1       0.052  -5.757  -5.693  0.00  0.00    +0.011 A 
ATOM     15  C   UNL     1       0.067  -7.131  -5.412  0.00  0.00    +0.123 A 
ATOM     16  N   UNL     1       0.073  -7.989  -6.416  0.00  0.00    -0.222 NA
ATOM     17  C   UNL     1       0.067  -7.567  -7.673  0.00  0.00    +0.218 A 
ATOM     18  N   UNL     1       0.054  -6.277  -7.980  0.00  0.00    -0.222 NA
ATOM     19  C   UNL     1       0.040  -5.354  -7.036  0.00  0.00    +0.123 A 
ATOM     20  N   UNL     1       0.076  -8.499  -8.693  0.00  0.00    -0.300 N 
ATOM     21  C   UNL     1       0.085  -9.959  -8.519  0.00  0.00    +0.108 C 
ATOM     22  C   UNL     1       0.118 -10.588  -9.928  0.00  0.00    +0.020 C 
ATOM     23  C   UNL     1       0.697  -9.446 -10.805  0.00  0.00    +0.020 C 
ATOM     24  C   UNL     1       0.070  -8.195 -10.135  0.00  0.00    +0.108 C 
ENDBRANCH   2  14
TORSDOF 2
