REMARK  Name = ZINC38114988
REMARK  6 active torsions:
REMARK  status: ('A' for Active; 'I' for Inactive)
REMARK    1  A    between atoms: C_2  and  CA_12
REMARK    2  A    between atoms: CA_12  and  C_14
REMARK    3  A    between atoms: CA_12  and  N_16
REMARK    4  A    between atoms: C_14  and  O_15
REMARK    5  A    between atoms: N_16  and  C_17
REMARK    6  A    between atoms: C_17  and  C_18
REMARK                            x       y       z     vdW  Elec       q    Type
REMARK                         _______ _______ _______ _____ _____    ______ ____
ROOT
ATOM      1  CA  UNL     1       1.145   3.599   0.010  0.00  0.00    -0.015 C 
ENDROOT
BRANCH   1   3
ATOM      2  C   UNL     1      -0.017   1.383   0.010  0.00  0.00    +0.051 A 
ATOM      3  C   UNL     1       1.170   2.092   0.002  0.00  0.00    -0.054 A 
ATOM      4  C   UNL     1       2.378   1.422  -0.013  0.00  0.00    +0.026 A 
ATOM      5  C   UNL     1       2.405   0.039  -0.023  0.00  0.00    +0.086 A 
ATOM      6  C   UNL     1       1.217  -0.679  -0.016  0.00  0.00    +0.180 A 
ATOM      7  C   UNL     1       0.002  -0.004   0.002  0.00  0.00    +0.164 A 
ATOM      8  O   UNL     1      -1.175  -0.688   0.016  0.00  0.00    -0.485 OA
ATOM      9  C   UNL     1      -1.122  -2.066  -0.368  0.00  0.00    +0.270 C 
ATOM     10  C   UNL     1       0.060  -2.723   0.356  0.00  0.00    +0.270 C 
ATOM     11  O   UNL     1       1.258  -2.039  -0.030  0.00  0.00    -0.483 OA
ATOM     12 CL   UNL     1       3.924  -0.800  -0.043  0.00  0.00    -0.080 Cl
ENDBRANCH   1   3
BRANCH   1  13
ATOM     13  N   UNL     1       2.207   4.101   0.893  0.00  0.00    +0.387 N 
ATOM     14  H1  UNL     1       2.103   3.692   1.810  0.00  0.00    -0.085 HD
ATOM     15  H2  UNL     1       3.107   3.850   0.513  0.00  0.00    -0.085 HD
BRANCH  13  16
ATOM     16  C   UNL     1       2.108   5.563   0.995  0.00  0.00    -0.050 C 
BRANCH  16  17
ATOM     17  C   UNL     1       3.213   6.086   1.915  0.00  0.00    +0.101 C 
ATOM     18  C   UNL     1       3.044   7.606   2.125  0.00  0.00    +0.032 C 
ATOM     19  C   UNL     1       4.514   8.107   2.102  0.00  0.00    +0.030 C 
ATOM     20  C   UNL     1       5.141   7.133   1.073  0.00  0.00    +0.160 C 
ATOM     21  O   UNL     1       4.492   5.871   1.308  0.00  0.00    -0.378 OA
ENDBRANCH  16  17
ENDBRANCH  13  16
ENDBRANCH   1  13
BRANCH   1  22
ATOM     22  C   UNL     1       1.374   4.120  -1.410  0.00  0.00    +0.144 C 
BRANCH  22  23
ATOM     23  O   UNL     1       2.588   3.573  -1.929  0.00  0.00    -0.396 OA
ATOM     24  H   UNL     1       2.797   3.861  -2.828  0.00  0.00    +0.209 HD
ENDBRANCH  22  23
ENDBRANCH   1  22
TORSDOF 6
