REMARK  Name = ZINC30529846
REMARK  5 active torsions:
REMARK  status: ('A' for Active; 'I' for Inactive)
REMARK    1  A    between atoms: C_1  and  C_2
REMARK    2  A    between atoms: C_3  and  N_19
REMARK    3  A    between atoms: C_7  and  S_8
REMARK    4  A    between atoms: S_8  and  N_11
REMARK    5  A    between atoms: N_11  and  C_12
REMARK                            x       y       z     vdW  Elec       q    Type
REMARK                         _______ _______ _______ _____ _____    ______ ____
ROOT
ATOM      1  S   UNL     1      -1.627   3.768   1.137  0.00  0.00    +0.073 S 
ATOM      2  O   UNL     1      -2.837   4.504   1.014  0.00  0.00    -0.150 OA
ATOM      3  O   UNL     1      -1.142   3.304   2.389  0.00  0.00    -0.150 OA
ENDROOT
BRANCH   1  10
ATOM      4  C   UNL     1       1.259   2.904   0.866  0.00  0.00    +0.048 C 
ATOM      5  C   UNL     1       0.938   4.287   0.362  0.00  0.00    +0.006 A 
ATOM      6  C   UNL     1       1.935   5.072  -0.186  0.00  0.00    +0.131 A 
ATOM      7  C   UNL     1       1.642   6.343  -0.645  0.00  0.00    +0.033 A 
ATOM      8  C   UNL     1       0.350   6.827  -0.558  0.00  0.00    +0.004 A 
ATOM      9  C   UNL     1      -0.648   6.041  -0.014  0.00  0.00    +0.029 A 
ATOM     10  C   UNL     1      -0.355   4.770   0.443  0.00  0.00    +0.114 A 
BRANCH   6  11
ATOM     11  N   UNL     1       3.319   4.554  -0.278  0.00  0.00    +0.057 N 
ATOM     12  O   UNL     1       4.184   5.219  -0.819  0.00  0.00    -0.126 OA
ATOM     13  O   UNL     1       3.592   3.462   0.188  0.00  0.00    -0.126 OA
ENDBRANCH   6  11
ENDBRANCH   1  10
BRANCH   1  14
ATOM     14  N   UNL     1      -1.784   2.435   0.167  0.00  0.00    -0.216 N 
ATOM     15  H   UNL     1      -1.597   1.431   0.576  0.00  0.00    +0.174 HD
BRANCH  14  16
ATOM     16  C   UNL     1      -2.154   2.585  -1.172  0.00  0.00    +0.049 A 
ATOM     17  C   UNL     1      -1.466   1.900  -2.165  0.00  0.00    +0.024 A 
ATOM     18  C   UNL     1      -1.838   2.046  -3.487  0.00  0.00    +0.003 A 
ATOM     19  C   UNL     1      -2.895   2.873  -3.823  0.00  0.00    +0.014 A 
ATOM     20  C   UNL     1      -3.582   3.556  -2.836  0.00  0.00    +0.015 A 
ATOM     21  C   UNL     1      -3.215   3.415  -1.512  0.00  0.00    +0.038 A 
ATOM     22  I   UNL     1      -5.182   4.807  -3.351  0.00  0.00    -0.044 I 
ENDBRANCH  14  16
ENDBRANCH   1  14
TORSDOF 4
