REMARK  Name = ZINC15355746
REMARK  6 active torsions:
REMARK  status: ('A' for Active; 'I' for Inactive)
REMARK    1  A    between atoms: C_1  and  C_2
REMARK    2  A    between atoms: C_3  and  C_4
REMARK    3  A    between atoms: C_5  and  C_6
REMARK    4  A    between atoms: N_8  and  C_9
REMARK    5  A    between atoms: C_12  and  S_15
REMARK    6  A    between atoms: S_15  and  N_18
REMARK                            x       y       z     vdW  Elec       q    Type
REMARK                         _______ _______ _______ _____ _____    ______ ____
ROOT
ATOM      1  C   UNL     1       2.382   1.407  -0.008  0.00  0.00    +0.034 A 
ATOM      2  C   UNL     1       1.173   2.072  -0.167  0.00  0.00    +0.025 A 
ATOM      3  C   UNL     1      -0.011   1.361  -0.154  0.00  0.00    +0.031 A 
ATOM      4  C   UNL     1       0.006  -0.011   0.018  0.00  0.00    +0.113 A 
ATOM      5  C   UNL     1       1.208  -0.676   0.177  0.00  0.00    +0.031 A 
ATOM      6  C   UNL     1       2.396   0.029   0.164  0.00  0.00    +0.025 A 
ENDROOT
BRANCH   1   9
ATOM      7  C   UNL     1       4.698   1.560  -0.529  0.00  0.00    +0.241 C 
ATOM      8  O   UNL     1       4.639   0.467  -1.062  0.00  0.00    -0.270 OA
ATOM      9  N   UNL     1       3.583   2.123  -0.022  0.00  0.00    -0.282 N 
ATOM     10  H   UNL     1       3.614   3.025   0.334  0.00  0.00    +0.155 HD
BRANCH   7  12
ATOM     11  C   UNL     1       7.095   1.697  -0.949  0.00  0.00    +0.005 C 
ATOM     12  C   UNL     1       5.977   2.262  -0.440  0.00  0.00    +0.067 C 
BRANCH  11  15
ATOM     13  C   UNL     1      10.798   2.566  -1.269  0.00  0.00    +0.035 C 
ATOM     14  C   UNL     1       9.479   1.843  -1.361  0.00  0.00    -0.030 C 
ATOM     15  C   UNL     1       8.376   2.400  -0.859  0.00  0.00    -0.004 C 
ENDBRANCH  11  15
ENDBRANCH   7  12
ENDBRANCH   1   9
BRANCH   4  16
ATOM     16  S   UNL     1      -1.507  -0.913   0.034  0.00  0.00    +0.100 S 
ATOM     17  O   UNL     1      -1.257  -2.112   0.755  0.00  0.00    -0.146 OA
ATOM     18  O   UNL     1      -2.524   0.005   0.411  0.00  0.00    -0.146 OA
BRANCH  16  19
ATOM     19  N   UNL     1      -1.828  -1.359  -1.528  0.00  0.00    -0.118 NA
ATOM     20  C   UNL     1      -2.893  -2.040  -1.800  0.00  0.00    +0.117 C 
ATOM     21  C   UNL     1      -3.822  -2.426  -0.759  0.00  0.00    +0.073 C 
ATOM     22  C   UNL     1      -4.110  -3.935  -0.751  0.00  0.00    +0.008 C 
ATOM     23  C   UNL     1      -5.091  -4.188  -1.862  0.00  0.00    +0.002 C 
ATOM     24  C   UNL     1      -4.410  -4.632  -3.181  0.00  0.00    +0.019 C 
ATOM     25  C   UNL     1      -3.118  -3.830  -3.415  0.00  0.00    +0.102 C 
ATOM     26  N   UNL     1      -3.192  -2.425  -3.116  0.00  0.00    -0.331 N 
ATOM     27  H   UNL     1      -3.437  -1.773  -3.791  0.00  0.00    +0.147 HD
ENDBRANCH  16  19
ENDBRANCH   4  16
TORSDOF 5
