REMARK  Name = ZINC12209173
REMARK  7 active torsions:
REMARK  status: ('A' for Active; 'I' for Inactive)
REMARK    1  A    between atoms: C_1  and  C_2
REMARK    2  A    between atoms: C_5  and  N_21
REMARK    3  A    between atoms: C_7  and  S_8
REMARK    4  A    between atoms: S_8  and  N_11
REMARK    5  A    between atoms: N_11  and  C_12
REMARK    6  A    between atoms: C_13  and  C_20
REMARK    7  A    between atoms: C_15  and  C_19
REMARK                            x       y       z     vdW  Elec       q    Type
REMARK                         _______ _______ _______ _____ _____    ______ ____
ROOT
ATOM      1  C   UNL     1      -0.910  -0.671  -1.136  0.00  0.00    +0.046 C 
ATOM      2  C   UNL     1       0.311   0.203  -1.003  0.00  0.00    -0.024 A 
ATOM      3  C   UNL     1       1.525  -0.225  -1.510  0.00  0.00    +0.007 A 
ATOM      4  C   UNL     1       2.645   0.574  -1.390  0.00  0.00    +0.025 A 
ATOM      5  C   UNL     1       2.551   1.808  -0.760  0.00  0.00    +0.053 A 
ATOM      6  C   UNL     1       1.331   2.235  -0.253  0.00  0.00    +0.053 A 
ATOM      7  C   UNL     1       0.215   1.431  -0.376  0.00  0.00    +0.113 A 
ENDROOT
BRANCH   5   8
ATOM      8  N   UNL     1       3.683   2.618  -0.637  0.00  0.00    -0.207 N 
ATOM      9  C   UNL     1       3.734   3.950  -1.259  0.00  0.00    +0.131 C 
ATOM     10  C   UNL     1       4.012   5.002  -0.188  0.00  0.00    +0.022 C 
ATOM     11  C   UNL     1       5.395   4.796   0.425  0.00  0.00    +0.026 C 
ATOM     12  C   UNL     1       5.396   3.530   1.289  0.00  0.00    +0.189 C 
ATOM     13  S   UNL     1       5.013   2.110   0.225  0.00  0.00    +0.045 S 
ATOM     14  O   UNL     1       4.550   1.017   1.007  0.00  0.00    -0.155 OA
ATOM     15  O   UNL     1       6.035   1.932  -0.745  0.00  0.00    -0.155 OA
ENDBRANCH   5   8
BRANCH   7  16
ATOM     16  S   UNL     1      -1.336   1.975   0.261  0.00  0.00    +0.073 S 
ATOM     17  O   UNL     1      -1.828   0.926   1.083  0.00  0.00    -0.150 OA
ATOM     18  O   UNL     1      -1.134   3.294   0.749  0.00  0.00    -0.150 OA
BRANCH  16  19
ATOM     19  N   UNL     1      -2.376   2.099  -1.022  0.00  0.00    -0.215 N 
ATOM     20  H   UNL     1      -3.051   1.418  -1.166  0.00  0.00    +0.174 HD
BRANCH  19  21
ATOM     21  C   UNL     1      -2.280   3.184  -1.897  0.00  0.00    +0.069 A 
ATOM     22  C   UNL     1      -1.842   2.991  -3.200  0.00  0.00    -0.026 A 
ATOM     23  C   UNL     1      -1.754   4.066  -4.064  0.00  0.00    +0.008 A 
ATOM     24  C   UNL     1      -2.092   5.334  -3.629  0.00  0.00    -0.049 A 
ATOM     25  C   UNL     1      -2.523   5.532  -2.331  0.00  0.00    +0.025 A 
ATOM     26  C   UNL     1      -2.619   4.461  -1.462  0.00  0.00    +0.064 A 
ATOM     27 CL   UNL     1      -3.162   4.709   0.168  0.00  0.00    -0.082 Cl
ATOM     28  C   UNL     1      -1.989   6.505  -4.573  0.00  0.00    +0.044 C 
ATOM     29  C   UNL     1      -1.467   1.611  -3.673  0.00  0.00    +0.046 C 
ENDBRANCH  19  21
ENDBRANCH  16  19
ENDBRANCH   7  16
TORSDOF 4
