REMARK  Name = ZINC44109810
REMARK  9 active torsions:
REMARK  status: ('A' for Active; 'I' for Inactive)
REMARK    1  A    between atoms: C_1  and  C_2
REMARK    2  A    between atoms: C_2  and  C_4
REMARK    3  A    between atoms: C_2  and  S_13
REMARK    4  A    between atoms: C_6  and  C_9
REMARK    5  A    between atoms: C_9  and  C_10
REMARK    6  A    between atoms: C_9  and  C_11
REMARK    7  A    between atoms: C_9  and  C_12
REMARK    8  A    between atoms: S_13  and  C_14
REMARK    9  A    between atoms: C_17  and  C_20
REMARK                            x       y       z     vdW  Elec       q    Type
REMARK                         _______ _______ _______ _____ _____    ______ ____
ROOT
ATOM      1  C   UNL     1      -2.365  -0.093  -1.525  0.00  0.00    +0.185 A 
ATOM      2  N   UNL     1      -1.727   0.603  -2.441  0.00  0.00    -0.201 NA
ATOM      3  H   UNL     1      -4.316  -0.821  -1.517  0.00  0.00    +0.191 HD
ATOM      4  C   UNL     1      -2.542   0.833  -3.481  0.00  0.00    +0.183 A 
ATOM      5  N   UNL     1      -3.709   0.282  -3.236  0.00  0.00    -0.152 NA
ATOM      6  N   UNL     1      -3.617  -0.329  -1.976  0.00  0.00    -0.253 N 
ENDROOT
BRANCH   4   7
ATOM      7  C   UNL     1      -2.183   1.586  -4.708  0.00  0.00    +0.035 A 
ATOM      8  C   UNL     1      -0.904   2.120  -4.852  0.00  0.00    +0.013 A 
ATOM      9  C   UNL     1      -0.575   2.819  -5.995  0.00  0.00    +0.001 A 
ATOM     10  C   UNL     1      -1.513   2.991  -6.998  0.00  0.00    +0.001 A 
ATOM     11  C   UNL     1      -2.784   2.464  -6.861  0.00  0.00    +0.016 A 
ATOM     12  C   UNL     1      -3.122   1.757  -5.724  0.00  0.00    +0.029 A 
ATOM     13 BR   UNL     1      -4.858   1.030  -5.541  0.00  0.00    -0.050 Br
ENDBRANCH   4   7
BRANCH   1  14
ATOM     14  S   UNL     1      -1.700  -0.632   0.015  0.00  0.00    -0.074 S 
BRANCH  14  16
ATOM     15  C   UNL     1      -0.019   1.526   0.010  0.00  0.00    +0.029 C 
ATOM     16  C   UNL     1       0.002  -0.004   0.002  0.00  0.00    +0.140 C 
BRANCH  16  17
ATOM     17  C   UNL     1       0.731  -0.503   1.223  0.00  0.00    +0.241 A 
ATOM     18  N   UNL     1       1.939  -0.995   1.244  0.00  0.00    -0.195 NA
ATOM     19  C   UNL     1       2.272  -1.339   2.493  0.00  0.00    +0.177 A 
ATOM     20  N   UNL     1       1.275  -1.069   3.286  0.00  0.00    -0.061 NA
ATOM     21  O   UNL     1       0.252  -0.513   2.473  0.00  0.00    -0.337 OA
BRANCH  19  22
ATOM     22  C   UNL     1       3.588  -1.942   2.914  0.00  0.00    +0.025 C 
ATOM     23  C   UNL     1       4.725  -0.980   2.564  0.00  0.00    +0.019 C 
ATOM     24  C   UNL     1       3.575  -2.190   4.424  0.00  0.00    +0.019 C 
ATOM     25  C   UNL     1       3.799  -3.268   2.181  0.00  0.00    +0.019 C 
ENDBRANCH  19  22
ENDBRANCH  16  17
ENDBRANCH  14  16
ENDBRANCH   1  14
TORSDOF 5
