REMARK  Name = ZINC39913978
REMARK  13 active torsions:
REMARK  status: ('A' for Active; 'I' for Inactive)
REMARK    1  A    between atoms: C_1  and  C_2
REMARK    2  A    between atoms: C_2  and  O_3
REMARK    3  A    between atoms: O_3  and  C_4
REMARK    4  A    between atoms: C_6  and  C_14
REMARK    5  A    between atoms: C_9  and  O_10
REMARK    6  A    between atoms: O_10  and  C_11
REMARK    7  A    between atoms: C_11  and  C_12
REMARK    8  A    between atoms: C_17  and  C_28
REMARK    9  A    between atoms: N_24  and  C_25
REMARK   10  A    between atoms: C_25  and  C_26
REMARK   11  A    between atoms: C_26  and  O_27
REMARK   12  A    between atoms: C_31  and  C_35
REMARK   13  A    between atoms: C_33  and  O_34
REMARK                            x       y       z     vdW  Elec       q    Type
REMARK                         _______ _______ _______ _____ _____    ______ ____
ROOT
ATOM      1  C   UNL     1       0.162  -5.293  -0.115  0.00  0.00    +0.141 C 
ATOM      2  C   UNL     1       0.842  -5.720  -1.387  0.00  0.00    +0.035 A 
ATOM      3  C   UNL     1       1.483  -5.332  -2.569  0.00  0.00    +0.102 A 
ATOM      4  N   UNL     1       1.818  -6.432  -3.215  0.00  0.00    -0.173 NA
ATOM      5  N   UNL     1       1.452  -7.475  -2.558  0.00  0.00    -0.272 N 
ATOM      6  H   UNL     1       1.595  -8.391  -2.843  0.00  0.00    +0.189 HD
ATOM      7  C   UNL     1       0.833  -7.101  -1.399  0.00  0.00    +0.126 A 
ATOM      8  C   UNL     1       0.170  -7.574  -0.179  0.00  0.00    +0.266 C 
ATOM      9  O   UNL     1       0.001  -8.743   0.111  0.00  0.00    -0.268 OA
ATOM     10  N   UNL     1      -0.223  -6.530   0.576  0.00  0.00    -0.283 N 
ENDROOT
BRANCH   3  11
ATOM     11  C   UNL     1       1.737  -3.940  -3.015  0.00  0.00    +0.045 A 
ATOM     12  C   UNL     1       1.446  -2.871  -2.171  0.00  0.00    +0.034 A 
ATOM     13  C   UNL     1       1.685  -1.577  -2.590  0.00  0.00    +0.045 A 
ATOM     14  C   UNL     1       2.213  -1.338  -3.847  0.00  0.00    -0.029 A 
ATOM     15  C   UNL     1       2.506  -2.392  -4.692  0.00  0.00    +0.050 A 
ATOM     16  C   UNL     1       2.276  -3.695  -4.281  0.00  0.00    +0.126 A 
ATOM     17  C   UNL     1       2.471   0.077  -4.296  0.00  0.00    +0.045 C 
ATOM     18 CL   UNL     1       1.320  -0.245  -1.537  0.00  0.00    -0.083 Cl
BRANCH  16  19
ATOM     19  O   UNL     1       2.569  -4.732  -5.108  0.00  0.00    -0.506 OA
ATOM     20  H   UNL     1       1.839  -4.992  -5.687  0.00  0.00    +0.292 HD
ENDBRANCH  16  19
ENDBRANCH   3  11
BRANCH   1  23
ATOM     21  C   UNL     1      -3.284  -4.317  -1.318  0.00  0.00    +0.162 A 
ATOM     22  C   UNL     1      -2.157  -5.070  -1.027  0.00  0.00    +0.055 A 
ATOM     23  C   UNL     1      -1.062  -4.473  -0.431  0.00  0.00    -0.019 A 
ATOM     24  C   UNL     1      -1.087  -3.125  -0.124  0.00  0.00    +0.009 A 
ATOM     25  C   UNL     1      -2.208  -2.368  -0.412  0.00  0.00    +0.050 A 
ATOM     26  C   UNL     1      -3.307  -2.959  -1.014  0.00  0.00    +0.162 A 
BRANCH  21  27
ATOM     27  O   UNL     1      -4.362  -4.902  -1.905  0.00  0.00    -0.489 OA
BRANCH  27  29
ATOM     28  C   UNL     1      -5.645  -6.807  -2.655  0.00  0.00    +0.048 C 
ATOM     29  C   UNL     1      -4.311  -6.319  -2.088  0.00  0.00    +0.226 C 
ENDBRANCH  27  29
ENDBRANCH  21  27
BRANCH  26  30
ATOM     30  O   UNL     1      -4.407  -2.215  -1.303  0.00  0.00    -0.484 OA
BRANCH  30  31
ATOM     31  C   UNL     1      -4.360  -0.827  -0.963  0.00  0.00    +0.256 C 
BRANCH  31  32
ATOM     32  C   UNL     1      -5.658  -0.170  -1.355  0.00  0.00    +0.006 C 
ATOM     33  C   UNL     1      -6.253   0.651  -0.525  0.00  0.00    +0.007 C 
ENDBRANCH  31  32
ENDBRANCH  30  31
ENDBRANCH  26  30
ENDBRANCH   1  23
BRANCH  10  34
ATOM     34  C   UNL     1      -0.916  -6.614   1.864  0.00  0.00    +0.137 C 
BRANCH  34  35
ATOM     35  C   UNL     1      -2.420  -6.764   1.625  0.00  0.00    +0.175 C 
BRANCH  35  36
ATOM     36  O   UNL     1      -2.675  -7.998   0.951  0.00  0.00    -0.393 OA
ATOM     37  H   UNL     1      -3.610  -8.160   0.766  0.00  0.00    +0.209 HD
ENDBRANCH  35  36
ENDBRANCH  34  35
ENDBRANCH  10  34
TORSDOF 11
