REMARK  Name = ZINC58489238
REMARK  9 active torsions:
REMARK  status: ('A' for Active; 'I' for Inactive)
REMARK    1  A    between atoms: C_4  and  C_7
REMARK    2  A    between atoms: C_15  and  N_17
REMARK    3  A    between atoms: N_17  and  C_18
REMARK    4  A    between atoms: C_18  and  C_20
REMARK    5  A    between atoms: C_18  and  C_22
REMARK    6  A    between atoms: C_20  and  O_21
REMARK    7  A    between atoms: C_22  and  C_24
REMARK    8  A    between atoms: C_22  and  O_33
REMARK    9  A    between atoms: C_27  and  N_30
REMARK                            x       y       z     vdW  Elec       q    Type
REMARK                         _______ _______ _______ _____ _____    ______ ____
ROOT
ATOM      1  N   UNK A   1       4.714  -3.988   0.004  0.00  0.00    -0.321 N 
ATOM      2  H   UNK A   1       5.584  -4.415  -0.019  0.00  0.00    +0.148 HD
ENDROOT
BRANCH   1  11
ATOM      3  C   UNK A   0       3.340  -0.689   0.203  0.00  0.00    +0.162 A 
ATOM      4  N   UNK A   0       4.393   0.106   0.256  0.00  0.00    -0.227 NA
ATOM      5  C   UNK A   0       5.631  -0.405   0.230  0.00  0.00    +0.077 A 
ATOM      6  C   UNK A   0       6.771   0.410   0.285  0.00  0.00    +0.028 A 
ATOM      7  C   UNK A   0       8.008  -0.161   0.255  0.00  0.00    +0.002 A 
ATOM      8  C   UNK A   0       8.159  -1.542   0.169  0.00  0.00    +0.001 A 
ATOM      9  C   UNK A   0       7.072  -2.364   0.114  0.00  0.00    +0.013 A 
ATOM     10  C   UNK A   0       5.787  -1.811   0.143  0.00  0.00    +0.040 A 
ATOM     11  C   UNK A   0       4.622  -2.615   0.089  0.00  0.00    +0.131 A 
ATOM     12  N   UNK A   0       3.442  -2.014   0.127  0.00  0.00    -0.212 NA
BRANCH   3  16
ATOM     13  C   UNK A   0      -0.536   1.054   0.296  0.00  0.00    +0.000 A 
ATOM     14  C   UNK A   0       0.585   1.864   0.346  0.00  0.00    +0.001 A 
ATOM     15  C   UNK A   0       1.845   1.303   0.316  0.00  0.00    +0.011 A 
ATOM     16  C   UNK A   0       1.988  -0.081   0.236  0.00  0.00    +0.019 A 
ATOM     17  C   UNK A   0       0.855  -0.891   0.187  0.00  0.00    +0.011 A 
ATOM     18  C   UNK A   0      -0.401  -0.320   0.217  0.00  0.00    +0.001 A 
ENDBRANCH   3  16
ENDBRANCH   1  11
BRANCH   1  19
ATOM     19  C   UNK A   1       3.497  -4.802  -0.051  0.00  0.00    +0.130 C 
BRANCH  19  20
ATOM     20  C   UNK A   1       3.008  -4.892  -1.498  0.00  0.00    +0.181 C 
BRANCH  20  21
ATOM     21  O   UNK A   1       3.977  -5.587  -2.286  0.00  0.00    -0.393 OA
ATOM     22  H   UNK A   1       3.733  -5.681  -3.216  0.00  0.00    +0.209 HD
ENDBRANCH  20  21
ENDBRANCH  19  20
BRANCH  19  23
ATOM     23  C   UNK A   1       3.799  -6.207   0.474  0.00  0.00    +0.167 C 
BRANCH  23  24
ATOM     24  C   UNK A   1       4.208  -6.125   1.922  0.00  0.00    -0.017 A 
ATOM     25  C   UNK A   1       3.245  -6.112   2.913  0.00  0.00    +0.008 A 
ATOM     26  C   UNK A   1       3.620  -6.037   4.241  0.00  0.00    +0.033 A 
ATOM     27  C   UNK A   1       4.960  -5.976   4.578  0.00  0.00    +0.126 A 
ATOM     28  C   UNK A   1       5.923  -5.991   3.587  0.00  0.00    +0.033 A 
ATOM     29  C   UNK A   1       5.548  -6.070   2.259  0.00  0.00    +0.008 A 
BRANCH  27  30
ATOM     30  N   UNK A   1       5.362  -5.895   6.000  0.00  0.00    +0.056 N 
ATOM     31  O   UNK A   1       4.519  -5.882   6.867  0.00  0.00    -0.126 OA
ATOM     32  O   UNK A   1       6.533  -5.842   6.295  0.00  0.00    -0.126 OA
ENDBRANCH  27  30
ENDBRANCH  23  24
BRANCH  23  33
ATOM     33  O   UNK A   1       2.630  -7.021   0.354  0.00  0.00    -0.385 OA
ATOM     34  H   UNK A   1       1.844  -6.644   0.772  0.00  0.00    +0.210 HD
ENDBRANCH  23  33
ENDBRANCH  19  23
ENDBRANCH   1  19
TORSDOF 9
