REMARK  Name = ZINC59460772
REMARK  7 active torsions:
REMARK  status: ('A' for Active; 'I' for Inactive)
REMARK    1  A    between atoms: C_4  and  C_7
REMARK    2  A    between atoms: C_7  and  C_19
REMARK    3  A    between atoms: N_8  and  N_9
REMARK    4  A    between atoms: C_10  and  C_12
REMARK    5  A    between atoms: C_17  and  O_18
REMARK    6  A    between atoms: C_19  and  S_20
REMARK    7  A    between atoms: S_20  and  C_21
REMARK                            x       y       z     vdW  Elec       q    Type
REMARK                         _______ _______ _______ _____ _____    ______ ____
ROOT
ATOM      1  C   UNL     1       3.692  -0.682  -0.050  0.00  0.00    +0.077 C 
ATOM      2  N   UNL     1       4.803  -0.018  -0.143  0.00  0.00    -0.183 NA
ENDROOT
BRANCH   1   6
ATOM      3  C   UNL     1      -0.023   1.367  -0.188  0.00  0.00    +0.000 A 
ATOM      4  C   UNL     1       1.015   1.767  -1.011  0.00  0.00    +0.001 A 
ATOM      5  C   UNL     1       2.225   1.106  -0.971  0.00  0.00    +0.010 A 
ATOM      6  C   UNL     1       2.401   0.030  -0.098  0.00  0.00    -0.001 A 
ATOM      7  C   UNL     1       1.349  -0.368   0.730  0.00  0.00    +0.010 A 
ATOM      8  C   UNL     1       0.144   0.302   0.680  0.00  0.00    +0.001 A 
ENDBRANCH   1   6
BRANCH   2   9
ATOM      9  N   UNL     1       4.785   1.383  -0.135  0.00  0.00    -0.203 N 
ATOM     10  C   UNL     1       5.923   2.073  -0.345  0.00  0.00    +0.267 C 
ATOM     11  O   UNL     1       6.967   1.479  -0.542  0.00  0.00    -0.268 OA
ATOM     12  H   UNL     1       3.953   1.856   0.021  0.00  0.00    +0.178 HD
BRANCH  10  13
ATOM     13  C   UNL     1       5.904   3.547  -0.338  0.00  0.00    +0.080 A 
ATOM     14  C   UNL     1       4.709   4.233  -0.107  0.00  0.00    +0.017 A 
ATOM     15  C   UNL     1       4.698   5.611  -0.101  0.00  0.00    +0.001 A 
ATOM     16  C   UNL     1       5.867   6.321  -0.323  0.00  0.00    +0.004 A 
ATOM     17  C   UNL     1       7.055   5.655  -0.552  0.00  0.00    +0.046 A 
ATOM     18  C   UNL     1       7.086   4.269  -0.556  0.00  0.00    +0.129 A 
BRANCH  18  19
ATOM     19  O   UNL     1       8.253   3.614  -0.775  0.00  0.00    -0.506 OA
ATOM     20  H   UNL     1       8.430   3.426  -1.707  0.00  0.00    +0.292 HD
ENDBRANCH  18  19
ENDBRANCH  10  13
ENDBRANCH   2   9
BRANCH   1  21
ATOM     21  C   UNL     1       3.720  -2.181   0.106  0.00  0.00    +0.134 C 
BRANCH  21  22
ATOM     22  S   UNL     1       5.441  -2.753   0.131  0.00  0.00    -0.092 S 
BRANCH  22  23
ATOM     23  C   UNL     1       5.306  -4.500   0.317  0.00  0.00    +0.136 A 
ATOM     24  N   UNL     1       4.223  -5.238   0.411  0.00  0.00    -0.233 NA
ATOM     25  C   UNL     1       4.270  -6.581   0.551  0.00  0.00    +0.079 A 
ATOM     26  C   UNL     1       3.189  -7.485   0.663  0.00  0.00    +0.029 A 
ATOM     27  C   UNL     1       3.412  -8.831   0.801  0.00  0.00    +0.002 A 
ATOM     28  C   UNL     1       4.697  -9.352   0.836  0.00  0.00    +0.001 A 
ATOM     29  C   UNL     1       5.778  -8.496   0.729  0.00  0.00    +0.017 A 
ATOM     30  C   UNL     1       5.564  -7.148   0.590  0.00  0.00    +0.040 A 
ATOM     31  S   UNL     1       6.608  -5.721   0.417  0.00  0.00    -0.061 S 
ENDBRANCH  22  23
ENDBRANCH  21  22
ENDBRANCH   1  21
TORSDOF 7
