REMARK  Name = ZINC20522709
REMARK  7 active torsions:
REMARK  status: ('A' for Active; 'I' for Inactive)
REMARK    1  A    between atoms: C_4  and  C_7
REMARK    2  A    between atoms: C_7  and  N_8
REMARK    3  A    between atoms: N_8  and  C_9
REMARK    4  A    between atoms: C_12  and  C_31
REMARK    5  A    between atoms: C_13  and  C_25
REMARK    6  A    between atoms: N_14  and  C_19
REMARK    7  A    between atoms: C_19  and  C_20
REMARK                            x       y       z     vdW  Elec       q    Type
REMARK                         _______ _______ _______ _____ _____    ______ ____
ROOT
ATOM      1  C   UNL     1       5.330  -1.721   1.336  0.00  0.00    +0.175 C 
ATOM      2  C   UNL     1       5.354  -2.803   2.388  0.00  0.00    +0.037 A 
ATOM      3  C   UNL     1       5.031  -4.159   2.303  0.00  0.00    +0.016 A 
ATOM      4  C   UNL     1       5.219  -4.699   3.570  0.00  0.00    +0.059 A 
ATOM      5  N   UNL     1       5.649  -3.687   4.402  0.00  0.00    -0.319 N 
ATOM      6  C   UNL     1       5.738  -2.536   3.682  0.00  0.00    +0.120 A 
ATOM      7  N   UNL     1       6.136  -1.286   4.063  0.00  0.00    -0.335 N 
ATOM      8  C   UNL     1       6.343  -0.384   3.142  0.00  0.00    +0.158 C 
ATOM      9  N   UNL     1       6.251  -0.667   1.803  0.00  0.00    -0.317 N 
ATOM     10  H   UNL     1       6.791  -0.178   1.163  0.00  0.00    +0.149 HD
ATOM     11  H   UNL     1       6.262  -1.073   5.001  0.00  0.00    +0.168 HD
ENDROOT
BRANCH   4  12
ATOM     12  C   UNL     1       4.997  -6.105   3.956  0.00  0.00    -0.001 A 
ATOM     13  C   UNL     1       3.764  -6.715   3.708  0.00  0.00    +0.010 A 
ATOM     14  C   UNL     1       3.563  -8.030   4.072  0.00  0.00    +0.001 A 
ATOM     15  C   UNL     1       4.579  -8.745   4.681  0.00  0.00    +0.000 A 
ATOM     16  C   UNL     1       5.803  -8.148   4.931  0.00  0.00    +0.001 A 
ATOM     17  C   UNL     1       6.020  -6.835   4.567  0.00  0.00    +0.010 A 
ENDBRANCH   4  12
BRANCH   3  18
ATOM     18  C   UNL     1       4.575  -4.883   1.093  0.00  0.00    -0.015 A 
ATOM     19  C   UNL     1       3.355  -4.558   0.500  0.00  0.00    +0.008 A 
ATOM     20  C   UNL     1       2.936  -5.236  -0.626  0.00  0.00    +0.001 A 
ATOM     21  C   UNL     1       3.724  -6.236  -1.168  0.00  0.00    +0.000 A 
ATOM     22  C   UNL     1       4.935  -6.563  -0.585  0.00  0.00    +0.001 A 
ATOM     23  C   UNL     1       5.367  -5.888   0.539  0.00  0.00    +0.008 A 
ENDBRANCH   3  18
BRANCH   1  24
ATOM     24  N   UNL     1       3.971  -1.180   1.200  0.00  0.00    -0.291 NA
ATOM     25  H   UNL     1       3.875  -0.312   1.706  0.00  0.00    +0.124 HD
BRANCH  24  26
ATOM     26  C   UNL     1       3.612  -1.006  -0.214  0.00  0.00    +0.118 C 
BRANCH  26  30
ATOM     27  C   UNL     1      -0.348   0.570  -0.498  0.00  0.00    +0.000 A 
ATOM     28  C   UNL     1       0.734   1.427  -0.426  0.00  0.00    +0.000 A 
ATOM     29  C   UNL     1       2.015   0.917  -0.334  0.00  0.00    +0.005 A 
ATOM     30  C   UNL     1       2.215  -0.450  -0.313  0.00  0.00    -0.034 A 
ATOM     31  C   UNL     1       1.133  -1.308  -0.384  0.00  0.00    +0.005 A 
ATOM     32  C   UNL     1      -0.148  -0.798  -0.477  0.00  0.00    +0.000 A 
ENDBRANCH  26  30
ENDBRANCH  24  26
ENDBRANCH   1  24
BRANCH   5  33
ATOM     33  C   UNL     1       5.959  -3.828   5.827  0.00  0.00    +0.198 C 
BRANCH  33  34
ATOM     34  C   UNL     1       4.720  -3.554   6.640  0.00  0.00    +0.124 A 
ATOM     35  C   UNL     1       3.856  -4.480   7.093  0.00  0.00    +0.046 A 
ATOM     36  C   UNL     1       2.848  -3.787   7.802  0.00  0.00    +0.041 A 
ATOM     37  C   UNL     1       3.156  -2.479   7.740  0.00  0.00    +0.195 A 
ATOM     38  O   UNL     1       4.294  -2.345   7.039  0.00  0.00    -0.466 OA
ENDBRANCH  33  34
ENDBRANCH   5  33
TORSDOF 7
