REMARK  Name = ZINC41491668
REMARK  5 active torsions:
REMARK  status: ('A' for Active; 'I' for Inactive)
REMARK    1  A    between atoms: C_1  and  C_2
REMARK    2  A    between atoms: C_5  and  N_9
REMARK    3  A    between atoms: C_10  and  C_12
REMARK    4  A    between atoms: N_14  and  C_15
REMARK    5  A    between atoms: C_15  and  C_16
REMARK                            x       y       z     vdW  Elec       q    Type
REMARK                         _______ _______ _______ _____ _____    ______ ____
ROOT
ATOM      1  C   UNL     1      -0.145  -6.326  -1.194  0.00  0.00    +0.300 C 
ATOM      2  O   UNL     1      -0.123  -6.937  -0.146  0.00  0.00    -0.265 OA
ATOM      3  N   UNL     1      -0.241  -6.994  -2.361  0.00  0.00    -0.303 N 
ATOM      4  H   UNL     1      -0.258  -6.507  -3.199  0.00  0.00    +0.149 HD
ENDROOT
BRANCH   1   6
ATOM      5  N   UNL     1       0.032  -4.167  -0.026  0.00  0.00    -0.275 N 
ATOM      6  C   UNL     1      -0.064  -4.835  -1.192  0.00  0.00    +0.303 C 
ATOM      7  O   UNL     1      -0.086  -4.225  -2.241  0.00  0.00    -0.265 OA
ATOM      8  H   UNL     1       0.132  -4.656   0.806  0.00  0.00    +0.155 HD
BRANCH   5  13
ATOM      9  C   UNL     1      -0.148   1.504   0.018  0.00  0.00    +0.044 C 
ATOM     10  C   UNL     1      -0.100  -0.003   0.007  0.00  0.00    -0.048 A 
ATOM     11  C   UNL     1      -0.686  -0.704  -1.030  0.00  0.00    +0.005 A 
ATOM     12  C   UNL     1      -0.644  -2.085  -1.044  0.00  0.00    +0.026 A 
ATOM     13  C   UNL     1      -0.011  -2.770  -0.015  0.00  0.00    +0.069 A 
ATOM     14  C   UNL     1       0.578  -2.062   1.028  0.00  0.00    +0.145 A 
ATOM     15  C   UNL     1       0.536  -0.679   1.032  0.00  0.00    +0.043 A 
ATOM     16  F   UNL     1       1.194  -2.723   2.031  0.00  0.00    -0.204 F 
ENDBRANCH   5  13
ENDBRANCH   1   6
BRANCH   3  17
ATOM     17  C   UNL     1      -0.320  -8.457  -2.363  0.00  0.00    +0.141 C 
BRANCH  17  18
ATOM     18  C   UNL     1      -0.421  -8.953  -3.783  0.00  0.00    -0.014 A 
ATOM     19  C   UNL     1      -1.663  -9.114  -4.383  0.00  0.00    +0.010 A 
ATOM     20  C   UNL     1      -1.711  -9.571  -5.688  0.00  0.00    +0.042 A 
ATOM     21  C   UNL     1      -0.520  -9.853  -6.350  0.00  0.00    +0.099 A 
ATOM     22  N   UNL     1       0.645  -9.687  -5.743  0.00  0.00    -0.349 N 
ATOM     23  C   UNL     1       0.721  -9.246  -4.501  0.00  0.00    +0.089 A 
ATOM     24  N   UNL     1      -0.553 -10.313  -7.661  0.00  0.00    -0.317 N 
ATOM     25  C   UNL     1      -1.827 -10.368  -8.344  0.00  0.00    +0.106 C 
ATOM     26  C   UNL     1      -2.494 -11.742  -8.091  0.00  0.00    +0.019 C 
ATOM     27  C   UNL     1      -1.778 -12.800  -8.821  0.00  0.00    +0.002 C 
ATOM     28  C   UNL     1      -0.330 -12.996  -8.382  0.00  0.00    +0.002 C 
ATOM     29  C   UNL     1       0.553 -12.020  -9.119  0.00  0.00    +0.019 C 
ATOM     30  C   UNL     1       0.713 -10.721  -8.300  0.00  0.00    +0.106 C 
ATOM     31  H   UNL     1       1.462  -9.890  -6.224  0.00  0.00    +0.167 HD
ENDBRANCH  17  18
ENDBRANCH   3  17
TORSDOF 4
