REMARK  Name = ZINC15987200
REMARK  8 active torsions:
REMARK  status: ('A' for Active; 'I' for Inactive)
REMARK    1  A    between atoms: C_1  and  C_2
REMARK    2  A    between atoms: C_5  and  N_9
REMARK    3  A    between atoms: C_6  and  C_8
REMARK    4  A    between atoms: C_25  and  C_31
REMARK    5  A    between atoms: C_31  and  C_33
REMARK    6  A    between atoms: C_33  and  C_34
REMARK    7  A    between atoms: C_33  and  C_35
REMARK    8  A    between atoms: C_33  and  C_36
REMARK                            x       y       z     vdW  Elec       q    Type
REMARK                         _______ _______ _______ _____ _____    ______ ____
ROOT
ATOM      1  N   UNL     1       2.708  -3.933   0.446  0.00  0.00    -0.210 N 
ATOM      2  C   UNL     1       1.769  -4.381  -0.401  0.00  0.00    +0.232 C 
ATOM      3  O   UNL     1       0.919  -3.703  -0.937  0.00  0.00    -0.274 OA
ATOM      4  C   UNL     1       1.948  -5.876  -0.575  0.00  0.00    +0.115 C 
ATOM      5  C   UNL     1       0.614  -6.591  -0.353  0.00  0.00    +0.117 C 
ATOM      6  C   UNL     1       0.427  -7.712  -1.342  0.00  0.00    -0.019 A 
ATOM      7  C   UNL     1       0.885  -7.601  -2.635  0.00  0.00    +0.006 A 
ATOM      8  C   UNL     1       0.707  -8.647  -3.525  0.00  0.00    +0.000 A 
ATOM      9  C   UNL     1       0.069  -9.806  -3.119  0.00  0.00    +0.001 A 
ATOM     10  C   UNL     1      -0.397  -9.929  -1.827  0.00  0.00    +0.008 A 
ATOM     11  C   UNL     1      -0.224  -8.879  -0.924  0.00  0.00    -0.019 A 
ATOM     12  C   UNL     1      -0.732  -8.996   0.459  0.00  0.00    +0.023 C 
ATOM     13  C   UNL     1      -0.274  -8.152   1.404  0.00  0.00    +0.072 C 
ATOM     14  N   UNL     1       0.637  -7.181   0.998  0.00  0.00    -0.317 N 
ATOM     15  C   UNL     1       1.782  -6.647   1.730  0.00  0.00    +0.153 C 
ATOM     16  C   UNL     1       2.834  -6.244   0.651  0.00  0.00    +0.117 C 
ATOM     17  C   UNL     1       3.440  -4.902   1.017  0.00  0.00    +0.232 C 
ATOM     18  O   UNL     1       4.420  -4.732   1.710  0.00  0.00    -0.274 OA
ENDROOT
BRANCH   1  23
ATOM     19  C   UNL     1       3.532   1.582   1.500  0.00  0.00    +0.044 C 
ATOM     20  C   UNL     1       3.314   0.118   1.220  0.00  0.00    -0.050 A 
ATOM     21  C   UNL     1       4.352  -0.654   0.731  0.00  0.00    +0.005 A 
ATOM     22  C   UNL     1       4.155  -1.996   0.474  0.00  0.00    +0.024 A 
ATOM     23  C   UNL     1       2.912  -2.571   0.707  0.00  0.00    +0.047 A 
ATOM     24  C   UNL     1       1.872  -1.794   1.197  0.00  0.00    -0.028 A 
ATOM     25  C   UNL     1       2.077  -0.453   1.457  0.00  0.00    +0.008 A 
ATOM     26  C   UNL     1       0.522  -2.414   1.450  0.00  0.00    +0.046 C 
ENDBRANCH   1  23
BRANCH  15  27
ATOM     27  C   UNL     1       1.369  -5.440   2.532  0.00  0.00    +0.160 C 
ATOM     28  O   UNL     1       1.633  -4.331   2.134  0.00  0.00    -0.295 OA
BRANCH  27  29
ATOM     29  C   UNL     1       0.626  -5.617   3.832  0.00  0.00    +0.022 C 
ATOM     30  C   UNL     1       0.833  -4.381   4.709  0.00  0.00    +0.018 C 
ATOM     31  C   UNL     1      -0.866  -5.796   3.546  0.00  0.00    +0.018 C 
ATOM     32  C   UNL     1       1.159  -6.853   4.559  0.00  0.00    +0.018 C 
ENDBRANCH  27  29
ENDBRANCH  15  27
TORSDOF 3
