REMARK  Name = ZINC13570874
REMARK  4 active torsions:
REMARK  status: ('A' for Active; 'I' for Inactive)
REMARK    1  A    between atoms: C_1  and  C_2
REMARK    2  A    between atoms: C_3  and  N_9
REMARK    3  A    between atoms: C_12  and  C_14
REMARK    4  A    between atoms: C_15  and  C_21
REMARK                            x       y       z     vdW  Elec       q    Type
REMARK                         _______ _______ _______ _____ _____    ______ ____
ROOT
ATOM      1  N   UNL     1      -0.161  -0.119  -2.481  0.00  0.00    -0.218 N 
ATOM      2  C   UNL     1      -0.347  -0.722  -3.673  0.00  0.00    +0.133 A 
ATOM      3  C   UNL     1      -0.391   0.259  -4.629  0.00  0.00    +0.023 A 
ATOM      4  C   UNL     1      -0.215   1.481  -3.998  0.00  0.00    +0.066 A 
ATOM      5  N   UNL     1      -0.081   1.264  -2.710  0.00  0.00    -0.170 NA
ATOM      6  C   UNL     1      -0.188   2.828  -4.673  0.00  0.00    +0.068 C 
ATOM      7  C   UNL     1      -0.609  -0.049  -6.089  0.00  0.00    +0.063 C 
ATOM      8  C   UNL     1      -0.058  -1.450  -6.373  0.00  0.00    +0.109 C 
ATOM      9  C   UNL     1      -0.460  -2.420  -5.298  0.00  0.00    +0.219 C 
ATOM     10  O   UNL     1      -0.758  -3.554  -5.611  0.00  0.00    -0.275 OA
ATOM     11  N   UNL     1      -0.498  -2.070  -3.995  0.00  0.00    -0.270 N 
ATOM     12  H   UNL     1      -0.626  -2.737  -3.302  0.00  0.00    +0.156 HD
ENDROOT
BRANCH   1  15
ATOM     13  C   UNL     1      -1.711   0.905  -0.325  0.00  0.00    +0.047 C 
ATOM     14  C   UNL     1      -0.809  -0.291  -0.159  0.00  0.00    -0.007 A 
ATOM     15  C   UNL     1      -0.069  -0.758  -1.236  0.00  0.00    +0.072 A 
ATOM     16  C   UNL     1       0.761  -1.860  -1.080  0.00  0.00    +0.028 A 
ATOM     17  C   UNL     1       0.849  -2.488   0.147  0.00  0.00    +0.004 A 
ATOM     18  C   UNL     1       0.112  -2.022   1.219  0.00  0.00    +0.020 A 
ATOM     19  C   UNL     1      -0.713  -0.920   1.068  0.00  0.00    +0.046 A 
ATOM     20 CL   UNL     1      -1.631  -0.332   2.419  0.00  0.00    -0.083 Cl
ENDBRANCH   1  15
BRANCH   7  21
ATOM     21  C   UNL     1      -2.082  -0.008  -6.402  0.00  0.00    -0.032 A 
ATOM     22  C   UNL     1      -2.575   0.878  -7.343  0.00  0.00    +0.012 A 
ATOM     23  C   UNL     1      -3.905   0.889  -7.601  0.00  0.00    +0.045 A 
ATOM     24  S   UNL     1      -4.507  -0.379  -6.497  0.00  0.00    -0.105 S 
ATOM     25  C   UNL     1      -2.943  -0.842  -5.771  0.00  0.00    +0.049 A 
ENDBRANCH   7  21
TORSDOF 2
