REMARK  Name = ZINC04004707
REMARK  4 active torsions:
REMARK  status: ('A' for Active; 'I' for Inactive)
REMARK    1  A    between atoms: C_1  and  C_2
REMARK    2  A    between atoms: C_2  and  C_29
REMARK    3  A    between atoms: C_6  and  C_16
REMARK    4  A    between atoms: C_21  and  C_22
REMARK                            x       y       z     vdW  Elec       q    Type
REMARK                         _______ _______ _______ _____ _____    ______ ____
ROOT
ATOM      1  C   UNL     1       2.093   3.765  -3.985  0.00  0.00    +0.011 C 
ATOM      2  C   UNL     1       2.926   5.038  -3.821  0.00  0.00    -0.023 C 
ATOM      3  C   UNL     1       4.209   4.722  -3.054  0.00  0.00    +0.058 C 
ATOM      4  C   UNL     1       3.871   4.173  -1.679  0.00  0.00    +0.017 C 
ATOM      5  C   UNL     1       2.761   4.576  -1.036  0.00  0.00    +0.036 C 
ATOM      6  C   UNL     1       2.313   4.118   0.331  0.00  0.00    +0.136 C 
ATOM      7  N   UNL     1       3.307   3.370   1.071  0.00  0.00    -0.331 N 
ATOM      8  C   UNL     1       3.756   2.130   0.620  0.00  0.00    +0.049 A 
ATOM      9  C   UNL     1       3.464   0.963   1.307  0.00  0.00    +0.025 A 
ATOM     10  C   UNL     1       3.831  -0.256   0.763  0.00  0.00    +0.002 A 
ATOM     11  C   UNL     1       4.486  -0.310  -0.454  0.00  0.00    +0.002 A 
ATOM     12  C   UNL     1       4.798   0.856  -1.132  0.00  0.00    +0.025 A 
ATOM     13  C   UNL     1       4.447   2.076  -0.581  0.00  0.00    +0.052 A 
ATOM     14  N   UNL     1       4.771   3.286  -1.183  0.00  0.00    -0.316 N 
ATOM     15  C   UNL     1       1.889   5.513  -1.640  0.00  0.00    +0.163 C 
ATOM     16  O   UNL     1       0.903   5.875  -1.029  0.00  0.00    -0.292 OA
ATOM     17  C   UNL     1       2.139   6.073  -3.008  0.00  0.00    +0.086 C 
ATOM     18  C   UNL     1       3.271   5.612  -5.197  0.00  0.00    +0.011 C 
ATOM     19  H   UNL     1       3.720   3.780   2.005  0.00  0.00    +0.147 HD
ATOM     20  H   UNL     1       5.848   3.503  -1.243  0.00  0.00    +0.152 HD
ENDROOT
BRANCH   6  21
ATOM     21  C   UNL     1       1.090   3.252   0.166  0.00  0.00    -0.011 A 
ATOM     22  C   UNL     1       0.965   2.436  -0.943  0.00  0.00    +0.006 A 
ATOM     23  C   UNL     1      -0.157   1.642  -1.094  0.00  0.00    +0.000 A 
ATOM     24  C   UNL     1      -1.155   1.668  -0.138  0.00  0.00    +0.001 A 
ATOM     25  C   UNL     1      -1.028   2.480   0.973  0.00  0.00    +0.013 A 
ATOM     26  C   UNL     1       0.094   3.274   1.124  0.00  0.00    +0.060 A 
BRANCH  26  27
ATOM     27  C   UNL     1       0.230   4.163   2.333  0.00  0.00    +0.418 C 
ATOM     28  F   UNL     1      -0.832   3.923   3.211  0.00  0.00    -0.166 F 
ATOM     29  F   UNL     1       1.441   3.889   2.979  0.00  0.00    -0.166 F 
ATOM     30  F   UNL     1       0.209   5.503   1.931  0.00  0.00    -0.166 F 
ENDBRANCH  26  27
ENDBRANCH   6  21
TORSDOF 2
