REMARK  Name = ZINC12377717
REMARK  6 active torsions:
REMARK  status: ('A' for Active; 'I' for Inactive)
REMARK    1  A    between atoms: C_4  and  N_7
REMARK    2  A    between atoms: N_9  and  C_30
REMARK    3  A    between atoms: C_12  and  C_15
REMARK    4  A    between atoms: C_15  and  C_16
REMARK    5  A    between atoms: N_18  and  C_19
REMARK    6  A    between atoms: C_20  and  C_28
REMARK                            x       y       z     vdW  Elec       q    Type
REMARK                         _______ _______ _______ _____ _____    ______ ____
ROOT
ATOM      1  N   UNL     1      -8.741  -1.059   8.280  0.00  0.00    -0.225 NA
ATOM      2  C   UNL     1      -8.692  -0.490   7.099  0.00  0.00    +0.168 C 
ATOM      3  N   UNL     1      -9.745  -0.069   6.311  0.00  0.00    -0.218 N 
ATOM      4  C   UNL     1      -9.563   0.496   5.129  0.00  0.00    +0.239 C 
ATOM      5  O   UNL     1     -10.490   0.866   4.441  0.00  0.00    -0.274 OA
ATOM      6  C   UNL     1      -8.117   0.653   4.688  0.00  0.00    +0.149 C 
ATOM      7  S   UNL     1      -7.248  -0.078   6.131  0.00  0.00    -0.076 S 
ENDROOT
BRANCH   1  11
ATOM      8  C   UNL     1      -5.237  -2.126  10.208  0.00  0.00    +0.000 A 
ATOM      9  C   UNL     1      -6.242  -1.484  10.910  0.00  0.00    +0.002 A 
ATOM     10  C   UNL     1      -7.412  -1.125  10.274  0.00  0.00    +0.028 A 
ATOM     11  C   UNL     1      -7.581  -1.412   8.918  0.00  0.00    +0.067 A 
ATOM     12  C   UNL     1      -6.566  -2.066   8.217  0.00  0.00    +0.028 A 
ATOM     13  C   UNL     1      -5.399  -2.414   8.864  0.00  0.00    +0.002 A 
ENDBRANCH   1  11
BRANCH   3  14
ATOM     14  C   UNL     1     -11.054  -0.245   6.782  0.00  0.00    +0.043 A 
ATOM     15  C   UNL     1     -11.747  -1.412   6.490  0.00  0.00    +0.024 A 
ATOM     16  C   UNL     1     -13.034  -1.585   6.959  0.00  0.00    +0.002 A 
ATOM     17  C   UNL     1     -13.637  -0.592   7.710  0.00  0.00    +0.000 A 
ATOM     18  C   UNL     1     -12.951   0.574   7.997  0.00  0.00    +0.002 A 
ATOM     19  C   UNL     1     -11.662   0.750   7.535  0.00  0.00    +0.024 A 
ENDBRANCH   3  14
BRANCH   6  20
ATOM     20  C   UNL     1      -7.838  -0.144   3.411  0.00  0.00    +0.120 C 
BRANCH  20  21
ATOM     21  C   UNL     1      -6.405   0.063   2.993  0.00  0.00    +0.219 C 
ATOM     22  O   UNL     1      -5.678   0.777   3.651  0.00  0.00    -0.275 OA
ATOM     23  N   UNL     1      -5.931  -0.545   1.888  0.00  0.00    -0.279 N 
ATOM     24  H   UNL     1      -6.590  -1.193   1.291  0.00  0.00    +0.155 HD
BRANCH  23  25
ATOM     25  C   UNL     1      -4.611  -0.355   1.503  0.00  0.00    +0.090 A 
ATOM     26  C   UNL     1      -3.946  -0.889   0.410  0.00  0.00    +0.084 A 
ATOM     27  C   UNL     1      -2.551  -0.529   0.229  0.00  0.00    -0.018 A 
ATOM     28  C   UNL     1      -2.046   0.303   1.166  0.00  0.00    -0.004 A 
ATOM     29  S   UNL     1      -3.393   0.609   2.272  0.00  0.00    -0.077 S 
ATOM     30  C   UNL     1      -0.646   0.840   1.241  0.00  0.00    +0.043 C 
ATOM     31  C   UNL     1       0.237   0.008   0.301  0.00  0.00    +0.005 C 
ATOM     32  C   UNL     1      -0.465  -0.123  -1.054  0.00  0.00    +0.005 C 
ATOM     33  C   UNL     1      -1.687  -1.034  -0.920  0.00  0.00    +0.037 C 
BRANCH  26  34
ATOM     34  C   UNL     1      -4.612  -1.764  -0.508  0.00  0.00    +0.102 C 
ATOM     35  N   UNL     1      -5.140  -2.458  -1.236  0.00  0.00    -0.191 NA
ENDBRANCH  26  34
ENDBRANCH  23  25
ENDBRANCH  20  21
ENDBRANCH   6  20
TORSDOF 6
