REMARK  Name = ZINC01085963
REMARK  4 active torsions:
REMARK  status: ('A' for Active; 'I' for Inactive)
REMARK    1  A    between atoms: C_4  and  C_7
REMARK    2  A    between atoms: C_18  and  S_20
REMARK    3  A    between atoms: S_20  and  C_21
REMARK    4  A    between atoms: C_26  and  N_27
REMARK                            x       y       z     vdW  Elec       q    Type
REMARK                         _______ _______ _______ _____ _____    ______ ____
ROOT
ATOM      1  C   UNL     1       2.476   1.080  -0.015  0.00  0.00    +0.071 C 
ATOM      2  N   UNL     1       2.482  -0.200   0.077  0.00  0.00    -0.248 NA
ATOM      3  C   UNL     1       3.577  -1.003   0.044  0.00  0.00    +0.085 A 
ATOM      4  C   UNL     1       3.473  -2.190  -0.701  0.00  0.00    +0.029 A 
ATOM      5  C   UNL     1       4.533  -3.062  -0.781  0.00  0.00    +0.002 A 
ATOM      6  C   UNL     1       5.717  -2.775  -0.123  0.00  0.00    +0.002 A 
ATOM      7  C   UNL     1       5.836  -1.614   0.610  0.00  0.00    +0.025 A 
ATOM      8  C   UNL     1       4.772  -0.715   0.702  0.00  0.00    +0.059 A 
ATOM      9  N   UNL     1       4.980   0.434   1.452  0.00  0.00    -0.283 N 
ATOM     10  C   UNL     1       4.562   1.655   1.115  0.00  0.00    +0.236 C 
ATOM     11  O   UNL     1       4.837   2.600   1.823  0.00  0.00    -0.274 OA
ATOM     12  C   UNL     1       3.751   1.871  -0.144  0.00  0.00    +0.186 C 
ATOM     13  H   UNL     1       5.467   0.343   2.287  0.00  0.00    +0.155 HD
ENDROOT
BRANCH   1  17
ATOM     14  C   UNL     1      -1.236   3.135   0.030  0.00  0.00    +0.000 A 
ATOM     15  C   UNL     1      -1.215   1.752  -0.027  0.00  0.00    +0.001 A 
ATOM     16  C   UNL     1      -0.013   1.077  -0.037  0.00  0.00    +0.010 A 
ATOM     17  C   UNL     1       1.187   1.793   0.000  0.00  0.00    -0.002 A 
ATOM     18  C   UNL     1       1.158   3.190   0.053  0.00  0.00    +0.010 A 
ATOM     19  C   UNL     1      -0.052   3.850   0.067  0.00  0.00    +0.001 A 
ENDBRANCH   1  17
BRANCH  12  20
ATOM     20  S   UNL     1       4.686   1.295  -1.587  0.00  0.00    -0.104 S 
BRANCH  20  21
ATOM     21  C   UNL     1       6.052   2.404  -1.681  0.00  0.00    +0.030 A 
ATOM     22  C   UNL     1       6.186   3.423  -0.749  0.00  0.00    +0.016 A 
ATOM     23  C   UNL     1       7.258   4.292  -0.824  0.00  0.00    +0.001 A 
ATOM     24  C   UNL     1       8.200   4.148  -1.826  0.00  0.00    +0.002 A 
ATOM     25  C   UNL     1       8.075   3.135  -2.759  0.00  0.00    +0.024 A 
ATOM     26  C   UNL     1       7.006   2.256  -2.688  0.00  0.00    +0.038 A 
BRANCH  26  27
ATOM     27  N   UNL     1       6.880   1.226  -3.628  0.00  0.00    -0.357 N 
ATOM     28  H   UNL     1       6.129   0.614  -3.580  0.00  0.00    +0.142 HD
ATOM     29  H   UNL     1       7.544   1.124  -4.328  0.00  0.00    +0.142 HD
ENDBRANCH  26  27
ENDBRANCH  20  21
ENDBRANCH  12  20
TORSDOF 4
