REMARK  Name = ZINC04184992
REMARK  5 active torsions:
REMARK  status: ('A' for Active; 'I' for Inactive)
REMARK    1  A    between atoms: C_1  and  C_2
REMARK    2  A    between atoms: C_8  and  C_21
REMARK    3  A    between atoms: N_12  and  N_13
REMARK    4  A    between atoms: C_14  and  C_16
REMARK    5  A    between atoms: C_16  and  N_47
REMARK                            x       y       z     vdW  Elec       q    Type
REMARK                         _______ _______ _______ _____ _____    ______ ____
ROOT
ATOM      1  C   UNL     1      -0.013   1.086   0.008  0.00  0.00    +0.008 C 
ATOM      2  C   UNL     1      -0.729   1.579   1.267  0.00  0.00    -0.009 C 
ATOM      3  C   UNL     1       0.010   1.073   2.511  0.00  0.00    +0.010 C 
ATOM      4  C   UNL     1      -0.577   1.768   3.740  0.00  0.00    +0.056 C 
ATOM      5  C   UNL     1      -2.076   1.643   3.749  0.00  0.00    +0.050 A 
ATOM      6  C   UNL     1      -2.800   1.311   2.623  0.00  0.00    +0.004 A 
ATOM      7  C   UNL     1      -4.184   1.225   2.724  0.00  0.00    +0.152 A 
ATOM      8  N   UNL     1      -4.765   1.457   3.888  0.00  0.00    -0.209 NA
ATOM      9  C   UNL     1      -4.041   1.770   4.952  0.00  0.00    +0.233 A 
ATOM     10  N   UNL     1      -2.723   1.863   4.888  0.00  0.00    -0.218 NA
ATOM     11  N   UNL     1      -4.678   2.006   6.158  0.00  0.00    -0.233 N 
ATOM     12  C   UNL     1      -2.155   1.032   1.294  0.00  0.00    +0.042 C 
ATOM     13  H   UNL     1      -4.158   2.236   6.944  0.00  0.00    +0.173 HD
ENDROOT
BRANCH  11  14
ATOM     14  N   UNL     1      -6.073   1.913   6.244  0.00  0.00    -0.236 N 
ATOM     15  C   UNL     1      -6.693   2.143   7.418  0.00  0.00    +0.213 C 
ATOM     16  O   UNL     1      -6.043   2.430   8.401  0.00  0.00    -0.276 OA
ATOM     17  H   UNL     1      -6.593   1.683   5.458  0.00  0.00    +0.173 HD
BRANCH  15  18
ATOM     18  C   UNL     1      -8.194   2.042   7.510  0.00  0.00    +0.020 C 
BRANCH  18  23
ATOM     19  C   UNL     1      -8.060   3.628   9.353  0.00  0.00    -0.078 C 
ATOM     20  C   UNL     1      -8.992   4.016  10.527  0.00  0.00    -0.020 C 
ATOM     21  C   UNL     1     -10.381   3.550  10.034  0.00  0.00    -0.020 C 
ATOM     22  C   UNL     1     -10.091   2.482   8.964  0.00  0.00    -0.078 C 
ATOM     23  N   UNL     1      -8.634   2.350   8.904  0.00  0.00    +0.385 N 
ATOM     24  H   UNL     1      -8.328   1.595   9.528  0.00  0.00    -0.081 HD
ENDBRANCH  18  23
ENDBRANCH  15  18
ENDBRANCH  11  14
BRANCH   7  25
ATOM     25  C   UNL     1      -5.013   0.869   1.518  0.00  0.00    +0.435 C 
ATOM     26  F   UNL     1      -6.371   0.957   1.843  0.00  0.00    -0.164 F 
ATOM     27  F   UNL     1      -4.725   1.757   0.475  0.00  0.00    -0.164 F 
ATOM     28  F   UNL     1      -4.714  -0.437   1.114  0.00  0.00    -0.164 F 
ENDBRANCH   7  25
TORSDOF 4
