REMARK  Name = ZINC43689476
REMARK  6 active torsions:
REMARK  status: ('A' for Active; 'I' for Inactive)
REMARK    1  A    between atoms: C_2  and  C_18
REMARK    2  A    between atoms: C_5  and  C_6
REMARK    3  A    between atoms: C_6  and  S_7
REMARK    4  A    between atoms: S_7  and  C_8
REMARK    5  A    between atoms: C_19  and  C_20
REMARK    6  A    between atoms: C_20  and  N_21
REMARK                            x       y       z     vdW  Elec       q    Type
REMARK                         _______ _______ _______ _____ _____    ______ ____
ROOT
ATOM      1  C   UNL     1      -0.016   1.347   0.009  0.00  0.00    +0.028 A 
ATOM      2  C   UNL     1       1.192   2.040   0.002  0.00  0.00    +0.032 A 
ATOM      3  C   UNL     1       2.356   1.319  -0.013  0.00  0.00    +0.062 A 
ATOM      4  S   UNL     1       1.751  -0.360  -0.017  0.00  0.00    -0.100 S 
ATOM      5  C   UNL     1       0.002  -0.004   0.002  0.00  0.00    +0.001 A 
ENDROOT
BRANCH   2   6
ATOM      6  C   UNL     1       1.217   3.472   0.009  0.00  0.00    -0.068 C 
ATOM      7  C   UNL     1       1.237   4.646   0.014  0.00  0.00    -0.117 C 
BRANCH   7   8
ATOM      8  C   UNL     1       1.263   6.117   0.021  0.00  0.00    +0.005 C 
BRANCH   8   9
ATOM      9  N   UNL     1       2.656   6.583   0.011  0.00  0.00    +0.385 N 
ATOM     10  H   UNL     1       2.673   7.592   0.016  0.00  0.00    -0.089 HD
ATOM     11  H   UNL     1       3.133   6.234   0.829  0.00  0.00    -0.089 HD
ATOM     12  H   UNL     1       3.118   6.243  -0.819  0.00  0.00    -0.089 HD
ENDBRANCH   8   9
ENDBRANCH   7   8
ENDBRANCH   2   6
BRANCH   5  13
ATOM     13  C   UNL     1      -1.159  -0.965   0.008  0.00  0.00    +0.119 C 
BRANCH  13  14
ATOM     14  S   UNL     1      -1.641  -1.342  -1.699  0.00  0.00    -0.081 S 
BRANCH  14  15
ATOM     15  C   UNL     1      -2.990  -2.462  -1.524  0.00  0.00    +0.192 A 
ATOM     16  N   UNL     1      -3.506  -2.897  -0.395  0.00  0.00    -0.122 NA
ATOM     17  N   UNL     1      -4.484  -3.696  -0.641  0.00  0.00    -0.134 NA
ATOM     18  C   UNL     1      -4.650  -3.813  -1.925  0.00  0.00    +0.134 A 
ATOM     19  N   UNL     1      -3.703  -3.038  -2.530  0.00  0.00    -0.306 N 
ATOM     20  C   UNL     1      -3.495  -2.882  -3.970  0.00  0.00    +0.125 C 
ATOM     21  C   UNL     1      -4.824  -3.098  -4.699  0.00  0.00    +0.022 C 
ATOM     22  C   UNL     1      -4.992  -4.578  -5.038  0.00  0.00    +0.002 C 
ATOM     23  C   UNL     1      -5.025  -5.421  -3.766  0.00  0.00    +0.008 C 
ATOM     24  C   UNL     1      -5.692  -4.634  -2.641  0.00  0.00    +0.076 C 
ENDBRANCH  14  15
ENDBRANCH  13  14
ENDBRANCH   5  13
TORSDOF 6
