REMARK  Name = ZINC43536890
REMARK  2 active torsions:
REMARK  status: ('A' for Active; 'I' for Inactive)
REMARK    1  A    between atoms: C_5  and  O_7
REMARK    2  A    between atoms: O_7  and  C_8
REMARK                            x       y       z     vdW  Elec       q    Type
REMARK                         _______ _______ _______ _____ _____    ______ ____
ROOT
ATOM      1  O   UNL     1       1.181  -2.006  -0.020  0.00  0.00    -0.435 OA
ENDROOT
BRANCH   1   2
ATOM      2  C   UNL     1       0.043  -2.748   0.021  0.00  0.00    +0.133 A 
ATOM      3  C   UNL     1      -1.196  -2.123  -0.007  0.00  0.00    +0.066 A 
ATOM      4  C   UNL     1      -2.352  -2.880   0.034  0.00  0.00    +0.046 A 
ATOM      5  C   UNL     1      -2.275  -4.260   0.103  0.00  0.00    +0.040 A 
ATOM      6  C   UNL     1      -1.041  -4.885   0.131  0.00  0.00    +0.046 A 
ATOM      7  C   UNL     1       0.118  -4.132   0.084  0.00  0.00    +0.066 A 
ATOM      8 CL   UNL     1      -0.948  -6.616   0.218  0.00  0.00    -0.083 Cl
ATOM      9 CL   UNL     1      -3.902  -2.098  -0.000  0.00  0.00    -0.083 Cl
ENDBRANCH   1   2
BRANCH   1  14
ATOM     10  C   UNL     1       1.186  -0.800   3.301  0.00  0.00    +0.134 A 
ATOM     11  C   UNL     1       2.387  -0.118   3.335  0.00  0.00    +0.132 A 
ATOM     12  N   UNL     1       3.158  -0.077   2.261  0.00  0.00    -0.237 NA
ATOM     13  C   UNL     1       2.781  -0.689   1.153  0.00  0.00    +0.191 A 
ATOM     14  C   UNL     1       1.571  -1.377   1.117  0.00  0.00    +0.258 A 
ATOM     15  N   UNL     1       0.802  -1.415   2.195  0.00  0.00    -0.217 NA
ATOM     16 CL   UNL     1       3.793  -0.635  -0.257  0.00  0.00    -0.057 Cl
ENDBRANCH   1  14
TORSDOF 2
