REMARK  Name = ZINC15658584
REMARK  5 active torsions:
REMARK  status: ('A' for Active; 'I' for Inactive)
REMARK    1  A    between atoms: C_1  and  C_2
REMARK    2  A    between atoms: C_5  and  C_29
REMARK    3  A    between atoms: C_16  and  C_24
REMARK    4  A    between atoms: C_21  and  O_23
REMARK    5  A    between atoms: N_27  and  N_28
REMARK                            x       y       z     vdW  Elec       q    Type
REMARK                         _______ _______ _______ _____ _____    ______ ____
ROOT
ATOM      1  C   UNL     1       3.658   1.456  -0.536  0.00  0.00    +0.014 C 
ATOM      2  C   UNL     1       2.279   0.793  -0.489  0.00  0.00    +0.032 C 
ATOM      3  C   UNL     1       2.269  -0.307   0.567  0.00  0.00    +0.016 C 
ATOM      4  C   UNL     1       0.854  -0.749   0.938  0.00  0.00    -0.025 C 
ATOM      5  C   UNL     1      -0.206  -0.178   0.013  0.00  0.00    +0.001 C 
ATOM      6  C   UNL     1      -1.604  -0.642   0.438  0.00  0.00    +0.005 C 
ATOM      7  C   UNL     1      -1.869  -0.181   1.878  0.00  0.00    +0.004 C 
ATOM      8  C   UNL     1      -0.852  -0.825   2.804  0.00  0.00    -0.004 C 
ATOM      9  C   UNL     1       0.581  -0.454   2.405  0.00  0.00    -0.001 C 
ATOM     10  C   UNL     1       0.930   0.974   2.796  0.00  0.00    +0.005 C 
ATOM     11  C   UNL     1       0.766   1.180   4.314  0.00  0.00    +0.010 C 
ATOM     12  C   UNL     1      -0.669   0.893   4.684  0.00  0.00    -0.003 C 
ATOM     13  C   UNL     1      -1.043  -0.539   4.262  0.00  0.00    +0.001 C 
ATOM     14  C   UNL     1      -2.440  -0.692   4.872  0.00  0.00    +0.007 C 
ATOM     15  C   UNL     1      -2.268  -0.028   6.269  0.00  0.00    +0.032 C 
ATOM     16  C   UNL     1      -0.973   0.824   6.194  0.00  0.00    +0.121 C 
ATOM     17  C   UNL     1      -1.594   1.960   4.102  0.00  0.00    +0.014 C 
ATOM     18  C   UNL     1      -0.194   1.351  -0.031  0.00  0.00    +0.056 C 
ATOM     19  C   UNL     1       1.237   1.825  -0.116  0.00  0.00    +0.039 C 
ATOM     20  N   UNL     1       1.556   3.039   0.120  0.00  0.00    -0.199 NA
ATOM     21  C   UNL     1       0.845  -2.290   0.766  0.00  0.00    +0.012 C 
ENDROOT
BRANCH  20  22
ATOM     22  N   UNL     1       0.566   3.968   0.466  0.00  0.00    -0.283 N 
ATOM     23  H   UNL     1      -0.361   3.689   0.527  0.00  0.00    +0.164 HD
ATOM     24  H   UNL     1       0.807   4.891   0.645  0.00  0.00    +0.164 HD
ENDBRANCH  20  22
BRANCH  16  25
ATOM     25  O   UNL     1       0.095   0.175   6.880  0.00  0.00    -0.391 OA
ATOM     26  H   UNL     1      -0.069   0.039   7.823  0.00  0.00    +0.210 HD
ENDBRANCH  16  25
TORSDOF 2
