REMARK  Name = ZINC45830817
REMARK  9 active torsions:
REMARK  status: ('A' for Active; 'I' for Inactive)
REMARK    1  A    between atoms: C_1  and  C_2
REMARK    2  A    between atoms: C_2  and  C_4
REMARK    3  A    between atoms: C_2  and  N_14
REMARK    4  A    between atoms: C_15  and  C_17
REMARK    5  A    between atoms: C_17  and  C_19
REMARK    6  A    between atoms: C_17  and  S_20
REMARK    7  A    between atoms: S_20  and  C_21
REMARK    8  A    between atoms: C_24  and  N_27
REMARK    9  A    between atoms: C_28  and  C_30
REMARK                            x       y       z     vdW  Elec       q    Type
REMARK                         _______ _______ _______ _____ _____    ______ ____
ROOT
ATOM      1  N   UNL     1       0.539  -0.143  -1.048  0.00  0.00    -0.308 N 
ATOM      2  C   UNL     1      -0.002  -0.566  -2.208  0.00  0.00    +0.227 C 
ATOM      3  O   UNL     1      -1.161  -0.316  -2.463  0.00  0.00    -0.275 OA
ATOM      4  H   UNL     1       1.466  -0.343  -0.845  0.00  0.00    +0.149 HD
ENDROOT
BRANCH   1   6
ATOM      5  C   UNL     1      -0.231   2.103  -0.463  0.00  0.00    +0.033 C 
ATOM      6  C   UNL     1      -0.273   0.619  -0.096  0.00  0.00    +0.101 C 
BRANCH   6   7
ATOM      7  C   UNL     1       0.275   0.429   1.295  0.00  0.00    -0.020 A 
ATOM      8  C   UNL     1       1.598   0.165   1.479  0.00  0.00    +0.006 A 
ATOM      9  C   UNL     1       2.123  -0.013   2.757  0.00  0.00    +0.001 A 
ATOM     10  C   UNL     1       1.328   0.072   3.860  0.00  0.00    +0.008 A 
ATOM     11  C   UNL     1      -0.042   0.344   3.709  0.00  0.00    -0.018 A 
ATOM     12  C   UNL     1      -0.575   0.531   2.409  0.00  0.00    -0.013 A 
ATOM     13  C   UNL     1      -1.944   0.809   2.259  0.00  0.00    +0.009 A 
ATOM     14  C   UNL     1      -2.737   0.900   3.361  0.00  0.00    +0.001 A 
ATOM     15  C   UNL     1      -2.212   0.723   4.640  0.00  0.00    +0.001 A 
ATOM     16  C   UNL     1      -0.894   0.439   4.823  0.00  0.00    +0.008 A 
ENDBRANCH   6   7
ENDBRANCH   1   6
BRANCH   2  17
ATOM     17  C   UNL     1       0.833  -1.349  -3.188  0.00  0.00    +0.134 C 
ATOM     18  C   UNL     1       1.710  -0.388  -3.992  0.00  0.00    +0.029 C 
BRANCH  17  19
ATOM     19  S   UNL     1      -0.256  -2.262  -4.316  0.00  0.00    -0.113 S 
BRANCH  19  20
ATOM     20  C   UNL     1      -1.018  -3.472  -3.287  0.00  0.00    +0.009 A 
ATOM     21  C   UNL     1      -0.684  -3.549  -1.940  0.00  0.00    +0.016 A 
ATOM     22  C   UNL     1      -1.281  -4.497  -1.134  0.00  0.00    +0.024 A 
ATOM     23  C   UNL     1      -2.217  -5.373  -1.669  0.00  0.00    +0.033 A 
ATOM     24  C   UNL     1      -2.551  -5.296  -3.014  0.00  0.00    +0.024 A 
ATOM     25  C   UNL     1      -1.959  -4.345  -3.820  0.00  0.00    +0.016 A 
BRANCH  23  26
ATOM     26  N   UNL     1      -2.823  -6.336  -0.850  0.00  0.00    -0.286 N 
ATOM     27  C   UNL     1      -3.078  -6.056   0.444  0.00  0.00    +0.214 C 
ATOM     28  O   UNL     1      -2.872  -4.942   0.875  0.00  0.00    -0.276 OA
ATOM     29  C   UNL     1      -3.620  -7.128   1.353  0.00  0.00    +0.109 C 
ATOM     30  H   UNL     1      -3.058  -7.204  -1.214  0.00  0.00    +0.155 HD
ENDBRANCH  23  26
ENDBRANCH  19  20
ENDBRANCH  17  19
ENDBRANCH   2  17
TORSDOF 6
