REMARK  Name = ZINC38556048
REMARK  12 active torsions:
REMARK  status: ('A' for Active; 'I' for Inactive)
REMARK    1  A    between atoms: C_1  and  O_2
REMARK    2  A    between atoms: O_2  and  C_3
REMARK    3  A    between atoms: C_9  and  C_31
REMARK    4  A    between atoms: C_11  and  N_13
REMARK    5  A    between atoms: C_14  and  C_16
REMARK    6  A    between atoms: C_16  and  N_17
REMARK    7  A    between atoms: C_22  and  O_29
REMARK    8  A    between atoms: C_23  and  O_27
REMARK    9  A    between atoms: O_27  and  C_28
REMARK   10  A    between atoms: O_29  and  C_30
REMARK   11  A    between atoms: C_31  and  O_33
REMARK   12  A    between atoms: O_33  and  C_34
REMARK                            x       y       z     vdW  Elec       q    Type
REMARK                         _______ _______ _______ _____ _____    ______ ____
ROOT
ATOM      1  N   UNL     1       0.248  -3.898  -0.711  0.00  0.00    -0.288 N 
ATOM      2  C   UNL     1      -0.178  -2.997  -1.618  0.00  0.00    +0.200 C 
ATOM      3  O   UNL     1      -0.088  -1.811  -1.383  0.00  0.00    -0.278 OA
ATOM      4  H   UNL     1       0.248  -4.843  -0.930  0.00  0.00    +0.155 HD
ENDROOT
BRANCH   1  12
ATOM      5  C   UNL     1       0.999  -5.723   1.802  0.00  0.00    +0.131 A 
ATOM      6  C   UNL     1       1.381  -6.218   3.016  0.00  0.00    +0.046 A 
ATOM      7  C   UNL     1       1.769  -5.375   4.054  0.00  0.00    +0.006 A 
ATOM      8  C   UNL     1       1.794  -4.026   3.931  0.00  0.00    +0.026 A 
ATOM      9  C   UNL     1       1.417  -3.408   2.714  0.00  0.00    +0.048 A 
ATOM     10  N   UNL     1       1.359  -2.140   2.357  0.00  0.00    -0.367 N 
ATOM     11  C   UNL     1       0.898  -2.055   0.967  0.00  0.00    +0.234 C 
ATOM     12  C   UNL     1       0.678  -3.482   0.513  0.00  0.00    +0.056 C 
ATOM     13  C   UNL     1       1.006  -4.274   1.594  0.00  0.00    +0.059 A 
ATOM     14  H   UNL     1       1.584  -1.385   2.922  0.00  0.00    +0.161 HD
BRANCH   5  16
ATOM     15  C   UNL     1       0.646  -7.961   1.089  0.00  0.00    +0.277 C 
ATOM     16  O   UNL     1       0.625  -6.561   0.803  0.00  0.00    -0.494 OA
ENDBRANCH   5  16
BRANCH  11  17
ATOM     17  C   UNL     1       1.948  -1.394   0.112  0.00  0.00    +0.335 C 
ATOM     18  O   UNL     1       3.115  -1.662   0.272  0.00  0.00    -0.248 OA
BRANCH  17  19
ATOM     19  O   UNL     1       1.586  -0.506  -0.829  0.00  0.00    -0.466 OA
ATOM     20  C   UNL     1       2.633   0.082  -1.602  0.00  0.00    +0.280 C 
ENDBRANCH  17  19
ENDBRANCH  11  17
ENDBRANCH   1  12
BRANCH   2  21
ATOM     21  C   UNL     1      -0.766  -3.463  -2.925  0.00  0.00    +0.019 C 
BRANCH  21  22
ATOM     22  N   UNL     1      -1.150  -2.297  -3.733  0.00  0.00    +0.388 N 
ATOM     23  C   UNL     1      -1.822  -2.749  -4.961  0.00  0.00    -0.073 C 
ATOM     24  C   UNL     1      -2.480  -1.542  -5.629  0.00  0.00    +0.017 C 
ATOM     25  C   UNL     1      -1.476  -0.425  -5.769  0.00  0.00    -0.044 A 
ATOM     26  C   UNL     1      -1.758   0.614  -6.643  0.00  0.00    +0.053 A 
ATOM     27  C   UNL     1      -0.864   1.658  -6.798  0.00  0.00    +0.162 A 
ATOM     28  C   UNL     1       0.323   1.663  -6.070  0.00  0.00    +0.162 A 
ATOM     29  C   UNL     1       0.599   0.624  -5.200  0.00  0.00    +0.051 A 
ATOM     30  C   UNL     1      -0.300  -0.423  -5.049  0.00  0.00    -0.057 A 
ATOM     31  C   UNL     1       0.048  -1.536  -4.097  0.00  0.00    -0.042 C 
ATOM     32  H   UNL     1      -1.775  -1.710  -3.201  0.00  0.00    -0.081 HD
BRANCH  28  33
ATOM     33  O   UNL     1       1.207   2.686  -6.214  0.00  0.00    -0.491 OA
ATOM     34  C   UNL     1       2.404   2.624  -5.435  0.00  0.00    +0.277 C 
ENDBRANCH  28  33
BRANCH  27  35
ATOM     35  O   UNL     1      -1.143   2.675  -7.657  0.00  0.00    -0.491 OA
ATOM     36  C   UNL     1      -2.380   2.601  -8.369  0.00  0.00    +0.277 C 
ENDBRANCH  27  35
ENDBRANCH  21  22
ENDBRANCH   2  21
TORSDOF 8
