REMARK  Name = ZINC42866344
REMARK  10 active torsions:
REMARK  status: ('A' for Active; 'I' for Inactive)
REMARK    1  A    between atoms: C_1  and  C_2
REMARK    2  A    between atoms: C_8  and  N_10
REMARK    3  A    between atoms: C_11  and  C_13
REMARK    4  A    between atoms: C_13  and  C_15
REMARK    5  A    between atoms: C_13  and  S_18
REMARK    6  A    between atoms: C_15  and  C_16
REMARK    7  A    between atoms: C_15  and  C_17
REMARK    8  A    between atoms: S_18  and  C_19
REMARK    9  A    between atoms: C_22  and  C_25
REMARK   10  A    between atoms: N_23  and  N_24
REMARK                            x       y       z     vdW  Elec       q    Type
REMARK                         _______ _______ _______ _____ _____    ______ ____
ROOT
ATOM      1  C   UNL     1       0.007   0.567   4.894  0.00  0.00    +0.143 C 
ENDROOT
BRANCH   1   3
ATOM      2  N   UNL     1       0.055   0.167   2.453  0.00  0.00    -0.311 N 
ATOM      3  C   UNL     1       0.727   0.202   3.621  0.00  0.00    +0.227 C 
ATOM      4  O   UNL     1       1.911  -0.059   3.648  0.00  0.00    -0.275 OA
ATOM      5  H   UNL     1      -0.892   0.376   2.432  0.00  0.00    +0.149 HD
BRANCH   2  12
ATOM      6  C   UNL     1      -0.022   1.942   0.166  0.00  0.00    +0.009 C 
ATOM      7  C   UNL     1       0.017   0.420   0.021  0.00  0.00    +0.006 C 
ATOM      8  C   UNL     1       0.748   0.050  -1.271  0.00  0.00    +0.005 C 
ATOM      9  C   UNL     1       0.788  -1.473  -1.417  0.00  0.00    +0.000 C 
ATOM     10  C   UNL     1       1.525  -2.080  -0.222  0.00  0.00    +0.002 C 
ATOM     11  C   UNL     1       0.794  -1.710   1.071  0.00  0.00    +0.022 C 
ATOM     12  C   UNL     1       0.755  -0.188   1.216  0.00  0.00    +0.076 C 
ENDBRANCH   2  12
ENDBRANCH   1   3
BRANCH   1  13
ATOM     13  C   UNL     1      -0.655  -0.682   5.481  0.00  0.00    +0.005 C 
ATOM     14  C   UNL     1      -1.402  -0.308   6.763  0.00  0.00    +0.009 C 
ATOM     15  C   UNL     1      -1.642  -1.261   4.466  0.00  0.00    +0.009 C 
ENDBRANCH   1  13
BRANCH   1  16
ATOM     16  S   UNL     1       1.194   1.240   6.088  0.00  0.00    -0.071 S 
BRANCH  16  17
ATOM     17  C   UNL     1       1.694   2.772   5.375  0.00  0.00    +0.209 A 
ATOM     18  N   UNL     1       1.339   3.236   4.199  0.00  0.00    -0.121 NA
ATOM     19  N   UNL     1       1.885   4.381   3.991  0.00  0.00    -0.126 NA
ATOM     20  C   UNL     1       2.625   4.719   5.024  0.00  0.00    +0.188 A 
ATOM     21  N   UNL     1       2.520   3.700   5.945  0.00  0.00    -0.223 N 
BRANCH  20  22
ATOM     22  C   UNL     1       3.410   5.955   5.171  0.00  0.00    +0.058 A 
ATOM     23  C   UNL     1       3.336   7.117   4.447  0.00  0.00    +0.019 A 
ATOM     24  C   UNL     1       4.184   8.153   4.771  0.00  0.00    +0.008 A 
ATOM     25  C   UNL     1       5.063   7.994   5.794  0.00  0.00    +0.046 A 
ATOM     26  S   UNL     1       4.702   6.334   6.343  0.00  0.00    -0.093 S 
ENDBRANCH  20  22
BRANCH  21  27
ATOM     27  N   UNL     1       3.119   3.631   7.171  0.00  0.00    -0.295 N 
ATOM     28  H   UNL     1       4.023   3.188   7.107  0.00  0.00    +0.163 HD
ATOM     29  H   UNL     1       3.193   4.546   7.590  0.00  0.00    +0.163 HD
ENDBRANCH  21  27
ENDBRANCH  16  17
ENDBRANCH   1  16
TORSDOF 7
