REMARK  Name = ZINC32820351
REMARK  9 active torsions:
REMARK  status: ('A' for Active; 'I' for Inactive)
REMARK    1  A    between atoms: C_1  and  C_2
REMARK    2  A    between atoms: C_8  and  C_14
REMARK    3  A    between atoms: C_11  and  C_13
REMARK    4  A    between atoms: N_16  and  C_17
REMARK    5  A    between atoms: C_17  and  C_19
REMARK    6  A    between atoms: C_17  and  C_24
REMARK    7  A    between atoms: C_19  and  C_20
REMARK    8  A    between atoms: C_20  and  O_22
REMARK    9  A    between atoms: O_22  and  C_23
REMARK                            x       y       z     vdW  Elec       q    Type
REMARK                         _______ _______ _______ _____ _____    ______ ____
ROOT
ATOM      1  C   UNL     1      -0.759   0.414  -2.119  0.00  0.00    +0.248 C 
ATOM      2  O   UNL     1      -0.138  -0.613  -1.925  0.00  0.00    -0.270 OA
ATOM      3  N   UNL     1      -0.837   1.348  -1.151  0.00  0.00    -0.304 N 
ATOM      4  H   UNL     1      -1.331   2.310  -1.353  0.00  0.00    +0.150 HD
ENDROOT
BRANCH   1  11
ATOM      5  C   UNL     1      -2.925  -2.206  -6.611  0.00  0.00    +0.016 C 
ATOM      6  C   UNL     1      -1.702  -1.289  -6.531  0.00  0.00    +0.060 C 
ATOM      7  C   UNL     1      -1.979  -0.093  -5.639  0.00  0.00    +0.001 A 
ATOM      8  C   UNL     1      -2.685   1.071  -5.848  0.00  0.00    +0.007 A 
ATOM      9  C   UNL     1      -2.767   2.028  -4.849  0.00  0.00    +0.001 A 
ATOM     10  C   UNL     1      -2.141   1.816  -3.639  0.00  0.00    +0.017 A 
ATOM     11  C   UNL     1      -1.428   0.638  -3.415  0.00  0.00    +0.079 A 
ATOM     12  C   UNL     1      -1.342  -0.333  -4.429  0.00  0.00    +0.137 A 
ATOM     13  O   UNL     1      -0.721  -1.541  -4.429  0.00  0.00    -0.487 OA
ATOM     14  C   UNL     1      -0.528  -1.975  -5.787  0.00  0.00    +0.178 C 
ATOM     15  C   UNL     1       0.824  -1.497  -6.321  0.00  0.00    +0.052 C 
ENDBRANCH   1  11
BRANCH   3  16
ATOM     16  C   UNL     1      -0.265   1.081   0.172  0.00  0.00    +0.114 C 
BRANCH  16  17
ATOM     17  C   UNL     1      -1.034   1.849   1.216  0.00  0.00    -0.027 A 
ATOM     18  C   UNL     1      -1.449   3.143   0.957  0.00  0.00    +0.007 A 
ATOM     19  C   UNL     1      -2.159   3.845   1.912  0.00  0.00    +0.020 A 
ATOM     20  C   UNL     1      -2.445   3.259   3.131  0.00  0.00    +0.041 A 
ATOM     21  C   UNL     1      -2.025   1.966   3.392  0.00  0.00    +0.020 A 
ATOM     22  C   UNL     1      -1.320   1.262   2.434  0.00  0.00    +0.007 A 
ATOM     23 CL   UNL     1      -3.331   4.143   4.334  0.00  0.00    -0.084 Cl
ENDBRANCH  16  17
BRANCH  16  24
ATOM     24  C   UNL     1       1.200   1.521   0.191  0.00  0.00    +0.147 C 
BRANCH  24  25
ATOM     25  C   UNL     1       1.834   1.097   1.491  0.00  0.00    +0.309 C 
ATOM     26  O   UNL     1       1.219   0.403   2.265  0.00  0.00    -0.251 OA
BRANCH  25  27
ATOM     27  O   UNL     1       3.082   1.492   1.790  0.00  0.00    -0.468 OA
ATOM     28  C   UNL     1       3.628   1.047   3.059  0.00  0.00    +0.280 C 
ENDBRANCH  25  27
ENDBRANCH  24  25
ENDBRANCH  16  24
ENDBRANCH   3  16
TORSDOF 6
