REMARK  Name = ZINC63255017
REMARK  6 active torsions:
REMARK  status: ('A' for Active; 'I' for Inactive)
REMARK    1  A    between atoms: C_1  and  C_2
REMARK    2  A    between atoms: N_4  and  C_14
REMARK    3  A    between atoms: C_6  and  C_8
REMARK    4  A    between atoms: C_16  and  N_24
REMARK    5  A    between atoms: C_18  and  S_20
REMARK    6  A    between atoms: S_20  and  N_23
REMARK                            x       y       z     vdW  Elec       q    Type
REMARK                         _______ _______ _______ _____ _____    ______ ____
ROOT
ATOM      1  C   UNL     1       0.514  -2.804  -2.191  0.00  0.00    +0.034 A 
ATOM      2  C   UNL     1      -0.127  -2.287  -3.310  0.00  0.00    +0.056 A 
ATOM      3  C   UNL     1      -0.503  -3.127  -4.338  0.00  0.00    +0.130 A 
ATOM      4  C   UNL     1      -0.243  -4.483  -4.256  0.00  0.00    +0.061 A 
ATOM      5  C   UNL     1       0.395  -5.002  -3.144  0.00  0.00    +0.109 A 
ATOM      6  C   UNL     1       0.779  -4.166  -2.114  0.00  0.00    +0.051 A 
ENDROOT
BRANCH   1  10
ATOM      7  C   UNL     1       0.004   1.537  -0.007  0.00  0.00    +0.039 C 
ATOM      8  C   UNL     1       0.011   0.007  -0.011  0.00  0.00    +0.133 C 
ATOM      9  C   UNL     1       0.739  -0.498  -1.262  0.00  0.00    +0.136 C 
ATOM     10  N   UNL     1       0.897  -1.957  -1.149  0.00  0.00    -0.325 N 
ATOM     11  C   UNL     1       1.469  -2.497   0.095  0.00  0.00    +0.141 C 
ATOM     12  C   UNL     1       0.706  -1.893   1.280  0.00  0.00    +0.166 C 
ATOM     13  O   UNL     1       0.690  -0.469   1.154  0.00  0.00    -0.366 OA
BRANCH  12  14
ATOM     14  C   UNL     1       1.390  -2.277   2.567  0.00  0.00    -0.017 A 
ATOM     15  C   UNL     1       2.446  -1.521   3.040  0.00  0.00    +0.006 A 
ATOM     16  C   UNL     1       3.073  -1.873   4.221  0.00  0.00    +0.000 A 
ATOM     17  C   UNL     1       2.644  -2.981   4.928  0.00  0.00    +0.000 A 
ATOM     18  C   UNL     1       1.587  -3.736   4.455  0.00  0.00    +0.000 A 
ATOM     19  C   UNL     1       0.957  -3.382   3.276  0.00  0.00    +0.006 A 
ENDBRANCH  12  14
ENDBRANCH   1  10
BRANCH   5  20
ATOM     20  S   UNL     1       0.723  -6.730  -3.044  0.00  0.00    +0.056 S 
ATOM     21  O   UNL     1       0.840  -7.042  -1.663  0.00  0.00    -0.153 OA
ATOM     22  O   UNL     1      -0.218  -7.372  -3.894  0.00  0.00    -0.153 OA
BRANCH  20  23
ATOM     23  N   UNL     1       2.216  -6.984  -3.715  0.00  0.00    -0.204 NA
ATOM     24  H   UNL     1       2.724  -6.236  -4.066  0.00  0.00    +0.144 HD
ATOM     25  H   UNL     1       2.583  -7.881  -3.756  0.00  0.00    +0.144 HD
ENDBRANCH  20  23
ENDBRANCH   5  20
BRANCH   3  26
ATOM     26  N   UNL     1      -1.187  -2.577  -5.530  0.00  0.00    +0.057 N 
ATOM     27  O   UNL     1      -1.415  -1.392  -5.603  0.00  0.00    -0.126 OA
ATOM     28  O   UNL     1      -1.516  -3.312  -6.432  0.00  0.00    -0.126 OA
ENDBRANCH   3  26
TORSDOF 5
