REMARK  Name = ZINC24075479
REMARK  10 active torsions:
REMARK  status: ('A' for Active; 'I' for Inactive)
REMARK    1  A    between atoms: C_1  and  O_2
REMARK    2  A    between atoms: O_2  and  C_3
REMARK    3  A    between atoms: C_6  and  N_11
REMARK    4  A    between atoms: C_8  and  O_9
REMARK    5  A    between atoms: O_9  and  C_10
REMARK    6  A    between atoms: C_21  and  N_22
REMARK    7  A    between atoms: N_22  and  C_23
REMARK    8  A    between atoms: C_23  and  C_24
REMARK    9  A    between atoms: C_24  and  C_26
REMARK   10  A    between atoms: C_24  and  N_31
REMARK                            x       y       z     vdW  Elec       q    Type
REMARK                         _______ _______ _______ _____ _____    ______ ____
ROOT
ATOM      1  N   UNL     1       2.664  -2.318   4.076  0.00  0.00    -0.202 N 
ATOM      2  C   UNL     1       2.800  -3.650   3.979  0.00  0.00    +0.258 C 
ATOM      3  O   UNL     1       2.267  -4.240   3.058  0.00  0.00    -0.269 OA
ATOM      4  C   UNL     1       3.581  -4.407   4.965  0.00  0.00    +0.046 A 
ATOM      5  C   UNL     1       3.727  -5.792   4.870  0.00  0.00    +0.014 A 
ATOM      6  C   UNL     1       4.469  -6.466   5.815  0.00  0.00    +0.001 A 
ATOM      7  C   UNL     1       5.072  -5.784   6.862  0.00  0.00    +0.001 A 
ATOM      8  C   UNL     1       4.940  -4.415   6.975  0.00  0.00    +0.009 A 
ATOM      9  C   UNL     1       4.197  -3.717   6.030  0.00  0.00    +0.000 A 
ATOM     10  C   UNL     1       4.024  -2.251   6.104  0.00  0.00    +0.059 C 
ATOM     11  C   UNL     1       4.600  -1.520   7.119  0.00  0.00    +0.081 C 
ATOM     12  C   UNL     1       3.227  -1.597   5.060  0.00  0.00    +0.259 C 
ATOM     13  O   UNL     1       3.070  -0.390   5.089  0.00  0.00    -0.269 OA
ENDROOT
BRANCH   1  17
ATOM     14  C   UNL     1       0.414  -0.323   1.182  0.00  0.00    +0.162 A 
ATOM     15  C   UNL     1       1.748   0.001   1.369  0.00  0.00    +0.051 A 
ATOM     16  C   UNL     1       2.493  -0.659   2.327  0.00  0.00    +0.028 A 
ATOM     17  C   UNL     1       1.906  -1.648   3.105  0.00  0.00    +0.048 A 
ATOM     18  C   UNL     1       0.570  -1.975   2.921  0.00  0.00    +0.073 A 
ATOM     19  C   UNL     1      -0.178  -1.310   1.964  0.00  0.00    +0.163 A 
BRANCH  14  21
ATOM     20  C   UNL     1       0.354   1.330  -0.528  0.00  0.00    +0.277 C 
ATOM     21  O   UNL     1      -0.319   0.328   0.238  0.00  0.00    -0.491 OA
ENDBRANCH  14  21
BRANCH  19  22
ATOM     22  O   UNL     1      -1.489  -1.625   1.784  0.00  0.00    -0.491 OA
ATOM     23  C   UNL     1      -2.031  -2.648   2.622  0.00  0.00    +0.277 C 
ENDBRANCH  19  22
ENDBRANCH   1  17
BRANCH  11  24
ATOM     24  N   UNL     1       5.737  -1.963   7.716  0.00  0.00    -0.350 N 
ATOM     25  H   UNL     1       6.196  -2.743   7.366  0.00  0.00    +0.145 HD
BRANCH  24  26
ATOM     26  C   UNL     1       6.271  -1.264   8.887  0.00  0.00    +0.093 C 
BRANCH  26  27
ATOM     27  C   UNL     1       7.477  -2.030   9.433  0.00  0.00    +0.016 C 
BRANCH  27  28
ATOM     28  N   UNL     1       7.961  -1.375  10.656  0.00  0.00    +0.387 N 
ATOM     29  C   UNL     1       6.960  -1.519  11.744  0.00  0.00    -0.078 C 
ATOM     30  C   UNL     1       7.802  -1.315  13.029  0.00  0.00    -0.020 C 
ATOM     31  C   UNL     1       9.136  -2.013  12.682  0.00  0.00    -0.020 C 
ATOM     32  C   UNL     1       9.185  -2.046  11.143  0.00  0.00    -0.078 C 
ATOM     33  H   UNL     1       8.146  -0.400  10.478  0.00  0.00    -0.081 HD
ENDBRANCH  27  28
BRANCH  27  34
ATOM     34  C   UNL     1       8.575  -2.041   8.401  0.00  0.00    +0.093 A 
ATOM     35  C   UNL     1       8.860  -3.057   7.567  0.00  0.00    +0.043 A 
ATOM     36  C   UNL     1       9.956  -2.642   6.775  0.00  0.00    +0.041 A 
ATOM     37  C   UNL     1      10.274  -1.397   7.173  0.00  0.00    +0.195 A 
ATOM     38  O   UNL     1       9.431  -1.036   8.154  0.00  0.00    -0.469 OA
ENDBRANCH  27  34
ENDBRANCH  26  27
ENDBRANCH  24  26
ENDBRANCH  11  24
TORSDOF 8
