REMARK  Name = ZINC21186980
REMARK  8 active torsions:
REMARK  status: ('A' for Active; 'I' for Inactive)
REMARK    1  A    between atoms: C_1  and  C_2
REMARK    2  A    between atoms: C_3  and  C_21
REMARK    3  A    between atoms: C_4  and  C_11
REMARK    4  A    between atoms: N_9  and  C_10
REMARK    5  A    between atoms: C_16  and  O_17
REMARK    6  A    between atoms: O_17  and  C_18
REMARK    7  A    between atoms: N_23  and  C_24
REMARK    8  A    between atoms: C_27  and  N_30
REMARK                            x       y       z     vdW  Elec       q    Type
REMARK                         _______ _______ _______ _____ _____    ______ ____
ROOT
ATOM      1  C   UNL     1      -0.911   1.671   1.554  0.00  0.00    +0.061 C 
ATOM      2  C   UNL     1      -0.495   0.269   1.188  0.00  0.00    +0.019 C 
ATOM      3  C   UNL     1      -1.423  -0.604   0.742  0.00  0.00    +0.056 C 
ATOM      4  C   UNL     1      -0.963  -2.002   0.386  0.00  0.00    +0.143 C 
ATOM      5  N   UNL     1       0.470  -2.297   0.557  0.00  0.00    -0.315 N 
ATOM      6  C   UNL     1       1.276  -1.318   1.014  0.00  0.00    +0.137 C 
ATOM      7  S   UNL     1       2.944  -1.646   1.217  0.00  0.00    -0.018 S 
ATOM      8  N   UNL     1       0.815  -0.096   1.309  0.00  0.00    -0.289 N 
ATOM      9  C   UNL     1       1.770   0.904   1.794  0.00  0.00    +0.137 C 
ATOM     10  H   UNL     1       0.825  -3.175   0.345  0.00  0.00    +0.149 HD
ENDROOT
BRANCH   4  11
ATOM     11  C   UNL     1      -1.741  -2.978   1.231  0.00  0.00    +0.019 A 
ATOM     12  C   UNL     1      -2.326  -2.557   2.409  0.00  0.00    +0.009 A 
ATOM     13  C   UNL     1      -3.040  -3.451   3.186  0.00  0.00    +0.001 A 
ATOM     14  C   UNL     1      -3.170  -4.768   2.785  0.00  0.00    +0.004 A 
ATOM     15  C   UNL     1      -2.587  -5.194   1.608  0.00  0.00    +0.046 A 
ATOM     16  C   UNL     1      -1.874  -4.297   0.824  0.00  0.00    +0.132 A 
BRANCH  16  17
ATOM     17  O   UNL     1      -1.304  -4.712  -0.338  0.00  0.00    -0.434 OA
BRANCH  17  18
ATOM     18  C   UNL     1      -1.492  -6.081  -0.700  0.00  0.00    +0.541 C 
ATOM     19  F   UNL     1      -0.908  -6.904   0.269  0.00  0.00    -0.166 F 
ATOM     20  F   UNL     1      -2.861  -6.358  -0.782  0.00  0.00    -0.166 F 
ENDBRANCH  17  18
ENDBRANCH  16  17
ENDBRANCH   4  11
BRANCH   3  21
ATOM     21  C   UNL     1      -2.782  -0.225   0.612  0.00  0.00    +0.248 C 
ATOM     22  O   UNL     1      -3.149   0.869   1.001  0.00  0.00    -0.270 OA
ATOM     23  N   UNL     1      -3.668  -1.075   0.057  0.00  0.00    -0.282 N 
ATOM     24  H   UNL     1      -3.390  -1.970  -0.195  0.00  0.00    +0.155 HD
BRANCH  23  25
ATOM     25  C   UNL     1      -4.989  -0.668  -0.155  0.00  0.00    +0.034 A 
ATOM     26  C   UNL     1      -5.258   0.622  -0.595  0.00  0.00    +0.025 A 
ATOM     27  C   UNL     1      -6.564   1.020  -0.804  0.00  0.00    +0.034 A 
ATOM     28  C   UNL     1      -7.603   0.137  -0.574  0.00  0.00    +0.126 A 
ATOM     29  C   UNL     1      -7.339  -1.147  -0.136  0.00  0.00    +0.034 A 
ATOM     30  C   UNL     1      -6.035  -1.554   0.069  0.00  0.00    +0.025 A 
BRANCH  28  31
ATOM     31  N   UNL     1      -9.001   0.568  -0.799  0.00  0.00    +0.056 N 
ATOM     32  O   UNL     1      -9.234   1.691  -1.182  0.00  0.00    -0.126 OA
ATOM     33  O   UNL     1      -9.911  -0.202  -0.598  0.00  0.00    -0.126 OA
ENDBRANCH  28  31
ENDBRANCH  23  25
ENDBRANCH   3  21
TORSDOF 6
