REMARK  Name = ZINC09409661
REMARK  9 active torsions:
REMARK  status: ('A' for Active; 'I' for Inactive)
REMARK    1  A    between atoms: C_1  and  O_2
REMARK    2  A    between atoms: O_2  and  C_3
REMARK    3  A    between atoms: C_6  and  O_32
REMARK    4  A    between atoms: C_7  and  C_9
REMARK    5  A    between atoms: C_11  and  C_23
REMARK    6  A    between atoms: C_13  and  C_18
REMARK    7  A    between atoms: C_13  and  O_22
REMARK    8  A    between atoms: C_23  and  C_25
REMARK    9  A    between atoms: O_32  and  C_33
REMARK                            x       y       z     vdW  Elec       q    Type
REMARK                         _______ _______ _______ _____ _____    ______ ____
ROOT
ATOM      1  C   UNL     1       1.206  -3.949  -2.243  0.00  0.00    +0.124 C 
ATOM      2  C   UNL     1       0.150  -4.619  -3.129  0.00  0.00    +0.144 C 
ATOM      3  C   UNL     1       0.358  -6.136  -3.074  0.00  0.00    +0.243 C 
ATOM      4  N   UNL     1       0.322  -6.575  -1.678  0.00  0.00    -0.264 N 
ATOM      5  C   UNL     1       0.702  -5.763  -0.681  0.00  0.00    +0.302 C 
ATOM      6  O   UNL     1       0.663  -6.181   0.460  0.00  0.00    -0.253 OA
ATOM      7  N   UNL     1       1.126  -4.507  -0.892  0.00  0.00    -0.292 N 
ATOM      8  H   UNL     1       0.017  -7.472  -1.470  0.00  0.00    +0.153 HD
ATOM      9  H   UNL     1       1.383  -3.958  -0.135  0.00  0.00    +0.151 HD
ENDROOT
BRANCH   1  14
ATOM     10  C   UNL     1       1.546  -0.232  -2.831  0.00  0.00    +0.121 A 
ATOM     11  C   UNL     1       0.482   0.264  -2.091  0.00  0.00    +0.049 A 
ATOM     12  C   UNL     1      -0.344  -0.602  -1.403  0.00  0.00    +0.049 A 
ATOM     13  C   UNL     1      -0.111  -1.969  -1.451  0.00  0.00    +0.125 A 
ATOM     14  C   UNL     1       0.953  -2.465  -2.191  0.00  0.00    +0.019 A 
ATOM     15  C   UNL     1       1.776  -1.598  -2.884  0.00  0.00    +0.054 A 
BRANCH  10  17
ATOM     16  C   UNL     1       2.064   2.016  -3.409  0.00  0.00    +0.277 C 
ATOM     17  O   UNL     1       2.359   0.621  -3.508  0.00  0.00    -0.495 OA
ENDBRANCH  10  17
BRANCH  13  18
ATOM     18  O   UNL     1      -0.924  -2.822  -0.773  0.00  0.00    -0.495 OA
ATOM     19  C   UNL     1      -1.999  -2.242  -0.032  0.00  0.00    +0.277 C 
ENDBRANCH  13  18
ENDBRANCH   1  14
BRANCH   3  20
ATOM     20  C   UNL     1      -0.756  -6.833  -3.858  0.00  0.00    +0.436 C 
ATOM     21  F   UNL     1      -0.725  -6.407  -5.190  0.00  0.00    -0.166 F 
ATOM     22  F   UNL     1      -0.565  -8.218  -3.808  0.00  0.00    -0.166 F 
ATOM     23  F   UNL     1      -1.995  -6.512  -3.294  0.00  0.00    -0.166 F 
ENDBRANCH   3  20
BRANCH   3  24
ATOM     24  O   UNL     1       1.625  -6.465  -3.646  0.00  0.00    -0.364 OA
ATOM     25  H   UNL     1       1.823  -7.412  -3.645  0.00  0.00    +0.212 HD
ENDBRANCH   3  24
BRANCH   2  26
ATOM     26  C   UNL     1       0.299  -4.135  -4.548  0.00  0.00    +0.173 C 
ATOM     27  O   UNL     1       1.402  -4.033  -5.042  0.00  0.00    -0.292 OA
BRANCH  26  28
ATOM     28  C   UNL     1      -0.893  -3.785  -5.335  0.00  0.00    +0.018 A 
ATOM     29  C   UNL     1      -2.167  -3.896  -4.766  0.00  0.00    +0.014 A 
ATOM     30  C   UNL     1      -3.280  -3.567  -5.509  0.00  0.00    +0.039 A 
ATOM     31  C   UNL     1      -3.140  -3.128  -6.817  0.00  0.00    +0.123 A 
ATOM     32  C   UNL     1      -1.880  -3.016  -7.386  0.00  0.00    +0.039 A 
ATOM     33  C   UNL     1      -0.758  -3.335  -6.653  0.00  0.00    +0.014 A 
ATOM     34  F   UNL     1      -4.235  -2.808  -7.540  0.00  0.00    -0.205 F 
ENDBRANCH  26  28
ENDBRANCH   2  26
TORSDOF 7
