REMARK  Name = ZINC25679216
REMARK  8 active torsions:
REMARK  status: ('A' for Active; 'I' for Inactive)
REMARK    1  A    between atoms: C_4  and  N_7
REMARK    2  A    between atoms: C_10  and  C_13
REMARK    3  A    between atoms: C_13  and  S_14
REMARK    4  A    between atoms: S_14  and  C_15
REMARK    5  A    between atoms: C_18  and  C_25
REMARK    6  A    between atoms: N_19  and  C_20
REMARK    7  A    between atoms: C_20  and  C_21
REMARK    8  A    between atoms: C_21  and  C_22
REMARK                            x       y       z     vdW  Elec       q    Type
REMARK                         _______ _______ _______ _____ _____    ______ ____
ROOT
ATOM      1  C   UNL     1       6.048   9.734  -2.030  0.00  0.00    +0.192 A 
ATOM      2  N   UNL     1       6.568  10.192  -0.913  0.00  0.00    -0.122 NA
ATOM      3  N   UNL     1       7.545  10.984  -1.172  0.00  0.00    -0.125 NA
ATOM      4  C   UNL     1       7.711  11.082  -2.473  0.00  0.00    +0.200 A 
ATOM      5  N   UNL     1       6.760  10.279  -3.062  0.00  0.00    -0.299 N 
ENDROOT
BRANCH   4   6
ATOM      6  C   UNL     1       8.725  11.892  -3.167  0.00  0.00    +0.172 A 
ATOM      7  C   UNL     1       9.830  12.450  -2.598  0.00  0.00    +0.053 A 
ATOM      8  C   UNL     1      10.514  13.130  -3.625  0.00  0.00    +0.042 A 
ATOM      9  C   UNL     1       9.800  12.962  -4.755  0.00  0.00    +0.196 A 
ATOM     10  O   UNL     1       8.720  12.214  -4.476  0.00  0.00    -0.460 OA
ENDBRANCH   4   6
BRANCH   1  11
ATOM     11  S   UNL     1       4.691   8.619  -2.171  0.00  0.00    -0.080 S 
BRANCH  11  12
ATOM     12  C   UNL     1       4.313   8.361  -0.420  0.00  0.00    +0.133 C 
BRANCH  12  16
ATOM     13  N   UNL     1       2.354   3.888   0.001  0.00  0.00    -0.294 N 
ATOM     14  C   UNL     1       2.334   5.272  -0.097  0.00  0.00    +0.163 A 
ATOM     15  N   UNL     1       3.347   6.110  -0.209  0.00  0.00    -0.229 NA
ATOM     16  C   UNL     1       3.150   7.412  -0.292  0.00  0.00    +0.061 A 
ATOM     17  C   UNL     1       1.877   7.876  -0.259  0.00  0.00    +0.072 A 
ATOM     18  S   UNL     1       0.968   6.345  -0.111  0.00  0.00    -0.060 S 
ATOM     19  H   UNL     1       3.302   3.343  -0.112  0.00  0.00    +0.154 HD
BRANCH  13  23
ATOM     20  C   UNL     1      -1.179   1.802   0.716  0.00  0.00    +0.000 A 
ATOM     21  C   UNL     1      -0.190   1.236  -0.068  0.00  0.00    +0.002 A 
ATOM     22  C   UNL     1       0.982   1.926  -0.309  0.00  0.00    +0.023 A 
ATOM     23  C   UNL     1       1.169   3.188   0.242  0.00  0.00    +0.033 A 
ATOM     24  C   UNL     1       0.176   3.751   1.033  0.00  0.00    +0.023 A 
ATOM     25  C   UNL     1      -0.994   3.055   1.270  0.00  0.00    +0.002 A 
ENDBRANCH  13  23
ENDBRANCH  12  16
ENDBRANCH  11  12
ENDBRANCH   1  11
BRANCH   5  26
ATOM     26  C   UNL     1       6.551  10.058  -4.495  0.00  0.00    +0.135 C 
BRANCH  26  27
ATOM     27  C   UNL     1       5.567  11.098  -5.034  0.00  0.00    +0.117 C 
BRANCH  27  28
ATOM     28  C   UNL     1       5.352  10.871  -6.508  0.00  0.00    +0.212 C 
ATOM     29  O   UNL     1       5.931   9.966  -7.072  0.00  0.00    -0.276 OA
ATOM     30  N   UNL     1       4.519  11.673  -7.199  0.00  0.00    -0.329 N 
ATOM     31  H   UNL     1       4.362  11.507  -8.275  0.00  0.00    +0.145 HD
ATOM     32  H   UNL     1       3.994  12.493  -6.687  0.00  0.00    +0.145 HD
ENDBRANCH  27  28
ENDBRANCH  26  27
ENDBRANCH   5  26
TORSDOF 8
