REMARK  Name = ZINC36064419
REMARK  15 active torsions:
REMARK  status: ('A' for Active; 'I' for Inactive)
REMARK    1  A    between atoms: C_1  and  C_2
REMARK    2  A    between atoms: C_2  and  O_3
REMARK    3  A    between atoms: O_3  and  C_4
REMARK    4  A    between atoms: C_4  and  C_6
REMARK    5  A    between atoms: C_7  and  C_33
REMARK    6  A    between atoms: C_11  and  C_13
REMARK    7  A    between atoms: C_15  and  C_20
REMARK    8  A    between atoms: C_18  and  C_19
REMARK    9  A    between atoms: C_21  and  C_24
REMARK   10  A    between atoms: C_25  and  N_27
REMARK   11  A    between atoms: N_27  and  C_28
REMARK   12  A    between atoms: C_28  and  C_29
REMARK   13  A    between atoms: C_29  and  N_30
REMARK   14  A    between atoms: N_30  and  C_31
REMARK   15  A    between atoms: N_30  and  C_32
REMARK                            x       y       z     vdW  Elec       q    Type
REMARK                         _______ _______ _______ _____ _____    ______ ____
ROOT
ATOM      1  C   UNL     1       1.455  -1.969   2.409  0.00  0.00    +0.091 C 
ATOM      2  C   UNL     1       1.531  -3.340   2.569  0.00  0.00    +0.158 C 
ATOM      3  N   UNL     1       2.154  -3.859   3.614  0.00  0.00    -0.220 NA
ATOM      4  C   UNL     1       2.739  -3.159   4.564  0.00  0.00    +0.166 C 
ATOM      5  N   UNL     1       2.777  -1.793   4.592  0.00  0.00    -0.267 N 
ATOM      6  C   UNL     1       2.109  -1.099   3.459  0.00  0.00    +0.150 C 
ATOM      7  C   UNL     1       3.429  -1.206   5.658  0.00  0.00    +0.048 C 
ATOM      8  C   UNL     1       3.977  -2.022   6.585  0.00  0.00    +0.072 C 
ATOM      9  S   UNL     1       3.566  -3.634   5.946  0.00  0.00    -0.060 S 
ENDROOT
BRANCH   6  10
ATOM     10  C   UNL     1       3.133  -0.233   2.771  0.00  0.00    -0.019 A 
ATOM     11  C   UNL     1       4.440  -0.669   2.652  0.00  0.00    +0.009 A 
ATOM     12  C   UNL     1       5.379   0.125   2.022  0.00  0.00    -0.050 A 
ATOM     13  C   UNL     1       5.011   1.356   1.510  0.00  0.00    +0.003 A 
ATOM     14  C   UNL     1       3.705   1.791   1.628  0.00  0.00    +0.004 A 
ATOM     15  C   UNL     1       2.765   0.995   2.255  0.00  0.00    -0.045 A 
ATOM     16  C   UNL     1       1.339   1.467   2.379  0.00  0.00    +0.044 C 
ATOM     17  C   UNL     1       6.803  -0.350   1.893  0.00  0.00    +0.044 C 
ENDBRANCH   6  10
BRANCH   2  18
ATOM     18  C   UNL     1       0.900  -4.249   1.546  0.00  0.00    +0.435 C 
ATOM     19  F   UNL     1       0.441  -3.488   0.466  0.00  0.00    -0.164 F 
ATOM     20  F   UNL     1       1.848  -5.174   1.096  0.00  0.00    -0.164 F 
ATOM     21  F   UNL     1      -0.175  -4.929   2.128  0.00  0.00    -0.164 F 
ENDBRANCH   2  18
BRANCH   7  22
ATOM     22  C   UNL     1       3.526   0.256   5.779  0.00  0.00    +0.091 C 
ATOM     23  C   UNL     1       4.285   0.803   6.748  0.00  0.00    +0.239 C 
ATOM     24  O   UNL     1       5.063   0.012   7.526  0.00  0.00    -0.271 OA
BRANCH  23  25
ATOM     25  N   UNL     1       4.271   2.173   6.948  0.00  0.00    -0.314 N 
ATOM     26  H   UNL     1       3.660   2.731   6.442  0.00  0.00    +0.149 HD
BRANCH  25  27
ATOM     27  C   UNL     1       5.179   2.780   7.925  0.00  0.00    +0.086 C 
BRANCH  27  28
ATOM     28  C   UNL     1       4.878   4.276   8.040  0.00  0.00    -0.061 C 
BRANCH  28  29
ATOM     29  N   UNL     1       5.788   4.884   9.019  0.00  0.00    +0.377 N 
ATOM     30  C   UNL     1       7.168   4.803   8.522  0.00  0.00    -0.097 C 
ATOM     31  C   UNL     1       5.422   6.293   9.219  0.00  0.00    -0.097 C 
ATOM     32  H   UNL     1       5.717   4.391   9.896  0.00  0.00    -0.083 HD
ENDBRANCH  28  29
ENDBRANCH  27  28
ENDBRANCH  25  27
ENDBRANCH  23  25
ENDBRANCH   7  22
BRANCH   1  33
ATOM     33  C   UNL     1       0.799  -1.405   1.308  0.00  0.00    +0.339 C 
ATOM     34  O   UNL     1       1.442  -1.029   0.343  0.00  0.00    -0.245 OA
BRANCH  33  35
ATOM     35  O   UNL     1      -0.546  -1.278   1.315  0.00  0.00    -0.462 OA
BRANCH  35  37
ATOM     36  C   UNL     1      -2.658  -0.600   0.356  0.00  0.00    +0.048 C 
ATOM     37  C   UNL     1      -1.158  -0.787   0.121  0.00  0.00    +0.229 C 
ENDBRANCH  35  37
ENDBRANCH  33  35
ENDBRANCH   1  33
TORSDOF 10
