REMARK  Name = ZINC14461114
REMARK  6 active torsions:
REMARK  status: ('A' for Active; 'I' for Inactive)
REMARK    1  A    between atoms: C_1  and  C_2
REMARK    2  A    between atoms: C_2  and  C_3
REMARK    3  A    between atoms: C_3  and  O_4
REMARK    4  A    between atoms: O_4  and  C_5
REMARK    5  A    between atoms: C_18  and  C_21
REMARK    6  A    between atoms: C_26  and  O_27
REMARK                            x       y       z     vdW  Elec       q    Type
REMARK                         _______ _______ _______ _____ _____    ______ ____
ROOT
ATOM      1  C   UNL     1      -5.256   4.242  -1.960  0.00  0.00    +0.121 A 
ATOM      2  C   UNL     1      -4.561   5.150  -2.744  0.00  0.00    +0.047 A 
ATOM      3  C   UNL     1      -3.194   5.019  -2.891  0.00  0.00    +0.027 A 
ATOM      4  C   UNL     1      -2.521   3.984  -2.256  0.00  0.00    +0.032 A 
ATOM      5  C   UNL     1      -3.210   3.071  -1.473  0.00  0.00    -0.016 A 
ATOM      6  C   UNL     1      -4.584   3.209  -1.329  0.00  0.00    +0.051 A 
ATOM      7  C   UNL     1      -2.526   1.938  -0.775  0.00  0.00    +0.049 C 
ATOM      8  C   UNL     1      -2.397   2.199   0.707  0.00  0.00    -0.023 C 
ATOM      9  C   UNL     1      -1.258   1.720   1.156  0.00  0.00    -0.030 C 
ATOM     10  C   UNL     1      -0.480   1.069   0.029  0.00  0.00    +0.033 C 
ATOM     11  C   UNL     1      -1.076   1.726  -1.251  0.00  0.00    +0.029 C 
ATOM     12  C   UNL     1      -0.383   3.079  -1.433  0.00  0.00    +0.108 C 
ATOM     13  N   UNL     1      -1.133   3.868  -2.416  0.00  0.00    -0.336 N 
ATOM     14  H   UNL     1      -0.680   4.300  -3.157  0.00  0.00    +0.147 HD
ENDROOT
BRANCH  12  15
ATOM     15  C   UNL     1      -0.350   3.811  -0.117  0.00  0.00    +0.015 A 
ATOM     16  C   UNL     1      -1.398   4.638   0.240  0.00  0.00    +0.024 A 
ATOM     17  C   UNL     1      -1.368   5.310   1.449  0.00  0.00    +0.018 A 
ATOM     18  C   UNL     1      -0.290   5.156   2.303  0.00  0.00    +0.019 A 
ATOM     19  C   UNL     1       0.758   4.330   1.950  0.00  0.00    +0.047 A 
ATOM     20  C   UNL     1       0.729   3.650   0.740  0.00  0.00    +0.122 A 
ATOM     21 BR   UNL     1      -2.804   6.441   1.935  0.00  0.00    -0.050 Br
BRANCH  20  22
ATOM     22  O   UNL     1       1.757   2.832   0.394  0.00  0.00    -0.506 OA
ATOM     23  H   UNL     1       2.464   3.275  -0.095  0.00  0.00    +0.292 HD
ENDBRANCH  20  22
ENDBRANCH  12  15
BRANCH   1  24
ATOM     24  O   UNL     1      -6.602   4.365  -1.810  0.00  0.00    -0.492 OA
BRANCH  24  25
ATOM     25  C   UNL     1      -7.233   5.453  -2.489  0.00  0.00    +0.229 C 
BRANCH  25  27
ATOM     26  C   UNL     1      -9.412   6.594  -2.931  0.00  0.00    +0.007 C 
ATOM     27  C   UNL     1      -8.736   5.429  -2.204  0.00  0.00    +0.038 C 
ENDBRANCH  25  27
ENDBRANCH  24  25
ENDBRANCH   1  24
TORSDOF 5
