REMARK  Name = ZINC08582715
REMARK  9 active torsions:
REMARK  status: ('A' for Active; 'I' for Inactive)
REMARK    1  A    between atoms: C_3  and  C_6
REMARK    2  A    between atoms: C_6  and  N_7
REMARK    3  A    between atoms: C_8  and  C_12
REMARK    4  A    between atoms: C_12  and  N_57
REMARK    5  A    between atoms: C_13  and  C_14
REMARK    6  A    between atoms: C_13  and  N_57
REMARK    7  A    between atoms: C_19  and  C_20
REMARK    8  A    between atoms: C_19  and  N_57
REMARK    9  A    between atoms: C_29  and  O_30
REMARK                            x       y       z     vdW  Elec       q    Type
REMARK                         _______ _______ _______ _____ _____    ______ ____
ROOT
ATOM      1  N   UNL     1      -2.495   4.943   1.601  0.00  0.00    +0.390 N 
ATOM      2  H   UNL     1      -1.724   5.344   2.148  0.00  0.00    -0.080 HD
ENDROOT
BRANCH   1   3
ATOM      3  C   UNL     1      -3.451   6.017   1.259  0.00  0.00    +0.001 C 
BRANCH   3   5
ATOM      4  N   UNL     1      -2.381   7.624  -0.408  0.00  0.00    -0.224 N 
ATOM      5  C   UNL     1      -2.674   7.242   0.848  0.00  0.00    +0.136 A 
ATOM      6  N   UNL     1      -2.159   8.145   1.646  0.00  0.00    -0.115 NA
ATOM      7  N   UNL     1      -1.572   9.031   0.917  0.00  0.00    -0.023 NA
ATOM      8  N   UNL     1      -1.707   8.721  -0.325  0.00  0.00    -0.044 NA
BRANCH   4   9
ATOM      9  C   UNL     1      -2.756   6.925  -1.640  0.00  0.00    +0.221 C 
BRANCH   9  12
ATOM     10  C   UNL     1      -5.685   8.590  -3.133  0.00  0.00    +0.041 A 
ATOM     11  C   UNL     1      -4.288   8.467  -2.953  0.00  0.00    +0.046 A 
ATOM     12  C   UNL     1      -4.092   7.431  -2.118  0.00  0.00    +0.126 A 
ATOM     13  O   UNL     1      -5.290   6.927  -1.779  0.00  0.00    -0.466 OA
ATOM     14  C   UNL     1      -6.260   7.626  -2.391  0.00  0.00    +0.195 A 
ENDBRANCH   9  12
ENDBRANCH   4   9
ENDBRANCH   3   5
ENDBRANCH   1   3
BRANCH   1  15
ATOM     15  C   UNL     1      -3.169   3.906   2.410  0.00  0.00    -0.035 C 
BRANCH  15  16
ATOM     16  C   UNL     1      -3.407   4.451   3.795  0.00  0.00    -0.027 A 
ATOM     17  C   UNL     1      -4.520   5.035   4.303  0.00  0.00    +0.009 A 
ATOM     18  C   UNL     1      -4.513   5.461   5.618  0.00  0.00    +0.008 A 
ATOM     19  C   UNL     1      -3.389   5.292   6.357  0.00  0.00    +0.045 A 
ATOM     20  S   UNL     1      -2.294   4.503   5.189  0.00  0.00    -0.103 S 
ENDBRANCH  15  16
ENDBRANCH   1  15
BRANCH   1  21
ATOM     21  C   UNL     1      -1.946   4.343   0.366  0.00  0.00    -0.037 C 
BRANCH  21  22
ATOM     22  C   UNL     1      -0.821   3.412   0.737  0.00  0.00    -0.002 A 
ATOM     23  C   UNL     1      -1.007   2.062   0.687  0.00  0.00    +0.017 A 
ATOM     24  C   UNL     1       0.071   1.226   1.036  0.00  0.00    +0.005 A 
ATOM     25  C   UNL     1      -0.049  -0.172   1.002  0.00  0.00    +0.059 A 
ATOM     26  C   UNL     1       1.013  -0.956   1.353  0.00  0.00    +0.163 A 
ATOM     27  C   UNL     1       2.228  -0.377   1.746  0.00  0.00    +0.164 A 
ATOM     28  C   UNL     1       2.372   0.982   1.789  0.00  0.00    +0.077 A 
ATOM     29  C   UNL     1       1.298   1.814   1.435  0.00  0.00    +0.079 A 
ATOM     30  N   UNL     1       1.418   3.146   1.470  0.00  0.00    -0.213 NA
ATOM     31  C   UNL     1       0.415   3.931   1.139  0.00  0.00    +0.214 A 
ATOM     32  O   UNL     1       3.289  -1.159   2.089  0.00  0.00    -0.485 OA
ATOM     33  C   UNL     1       3.006  -2.527   2.399  0.00  0.00    +0.270 C 
ATOM     34  C   UNL     1       2.075  -3.084   1.314  0.00  0.00    +0.270 C 
ATOM     35  O   UNL     1       0.871  -2.311   1.315  0.00  0.00    -0.485 OA
BRANCH  31  36
ATOM     36  O   UNL     1       0.583   5.276   1.189  0.00  0.00    -0.492 OA
ATOM     37  H   UNL     1       0.905   5.663   0.364  0.00  0.00    +0.294 HD
ENDBRANCH  31  36
ENDBRANCH  21  22
ENDBRANCH   1  21
TORSDOF 9
