REMARK  Name = ZINC01113652
REMARK  8 active torsions:
REMARK  status: ('A' for Active; 'I' for Inactive)
REMARK    1  A    between atoms: C_1  and  C_2
REMARK    2  A    between atoms: C_5  and  C_26
REMARK    3  A    between atoms: C_6  and  C_8
REMARK    4  A    between atoms: C_11  and  N_16
REMARK    5  A    between atoms: C_12  and  C_13
REMARK    6  A    between atoms: C_17  and  C_19
REMARK    7  A    between atoms: C_21  and  C_25
REMARK    8  A    between atoms: C_23  and  C_24
REMARK                            x       y       z     vdW  Elec       q    Type
REMARK                         _______ _______ _______ _____ _____    ______ ____
ROOT
ATOM      1  C   UNL     1       1.742  -0.642  -0.098  0.00  0.00    +0.003 A 
ATOM      2  C   UNL     1       2.929   0.016  -0.090  0.00  0.00    +0.056 A 
ATOM      3  S   UNL     1       2.460   1.704   0.228  0.00  0.00    -0.081 S 
ATOM      4  C   UNL     1       0.743   1.514   0.343  0.00  0.00    +0.085 A 
ATOM      5  C   UNL     1       0.553   0.155   0.135  0.00  0.00    +0.073 A 
ENDROOT
BRANCH   1  11
ATOM      6  C   UNL     1       1.093  -5.271   1.656  0.00  0.00    +0.044 C 
ATOM      7  C   UNL     1       1.353  -4.331   0.507  0.00  0.00    -0.050 A 
ATOM      8  C   UNL     1       1.518  -4.833  -0.772  0.00  0.00    +0.003 A 
ATOM      9  C   UNL     1       1.756  -3.977  -1.831  0.00  0.00    +0.004 A 
ATOM     10  C   UNL     1       1.824  -2.615  -1.619  0.00  0.00    -0.043 A 
ATOM     11  C   UNL     1       1.664  -2.104  -0.333  0.00  0.00    -0.013 A 
ATOM     12  C   UNL     1       1.425  -2.972   0.732  0.00  0.00    +0.012 A 
ATOM     13  C   UNL     1       2.077  -1.683  -2.776  0.00  0.00    +0.044 C 
ENDBRANCH   1  11
BRANCH   5  14
ATOM     14  C   UNL     1      -0.783  -0.444   0.150  0.00  0.00    +0.244 C 
ATOM     15  O   UNL     1      -1.406  -0.570  -0.888  0.00  0.00    -0.270 OA
ATOM     16  N   UNL     1      -1.323  -0.857   1.314  0.00  0.00    -0.325 N 
ATOM     17  H   UNL     1      -0.827  -0.757   2.142  0.00  0.00    +0.145 HD
ATOM     18  H   UNL     1      -2.208  -1.254   1.324  0.00  0.00    +0.145 HD
ENDBRANCH   5  14
BRANCH   4  19
ATOM     19  N   UNL     1      -0.213   2.488   0.580  0.00  0.00    -0.275 N 
ATOM     20  C   UNL     1       0.161   3.770   0.761  0.00  0.00    +0.252 C 
ATOM     21  O   UNL     1       1.338   4.072   0.716  0.00  0.00    -0.270 OA
ATOM     22  H   UNL     1      -1.152   2.247   0.616  0.00  0.00    +0.156 HD
BRANCH  20  23
ATOM     23  C   UNL     1      -0.856   4.806   1.013  0.00  0.00    +0.078 A 
ATOM     24  C   UNL     1      -2.312   4.620   1.093  0.00  0.00    +0.057 A 
ATOM     25  C   UNL     1      -2.826   5.835   1.340  0.00  0.00    +0.103 A 
ATOM     26  O   UNL     1      -1.827   6.730   1.407  0.00  0.00    -0.464 OA
ATOM     27  C   UNL     1      -0.644   6.139   1.215  0.00  0.00    +0.114 A 
ATOM     28  C   UNL     1       0.697   6.827   1.221  0.00  0.00    +0.087 C 
ATOM     29  C   UNL     1      -4.291   6.147   1.508  0.00  0.00    +0.086 C 
ENDBRANCH  20  23
ENDBRANCH   4  19
TORSDOF 4
