REMARK  Name = ZINC13568686
REMARK  7 active torsions:
REMARK  status: ('A' for Active; 'I' for Inactive)
REMARK    1  A    between atoms: C_1  and  C_2
REMARK    2  A    between atoms: C_2  and  O_3
REMARK    3  A    between atoms: O_3  and  C_4
REMARK    4  A    between atoms: C_7  and  C_12
REMARK    5  A    between atoms: C_9  and  O_10
REMARK    6  A    between atoms: O_10  and  C_11
REMARK    7  A    between atoms: C_17  and  C_23
REMARK                            x       y       z     vdW  Elec       q    Type
REMARK                         _______ _______ _______ _____ _____    ______ ____
ROOT
ATOM      1  C   UNL     1      -2.200   5.607   1.053  0.00  0.00    +0.032 C 
ATOM      2  C   UNL     1      -1.570   5.062  -0.231  0.00  0.00    +0.059 C 
ATOM      3  C   UNL     1      -1.300   3.586  -0.075  0.00  0.00    +0.018 C 
ATOM      4  C   UNL     1      -1.010   3.060   1.133  0.00  0.00    +0.020 C 
ATOM      5  C   UNL     1      -0.732   1.581   1.264  0.00  0.00    +0.064 C 
ATOM      6  C   UNL     1      -0.013   1.086   0.008  0.00  0.00    +0.109 C 
ATOM      7  C   UNL     1      -0.744   1.586  -1.211  0.00  0.00    +0.218 C 
ATOM      8  O   UNL     1      -0.785   0.906  -2.214  0.00  0.00    -0.275 OA
ATOM      9  N   UNL     1      -1.351   2.786  -1.188  0.00  0.00    -0.289 N 
ATOM     10  C   UNL     1      -0.959   3.860   2.286  0.00  0.00    +0.162 C 
ATOM     11  O   UNL     1      -0.682   3.352   3.355  0.00  0.00    -0.292 OA
ATOM     12  C   UNL     1      -1.243   5.337   2.219  0.00  0.00    +0.088 C 
ATOM     13  H   UNL     1      -1.835   3.090  -1.972  0.00  0.00    +0.155 HD
ENDROOT
BRANCH   5  14
ATOM     14  C   UNL     1      -2.033   0.838   1.424  0.00  0.00    -0.021 A 
ATOM     15  C   UNL     1      -2.999   0.917   0.439  0.00  0.00    +0.007 A 
ATOM     16  C   UNL     1      -4.191   0.232   0.582  0.00  0.00    +0.020 A 
ATOM     17  C   UNL     1      -4.422  -0.525   1.717  0.00  0.00    +0.042 A 
ATOM     18  C   UNL     1      -3.458  -0.601   2.706  0.00  0.00    +0.040 A 
ATOM     19  C   UNL     1      -2.263   0.081   2.559  0.00  0.00    +0.046 A 
ATOM     20 CL   UNL     1      -1.051  -0.013   3.799  0.00  0.00    -0.083 Cl
ATOM     21 CL   UNL     1      -5.922  -1.380   1.900  0.00  0.00    -0.083 Cl
ENDBRANCH   5  14
BRANCH   1  25
ATOM     22  C   UNL     1      -2.841   9.818   0.671  0.00  0.00    +0.162 A 
ATOM     23  C   UNL     1      -1.563   9.295   0.551  0.00  0.00    +0.050 A 
ATOM     24  C   UNL     1      -1.359   7.933   0.675  0.00  0.00    +0.008 A 
ATOM     25  C   UNL     1      -2.428   7.090   0.919  0.00  0.00    -0.040 A 
ATOM     26  C   UNL     1      -3.706   7.605   1.035  0.00  0.00    +0.053 A 
ATOM     27  C   UNL     1      -3.916   8.970   0.917  0.00  0.00    +0.162 A 
BRANCH  27  28
ATOM     28  O   UNL     1      -5.172   9.478   1.036  0.00  0.00    -0.491 OA
ATOM     29  C   UNL     1      -6.227   8.548   1.287  0.00  0.00    +0.277 C 
ENDBRANCH  27  28
BRANCH  22  30
ATOM     30  O   UNL     1      -3.043  11.157   0.549  0.00  0.00    -0.489 OA
BRANCH  30  32
ATOM     31  C   UNL     1      -2.315  13.434   0.192  0.00  0.00    +0.048 C 
ATOM     32  C   UNL     1      -1.893  11.967   0.298  0.00  0.00    +0.226 C 
ENDBRANCH  30  32
ENDBRANCH  22  30
ENDBRANCH   1  25
TORSDOF 5
