REMARK  Name = ZINC39794997
REMARK  2 active torsions:
REMARK  status: ('A' for Active; 'I' for Inactive)
REMARK    1  A    between atoms: C_6  and  C_7
REMARK    2  A    between atoms: C_10  and  C_12
REMARK                            x       y       z     vdW  Elec       q    Type
REMARK                         _______ _______ _______ _____ _____    ______ ____
ROOT
ATOM      1  C   UNL     1      -4.909  -1.041   0.037  0.00  0.00    +0.128 C 
ATOM      2  C   UNL     1      -5.305  -0.298   1.279  0.00  0.00    +0.070 A 
ATOM      3  C   UNL     1      -5.620   1.026   1.231  0.00  0.00    +0.111 A 
ATOM      4  N   UNL     1      -5.973   1.682   2.386  0.00  0.00    -0.323 N 
ATOM      5  C   UNL     1      -6.011   1.021   3.558  0.00  0.00    +0.159 A 
ATOM      6  S   UNL     1      -6.452   1.859   4.984  0.00  0.00    -0.013 S 
ATOM      7  N   UNL     1      -5.706  -0.288   3.625  0.00  0.00    -0.302 N 
ATOM      8  C   UNL     1      -5.354  -0.967   2.515  0.00  0.00    +0.258 A 
ATOM      9  O   UNL     1      -5.081  -2.153   2.583  0.00  0.00    -0.267 OA
ATOM     10  N   UNL     1      -5.588   1.700   0.036  0.00  0.00    -0.304 N 
ATOM     11  C   UNL     1      -5.633   1.020  -1.151  0.00  0.00    +0.017 C 
ATOM     12  C   UNL     1      -5.324  -0.291  -1.203  0.00  0.00    +0.027 C 
ATOM     13  C   UNL     1      -5.382  -1.000  -2.417  0.00  0.00    +0.162 C 
ATOM     14  O   UNL     1      -5.092  -2.180  -2.432  0.00  0.00    -0.292 OA
ATOM     15  C   UNL     1      -5.797  -0.325  -3.695  0.00  0.00    +0.080 C 
ATOM     16  C   UNL     1      -6.742   0.834  -3.364  0.00  0.00    +0.014 C 
ATOM     17  C   UNL     1      -6.030   1.776  -2.396  0.00  0.00    +0.051 C 
ATOM     18  H   UNL     1      -5.740  -0.746   4.479  0.00  0.00    +0.171 HD
ATOM     19  H   UNL     1      -5.534   2.669   0.032  0.00  0.00    +0.153 HD
ATOM     20  H   UNL     1      -6.197   2.625   2.356  0.00  0.00    +0.169 HD
ENDROOT
BRANCH   1  24
ATOM     21  C   UNL     1      -1.266  -0.763   0.011  0.00  0.00    +0.135 A 
ATOM     22  C   UNL     1      -1.385  -2.118   0.010  0.00  0.00    +0.050 A 
ATOM     23  C   UNL     1      -2.765  -2.404   0.020  0.00  0.00    +0.046 A 
ATOM     24  C   UNL     1      -3.413  -1.223   0.026  0.00  0.00    +0.118 A 
ATOM     25  O   UNL     1      -2.504  -0.234   0.026  0.00  0.00    -0.459 OA
BRANCH  21  31
ATOM     26  C   UNL     1      -0.017   1.392   0.010  0.00  0.00    +0.013 A 
ATOM     27  C   UNL     1       1.170   2.095   0.002  0.00  0.00    +0.021 A 
ATOM     28  C   UNL     1       2.378   1.419  -0.013  0.00  0.00    +0.041 A 
ATOM     29  C   UNL     1       2.404   0.034  -0.021  0.00  0.00    +0.021 A 
ATOM     30  C   UNL     1       1.223  -0.680  -0.014  0.00  0.00    +0.013 A 
ATOM     31  C   UNL     1       0.002  -0.004   0.002  0.00  0.00    +0.017 A 
ATOM     32 CL   UNL     1       3.868   2.311  -0.023  0.00  0.00    -0.084 Cl
ENDBRANCH  21  31
ENDBRANCH   1  24
TORSDOF 2
