REMARK  Name = ZINC44528930
REMARK  4 active torsions:
REMARK  status: ('A' for Active; 'I' for Inactive)
REMARK    1  A    between atoms: C_5  and  S_7
REMARK    2  A    between atoms: S_7  and  N_10
REMARK    3  A    between atoms: C_14  and  C_17
REMARK    4  A    between atoms: C_17  and  N_18
REMARK                            x       y       z     vdW  Elec       q    Type
REMARK                         _______ _______ _______ _____ _____    ______ ____
ROOT
ATOM      1  N   UNL     1       1.893  -2.913  -1.466  0.00  0.00    -0.176 NA
ATOM      2  C   UNL     1       1.042  -3.133  -2.643  0.00  0.00    +0.109 C 
ATOM      3  C   UNL     1       1.318  -4.535  -3.197  0.00  0.00    +0.017 C 
ATOM      4  C   UNL     1       2.817  -4.686  -3.468  0.00  0.00    +0.004 C 
ATOM      5  C   UNL     1       3.593  -4.521  -2.159  0.00  0.00    -0.013 C 
ATOM      6  C   UNL     1       3.343  -3.114  -1.596  0.00  0.00    +0.111 C 
ENDROOT
BRANCH   1   7
ATOM      7  S   UNL     1       1.232  -2.441  -0.024  0.00  0.00    +0.062 S 
ATOM      8  O   UNL     1       2.143  -2.841   0.991  0.00  0.00    -0.153 OA
ATOM      9  O   UNL     1      -0.124  -2.865  -0.040  0.00  0.00    -0.153 OA
BRANCH   7  14
ATOM     10  C   UNL     1      -0.017   1.378   0.010  0.00  0.00    +0.002 A 
ATOM     11  C   UNL     1       1.171   2.086   0.002  0.00  0.00    +0.001 A 
ATOM     12  C   UNL     1       2.377   1.412  -0.013  0.00  0.00    +0.017 A 
ATOM     13  C   UNL     1       2.397   0.029  -0.021  0.00  0.00    +0.044 A 
ATOM     14  C   UNL     1       1.208  -0.679  -0.013  0.00  0.00    +0.119 A 
ATOM     15  C   UNL     1       0.002  -0.004   0.002  0.00  0.00    +0.029 A 
ATOM     16 BR   UNL     1       4.047  -0.894  -0.042  0.00  0.00    -0.048 Br
ENDBRANCH   7  14
ENDBRANCH   1   7
BRANCH   5  17
ATOM     17  C   UNL     1       5.088  -4.706  -2.425  0.00  0.00    -0.082 C 
BRANCH  17  18
ATOM     18  N   UNL     1       5.342  -6.087  -2.857  0.00  0.00    +0.378 N 
ATOM     19  H   UNL     1       5.048  -6.725  -2.132  0.00  0.00    -0.090 HD
ATOM     20  H   UNL     1       4.824  -6.276  -3.702  0.00  0.00    -0.090 HD
ATOM     21  H   UNL     1       6.328  -6.208  -3.032  0.00  0.00    -0.090 HD
ENDBRANCH  17  18
ENDBRANCH   5  17
TORSDOF 4
