REMARK  Name = ZINC23749740
REMARK  9 active torsions:
REMARK  status: ('A' for Active; 'I' for Inactive)
REMARK    1  A    between atoms: C_1  and  C_2
REMARK    2  A    between atoms: C_8  and  C_10
REMARK    3  A    between atoms: C_10  and  C_12
REMARK    4  A    between atoms: C_10  and  N_22
REMARK    5  A    between atoms: C_14  and  O_20
REMARK    6  A    between atoms: C_17  and  O_18
REMARK    7  A    between atoms: O_18  and  C_19
REMARK    8  A    between atoms: O_20  and  C_21
REMARK    9  A    between atoms: C_25  and  C_28
REMARK                            x       y       z     vdW  Elec       q    Type
REMARK                         _______ _______ _______ _____ _____    ______ ____
ROOT
ATOM      1  C   UNL     1       5.247   2.833  -0.034  0.00  0.00    +0.009 C 
ENDROOT
BRANCH   1   9
ATOM      2  C   UNL     1      -1.215  -0.893   0.008  0.00  0.00    +0.090 C 
ATOM      3  C   UNL     1       0.002  -0.004   0.002  0.00  0.00    +0.150 A 
ATOM      4  N   UNL     1      -0.016   1.327   0.009  0.00  0.00    -0.205 NA
ATOM      5  C   UNL     1       1.210   1.775   0.000  0.00  0.00    +0.199 A 
ATOM      6  N   UNL     1       2.079   0.728  -0.014  0.00  0.00    -0.170 N 
ATOM      7  N   UNL     1       1.241  -0.418  -0.012  0.00  0.00    -0.147 NA
ATOM      8  C   UNL     1       3.421   1.023  -0.025  0.00  0.00    +0.282 A 
ATOM      9  C   UNL     1       3.839   2.294  -0.023  0.00  0.00    +0.050 A 
ATOM     10  S   UNL     1       2.291   3.185  -0.003  0.00  0.00    -0.050 S 
ATOM     11  O   UNL     1       4.333   0.014  -0.039  0.00  0.00    -0.265 OA
ENDBRANCH   1   9
BRANCH   1  12
ATOM     12  N   UNL     1       5.363   3.917   0.950  0.00  0.00    +0.388 N 
ATOM     13  C   UNL     1       6.695   4.534   0.898  0.00  0.00    -0.077 C 
ATOM     14  C   UNL     1       6.733   5.748   1.829  0.00  0.00    -0.006 C 
ATOM     15  C   UNL     1       6.413   5.301   3.258  0.00  0.00    +0.071 C 
ATOM     16  C   UNL     1       5.042   4.618   3.275  0.00  0.00    -0.006 C 
ATOM     17  C   UNL     1       5.053   3.437   2.303  0.00  0.00    -0.077 C 
ATOM     18  H   UNL     1       4.625   4.691   0.692  0.00  0.00    -0.080 HD
BRANCH  15  19
ATOM     19  C   UNL     1       6.390   6.500   4.170  0.00  0.00    +0.213 C 
ATOM     20  O   UNL     1       5.378   6.782   4.775  0.00  0.00    -0.276 OA
ATOM     21  N   UNL     1       7.495   7.259   4.313  0.00  0.00    -0.329 N 
ATOM     22  H   UNL     1       7.479   8.134   4.979  0.00  0.00    +0.145 HD
ATOM     23  H   UNL     1       8.413   7.002   3.764  0.00  0.00    +0.145 HD
ENDBRANCH  15  19
ENDBRANCH   1  12
BRANCH   1  24
ATOM     24  C   UNL     1       5.571   3.363  -1.406  0.00  0.00    -0.011 A 
ATOM     25  C   UNL     1       5.501   4.719  -1.658  0.00  0.00    +0.051 A 
ATOM     26  C   UNL     1       5.805   5.208  -2.920  0.00  0.00    +0.121 A 
ATOM     27  C   UNL     1       6.170   4.333  -3.932  0.00  0.00    +0.049 A 
ATOM     28  C   UNL     1       6.234   2.976  -3.683  0.00  0.00    +0.049 A 
ATOM     29  C   UNL     1       5.935   2.488  -2.419  0.00  0.00    +0.122 A 
BRANCH  29  30
ATOM     30  O   UNL     1       6.000   1.152  -2.173  0.00  0.00    -0.495 OA
ATOM     31  C   UNL     1       6.382   0.310  -3.262  0.00  0.00    +0.277 C 
ENDBRANCH  29  30
BRANCH  26  32
ATOM     32  O   UNL     1       5.742   6.543  -3.165  0.00  0.00    -0.495 OA
ATOM     33  C   UNL     1       6.062   6.976  -4.489  0.00  0.00    +0.277 C 
ENDBRANCH  26  32
ENDBRANCH   1  24
TORSDOF 6
