REMARK  Name = ZINC05002931
REMARK  8 active torsions:
REMARK  status: ('A' for Active; 'I' for Inactive)
REMARK    1  A    between atoms: C_1  and  C_2
REMARK    2  A    between atoms: C_2  and  C_3
REMARK    3  A    between atoms: C_3  and  C_4
REMARK    4  A    between atoms: C_4  and  O_5
REMARK    5  A    between atoms: O_5  and  C_6
REMARK    6  A    between atoms: C_6  and  C_8
REMARK    7  A    between atoms: C_9  and  C_26
REMARK    8  A    between atoms: C_14  and  C_16
REMARK                            x       y       z     vdW  Elec       q    Type
REMARK                         _______ _______ _______ _____ _____    ______ ____
ROOT
ATOM      1  C   UNL     1       2.251  -4.839   3.749  0.00  0.00    +0.078 C 
ATOM      2  C   UNL     1       2.354  -6.100   4.220  0.00  0.00    +0.021 C 
ATOM      3  N   UNL     1       2.997  -6.363   5.396  0.00  0.00    -0.273 N 
ATOM      4  C   UNL     1       3.564  -5.420   6.159  0.00  0.00    +0.304 C 
ATOM      5  O   UNL     1       4.115  -5.752   7.190  0.00  0.00    -0.252 OA
ATOM      6  N   UNL     1       3.544  -4.116   5.820  0.00  0.00    -0.288 N 
ATOM      7  C   UNL     1       2.879  -3.728   4.565  0.00  0.00    +0.145 C 
ATOM      8  C   UNL     1       1.748  -7.236   3.437  0.00  0.00    +0.061 C 
ATOM      9  H   UNL     1       3.046  -7.285   5.695  0.00  0.00    +0.156 HD
ATOM     10  H   UNL     1       3.961  -3.449   6.388  0.00  0.00    +0.151 HD
ENDROOT
BRANCH   7  11
ATOM     11  C   UNL     1       1.799  -2.734   4.906  0.00  0.00    -0.005 A 
ATOM     12  C   UNL     1       1.088  -2.864   6.085  0.00  0.00    +0.056 A 
ATOM     13  C   UNL     1       0.094  -1.952   6.400  0.00  0.00    +0.167 A 
ATOM     14  C   UNL     1      -0.187  -0.904   5.526  0.00  0.00    +0.167 A 
ATOM     15  C   UNL     1       0.529  -0.779   4.347  0.00  0.00    +0.065 A 
ATOM     16  C   UNL     1       1.524  -1.690   4.041  0.00  0.00    +0.027 A 
ATOM     17 BR   UNL     1       2.505  -1.512   2.434  0.00  0.00    -0.050 Br
ATOM     18  O   UNL     1      -1.195  -0.153   6.057  0.00  0.00    -0.453 OA
ATOM     19  C   UNL     1      -1.804  -0.983   7.064  0.00  0.00    +0.466 C 
ATOM     20  O   UNL     1      -0.738  -1.857   7.478  0.00  0.00    -0.453 OA
ENDBRANCH   7  11
BRANCH   1  21
ATOM     21  C   UNL     1       1.586  -4.565   2.531  0.00  0.00    +0.339 C 
ATOM     22  O   UNL     1       0.445  -4.143   2.543  0.00  0.00    -0.245 OA
BRANCH  21  23
ATOM     23  O   UNL     1       2.216  -4.772   1.356  0.00  0.00    -0.461 OA
BRANCH  23  24
ATOM     24  C   UNL     1       1.484  -4.474   0.165  0.00  0.00    +0.232 C 
BRANCH  24  25
ATOM     25  C   UNL     1       2.336  -4.820  -1.057  0.00  0.00    +0.041 C 
BRANCH  25  27
ATOM     26  C   UNL     1       2.369  -4.940  -3.553  0.00  0.00    +0.004 C 
ATOM     27  C   UNL     1       1.518  -4.593  -2.330  0.00  0.00    -0.000 C 
ENDBRANCH  25  27
ENDBRANCH  24  25
ENDBRANCH  23  24
ENDBRANCH  21  23
ENDBRANCH   1  21
TORSDOF 6
