REMARK  Name = ZINC02782587
REMARK  7 active torsions:
REMARK  status: ('A' for Active; 'I' for Inactive)
REMARK    1  A    between atoms: C_1  and  C_2
REMARK    2  A    between atoms: N_5  and  C_7
REMARK    3  A    between atoms: C_7  and  C_9
REMARK    4  A    between atoms: C_7  and  C_10
REMARK    5  A    between atoms: N_12  and  C_13
REMARK    6  A    between atoms: C_14  and  C_24
REMARK    7  A    between atoms: C_19  and  C_23
REMARK                            x       y       z     vdW  Elec       q    Type
REMARK                         _______ _______ _______ _____ _____    ______ ____
ROOT
ATOM      1  C   UNL     1       4.457   5.574  -0.641  0.00  0.00    +0.242 C 
ATOM      2  O   UNL     1       3.311   5.929  -0.818  0.00  0.00    -0.273 OA
ATOM      3  N   UNL     1       4.723   4.296  -0.304  0.00  0.00    -0.277 N 
ATOM      4  H   UNL     1       5.640   4.013  -0.163  0.00  0.00    +0.155 HD
ENDROOT
BRANCH   3   5
ATOM      5  C   UNL     1       3.685   3.387  -0.160  0.00  0.00    +0.090 A 
ATOM      6  C   UNL     1       3.757   2.044   0.178  0.00  0.00    +0.084 A 
ATOM      7  C   UNL     1       2.510   1.304   0.265  0.00  0.00    -0.018 A 
ATOM      8  C   UNL     1       1.396   2.022  -0.000  0.00  0.00    -0.004 A 
ATOM      9  S   UNL     1       1.984   3.653  -0.358  0.00  0.00    -0.077 S 
ATOM     10  C   UNL     1      -0.019   1.531   0.011  0.00  0.00    +0.046 C 
ATOM     11  C   UNL     1       0.002  -0.004   0.002  0.00  0.00    -0.009 C 
ATOM     12  C   UNL     1       0.992  -0.490   1.064  0.00  0.00    +0.008 C 
ATOM     13  C   UNL     1       2.423  -0.174   0.625  0.00  0.00    +0.037 C 
ATOM     14  C   UNL     1      -1.397  -0.538   0.318  0.00  0.00    +0.008 C 
BRANCH   6  15
ATOM     15  C   UNL     1       5.015   1.409   0.432  0.00  0.00    +0.102 C 
ATOM     16  N   UNL     1       6.013   0.905   0.634  0.00  0.00    -0.191 NA
ENDBRANCH   6  15
ENDBRANCH   3   5
BRANCH   1  17
ATOM     17  C   UNL     1       5.585   6.562  -0.798  0.00  0.00    +0.190 C 
ATOM     18  C   UNL     1       6.348   6.679   0.523  0.00  0.00    +0.042 C 
BRANCH  17  23
ATOM     19  C   UNL     1       4.067  10.472  -3.556  0.00  0.00    +0.069 C 
ATOM     20  C   UNL     1       4.382   9.570  -2.390  0.00  0.00    +0.078 A 
ATOM     21  C   UNL     1       4.161   9.867  -1.040  0.00  0.00    +0.081 A 
ATOM     22  C   UNL     1       4.568   8.804  -0.308  0.00  0.00    +0.129 A 
ATOM     23  N   UNL     1       5.039   7.871  -1.164  0.00  0.00    -0.258 N 
ATOM     24  N   UNL     1       4.908   8.375  -2.465  0.00  0.00    -0.174 NA
ATOM     25 CL   UNL     1       3.478  11.336  -0.416  0.00  0.00    -0.080 Cl
ENDBRANCH  17  23
ENDBRANCH   1  17
TORSDOF 4
