REMARK  Name = ZINC03305784
REMARK  5 active torsions:
REMARK  status: ('A' for Active; 'I' for Inactive)
REMARK    1  A    between atoms: N_11  and  C_15
REMARK    2  A    between atoms: C_15  and  C_16
REMARK    3  A    between atoms: C_19  and  C_22
REMARK    4  A    between atoms: N_24  and  N_25
REMARK    5  A    between atoms: N_25  and  C_26
REMARK                            x       y       z     vdW  Elec       q    Type
REMARK                         _______ _______ _______ _____ _____    ______ ____
ROOT
ATOM      1  C   UNL     1       5.413  -0.061  -1.472  0.00  0.00    -0.028 A 
ATOM      2  C   UNL     1       5.989  -1.065  -2.229  0.00  0.00    +0.006 A 
ATOM      3  C   UNL     1       6.378  -0.817  -3.529  0.00  0.00    +0.013 A 
ATOM      4  C   UNL     1       6.201   0.455  -4.076  0.00  0.00    +0.038 A 
ATOM      5  C   UNL     1       5.625   1.466  -3.305  0.00  0.00    +0.013 A 
ATOM      6  C   UNL     1       5.234   1.202  -2.008  0.00  0.00    +0.006 A 
ENDROOT
BRANCH   4   7
ATOM      7  C   UNL     1       6.623   0.731  -5.466  0.00  0.00    +0.260 C 
ATOM      8  O   UNL     1       6.468   1.839  -5.939  0.00  0.00    -0.269 OA
ATOM      9  N   UNL     1       7.179  -0.247  -6.208  0.00  0.00    -0.233 N 
ATOM     10  H   UNL     1       7.303  -1.132  -5.830  0.00  0.00    +0.173 HD
BRANCH   9  11
ATOM     11  N   UNL     1       7.578   0.014  -7.525  0.00  0.00    -0.271 N 
ATOM     12  H   UNL     1       7.455   0.898  -7.903  0.00  0.00    +0.169 HD
BRANCH  11  13
ATOM     13  C   UNL     1       8.152  -0.995  -8.290  0.00  0.00    +0.087 C 
ATOM     14  C   UNL     1       8.436  -0.778  -9.560  0.00  0.00    -0.051 C 
ATOM     15  C   UNL     1       8.263   0.590 -10.192  0.00  0.00    +0.036 C 
ATOM     16  C   UNL     1       9.640   1.035 -10.708  0.00  0.00    +0.031 C 
ATOM     17  C   UNL     1      10.318  -0.080 -11.441  0.00  0.00    -0.030 C 
ATOM     18  C   UNL     1      10.036  -1.336 -11.335  0.00  0.00    -0.027 C 
ATOM     19  C   UNL     1       8.945  -1.885 -10.459  0.00  0.00    +0.059 C 
ENDBRANCH  11  13
ENDBRANCH   9  11
ENDBRANCH   4   7
BRANCH   1  20
ATOM     20  C   UNL     1       4.984  -0.341  -0.054  0.00  0.00    +0.166 C 
BRANCH  20  31
ATOM     21  C   UNL     1       1.120   2.025  -0.021  0.00  0.00    +0.002 A 
ATOM     22  C   UNL     1      -0.060   1.340  -0.015  0.00  0.00    +0.009 A 
ATOM     23  C   UNL     1      -0.028  -0.065  -0.020  0.00  0.00    -0.014 A 
ATOM     24  C   UNL     1      -1.185  -0.861  -0.016  0.00  0.00    +0.009 A 
ATOM     25  C   UNL     1      -1.072  -2.220  -0.022  0.00  0.00    +0.003 A 
ATOM     26  C   UNL     1       0.180  -2.846  -0.032  0.00  0.00    +0.029 A 
ATOM     27  C   UNL     1       1.302  -2.103  -0.036  0.00  0.00    +0.118 A 
ATOM     28  C   UNL     1       1.229  -0.705  -0.031  0.00  0.00    +0.031 A 
ATOM     29  C   UNL     1       2.435  -0.007  -0.036  0.00  0.00    +0.061 A 
ATOM     30  C   UNL     1       2.353   1.385  -0.031  0.00  0.00    +0.025 A 
ATOM     31  N   UNL     1       3.593  -0.801  -0.047  0.00  0.00    -0.198 N 
ATOM     32  S   UNL     1       3.049  -2.387  -0.049  0.00  0.00    +0.076 S 
ATOM     33  O   UNL     1       3.403  -2.969   1.199  0.00  0.00    -0.150 OA
ATOM     34  O   UNL     1       3.386  -2.961  -1.304  0.00  0.00    -0.150 OA
ENDBRANCH  20  31
ENDBRANCH   1  20
TORSDOF 5
