REMARK  Name = ZINC13668131
REMARK  5 active torsions:
REMARK  status: ('A' for Active; 'I' for Inactive)
REMARK    1  A    between atoms: C_1  and  C_2
REMARK    2  A    between atoms: C_2  and  N_3
REMARK    3  A    between atoms: N_13  and  C_14
REMARK    4  A    between atoms: C_14  and  C_16
REMARK    5  A    between atoms: N_19  and  C_21
REMARK                            x       y       z     vdW  Elec       q    Type
REMARK                         _______ _______ _______ _____ _____    ______ ____
ROOT
ATOM      1  N   UNL     1       3.486   2.225  -0.108  0.00  0.00    -0.320 N 
ATOM      2  C   UNL     1       2.433   1.368   0.153  0.00  0.00    +0.072 A 
ATOM      3  C   UNL     1       1.161   1.948   0.053  0.00  0.00    +0.040 A 
ATOM      4  C   UNL     1       0.006   1.238   0.281  0.00  0.00    +0.017 A 
ATOM      5  C   UNL     1       0.083  -0.101   0.622  0.00  0.00    +0.002 A 
ATOM      6  C   UNL     1       1.325  -0.702   0.728  0.00  0.00    +0.017 A 
ATOM      7  C   UNL     1       2.482   0.008   0.501  0.00  0.00    +0.042 A 
ATOM      8 BR   UNL     1       4.156  -0.857   0.659  0.00  0.00    -0.048 Br
ATOM      9  S   UNL     1       1.514   3.630  -0.393  0.00  0.00    -0.052 S 
ATOM     10  C   UNL     1       3.244   3.523  -0.433  0.00  0.00    +0.167 A 
ATOM     11  N   UNL     1       4.122   4.480  -0.714  0.00  0.00    -0.151 NA
ENDROOT
BRANCH   1  13
ATOM     12  C   UNL     1       5.774   2.641  -0.867  0.00  0.00    +0.027 C 
ATOM     13  C   UNL     1       4.865   1.734  -0.036  0.00  0.00    +0.121 C 
ENDBRANCH   1  13
BRANCH  11  14
ATOM     14  C   UNL     1       3.696   5.711  -1.014  0.00  0.00    +0.290 C 
ATOM     15  O   UNL     1       2.502   5.956  -1.030  0.00  0.00    -0.266 OA
BRANCH  14  16
ATOM     16  C   UNL     1       4.674   6.777  -1.327  0.00  0.00    +0.149 A 
ATOM     17  C   UNL     1       4.378   8.118  -1.667  0.00  0.00    +0.054 A 
ATOM     18  C   UNL     1       5.577   8.715  -1.861  0.00  0.00    +0.109 A 
ATOM     19  N   UNL     1       6.528   7.778  -1.658  0.00  0.00    -0.274 N 
ATOM     20  N   UNL     1       5.986   6.656  -1.348  0.00  0.00    -0.167 NA
ATOM     21  C   UNL     1       7.970   8.009  -1.774  0.00  0.00    +0.172 C 
ENDBRANCH  14  16
ENDBRANCH  11  14
TORSDOF 3
