REMARK  Name = ZINC45773020
REMARK  9 active torsions:
REMARK  status: ('A' for Active; 'I' for Inactive)
REMARK    1  A    between atoms: C_1  and  C_2
REMARK    2  A    between atoms: C_5  and  C_9
REMARK    3  A    between atoms: C_11  and  C_14
REMARK    4  A    between atoms: C_14  and  N_15
REMARK    5  A    between atoms: C_18  and  C_22
REMARK    6  A    between atoms: C_18  and  C_23
REMARK    7  A    between atoms: C_26  and  C_29
REMARK    8  A    between atoms: C_29  and  C_30
REMARK    9  A    between atoms: C_29  and  C_31
REMARK                            x       y       z     vdW  Elec       q    Type
REMARK                         _______ _______ _______ _____ _____    ______ ____
ROOT
ATOM      1  N   UNL     1      -1.270  -7.888   1.938  0.00  0.00    -0.215 N 
ATOM      2  C   UNL     1      -1.992  -7.403   2.967  0.00  0.00    +0.251 C 
ATOM      3  O   UNL     1      -1.638  -6.583   3.787  0.00  0.00    -0.272 OA
ATOM      4  C   UNL     1      -3.337  -8.097   2.887  0.00  0.00    +0.135 C 
ATOM      5  N   UNL     1      -3.205  -8.975   1.712  0.00  0.00    -0.281 N 
ATOM      6  C   UNL     1      -1.967  -8.779   1.223  0.00  0.00    +0.310 C 
ATOM      7  O   UNL     1      -1.530  -9.350   0.243  0.00  0.00    -0.252 OA
ATOM      8  C   UNL     1      -3.593  -8.923   4.150  0.00  0.00    +0.047 C 
ATOM      9  H   UNL     1      -3.880  -9.574   1.357  0.00  0.00    +0.152 HD
ENDROOT
BRANCH   4  10
ATOM     10  C   UNL     1      -4.440  -7.092   2.678  0.00  0.00    -0.015 A 
ATOM     11  C   UNL     1      -4.309  -5.808   3.173  0.00  0.00    +0.006 A 
ATOM     12  C   UNL     1      -5.321  -4.886   2.981  0.00  0.00    +0.004 A 
ATOM     13  C   UNL     1      -6.463  -5.247   2.292  0.00  0.00    -0.045 A 
ATOM     14  C   UNL     1      -6.594  -6.531   1.796  0.00  0.00    +0.004 A 
ATOM     15  C   UNL     1      -5.581  -7.452   1.984  0.00  0.00    +0.006 A 
BRANCH  13  16
ATOM     16  C   UNL     1      -7.567  -4.242   2.083  0.00  0.00    +0.013 C 
ATOM     17  C   UNL     1      -7.792  -4.037   0.584  0.00  0.00    +0.012 C 
ATOM     18  C   UNL     1      -8.855  -4.758   2.727  0.00  0.00    +0.012 C 
ENDBRANCH  13  16
ENDBRANCH   4  10
BRANCH   1  19
ATOM     19  C   UNL     1       0.105  -7.486   1.635  0.00  0.00    +0.216 C 
BRANCH  19  22
ATOM     20  C   UNL     1       0.061  -4.258  -0.024  0.00  0.00    +0.202 A 
ATOM     21  N   UNL     1       0.071  -5.050   1.063  0.00  0.00    -0.190 NA
ATOM     22  C   UNL     1       0.088  -6.301   0.703  0.00  0.00    +0.246 A 
ATOM     23  O   UNL     1       0.089  -6.358  -0.635  0.00  0.00    -0.336 OA
ATOM     24  N   UNL     1       0.065  -5.015  -1.093  0.00  0.00    -0.056 NA
BRANCH  20  29
ATOM     25  C   UNL     1      -0.018   1.503   0.010  0.00  0.00    +0.047 C 
ATOM     26  C   UNL     1       0.002  -0.004   0.002  0.00  0.00    -0.015 A 
ATOM     27  C   UNL     1       0.006  -0.687  -1.201  0.00  0.00    +0.007 A 
ATOM     28  C   UNL     1       0.025  -2.067  -1.215  0.00  0.00    +0.012 A 
ATOM     29  C   UNL     1       0.041  -2.774  -0.014  0.00  0.00    +0.025 A 
ATOM     30  C   UNL     1       0.037  -2.083   1.196  0.00  0.00    +0.050 A 
ATOM     31  C   UNL     1       0.023  -0.701   1.199  0.00  0.00    +0.127 A 
ATOM     32  F   UNL     1       0.025  -0.029   2.371  0.00  0.00    -0.205 F 
ENDBRANCH  20  29
ENDBRANCH  19  22
ENDBRANCH   1  19
TORSDOF 5
