REMARK  Name = ZINC32093982
REMARK  2 active torsions:
REMARK  status: ('A' for Active; 'I' for Inactive)
REMARK    1  A    between atoms: N_20  and  C_21
REMARK    2  A    between atoms: C_21  and  C_22
REMARK                            x       y       z     vdW  Elec       q    Type
REMARK                         _______ _______ _______ _____ _____    ______ ____
ROOT
ATOM      1  C   UNL     1      -0.017   1.375   0.010  0.00  0.00    +0.002 A 
ATOM      2  C   UNL     1       1.161   2.116   0.002  0.00  0.00    +0.007 A 
ATOM      3  C   UNL     1       2.345   1.411  -0.013  0.00  0.00    -0.005 A 
ATOM      4  C   UNL     1       2.378   0.011  -0.021  0.00  0.00    +0.056 A 
ATOM      5  C   UNL     1       1.189  -0.722  -0.013  0.00  0.00    +0.062 A 
ATOM      6  C   UNL     1       0.002  -0.004   0.002  0.00  0.00    +0.022 A 
ATOM      7 CL   UNL     1       1.197  -2.458  -0.022  0.00  0.00    -0.082 Cl
ATOM      8  N   UNL     1       3.687  -0.439  -0.036  0.00  0.00    -0.283 N 
ATOM      9  C   UNL     1       4.572   0.580  -0.041  0.00  0.00    +0.233 C 
ATOM     10  O   UNL     1       5.781   0.485  -0.056  0.00  0.00    -0.274 OA
ATOM     11  C   UNL     1       3.769   1.863  -0.026  0.00  0.00    +0.111 C 
ATOM     12  C   UNL     1       4.076   2.690  -1.272  0.00  0.00    +0.122 C 
ATOM     13  C   UNL     1       3.616   4.112  -1.109  0.00  0.00    +0.220 C 
ATOM     14  O   UNL     1       3.146   4.691  -2.066  0.00  0.00    -0.275 OA
ATOM     15  N   UNL     1       3.710   4.766   0.068  0.00  0.00    -0.270 N 
ATOM     16  C   UNL     1       4.062   4.038   1.204  0.00  0.00    +0.128 A 
ATOM     17  C   UNL     1       4.101   2.667   1.199  0.00  0.00    +0.032 A 
ATOM     18  C   UNL     1       4.482   2.247   2.465  0.00  0.00    +0.141 A 
ATOM     19  N   UNL     1       4.657   3.311   3.214  0.00  0.00    -0.177 NA
ATOM     20  N   UNL     1       4.388   4.450   2.437  0.00  0.00    -0.246 N 
ATOM     21  H   UNL     1       3.939  -1.376  -0.043  0.00  0.00    +0.155 HD
ATOM     22  H   UNL     1       3.538   5.719   0.122  0.00  0.00    +0.156 HD
ENDROOT
BRANCH  20  23
ATOM     23  C   UNL     1       4.454   5.840   2.894  0.00  0.00    +0.180 C 
BRANCH  23  24
ATOM     24  C   UNL     1       3.109   6.256   3.432  0.00  0.00    -0.026 A 
ATOM     25  C   UNL     1       2.168   6.815   2.587  0.00  0.00    +0.007 A 
ATOM     26  C   UNL     1       0.935   7.197   3.080  0.00  0.00    +0.020 A 
ATOM     27  C   UNL     1       0.642   7.019   4.421  0.00  0.00    +0.041 A 
ATOM     28  C   UNL     1       1.583   6.460   5.266  0.00  0.00    +0.020 A 
ATOM     29  C   UNL     1       2.814   6.074   4.771  0.00  0.00    +0.007 A 
ATOM     30 CL   UNL     1      -0.907   7.499   5.041  0.00  0.00    -0.084 Cl
ENDBRANCH  23  24
ENDBRANCH  20  23
TORSDOF 2
