REMARK  Name = ZINC64052286
REMARK  11 active torsions:
REMARK  status: ('A' for Active; 'I' for Inactive)
REMARK    1  A    between atoms: C_1  and  C_2
REMARK    2  A    between atoms: C_2  and  C_4
REMARK    3  A    between atoms: C_2  and  O_33
REMARK    4  A    between atoms: C_4  and  C_6
REMARK    5  A    between atoms: C_4  and  N_21
REMARK    6  A    between atoms: C_6  and  O_8
REMARK    7  A    between atoms: O_8  and  C_9
REMARK    8  A    between atoms: C_9  and  C_10
REMARK    9  A    between atoms: C_10  and  C_12
REMARK   10  A    between atoms: N_21  and  S_22
REMARK   11  A    between atoms: S_22  and  C_25
REMARK                            x       y       z     vdW  Elec       q    Type
REMARK                         _______ _______ _______ _____ _____    ______ ____
ROOT
ATOM      1  C   UNL     1       0.802  -0.582   1.205  0.00  0.00    +0.213 C 
ENDROOT
BRANCH   1   3
ATOM      2  C   UNL     1      -0.191   1.346  -0.035  0.00  0.00    +0.040 C 
ATOM      3  C   UNL     1      -0.070  -0.178   0.015  0.00  0.00    +0.141 C 
BRANCH   3   4
ATOM      4  O   UNL     1       0.529  -0.648  -1.195  0.00  0.00    -0.390 OA
ATOM      5  H   UNL     1       1.415  -0.296  -1.358  0.00  0.00    +0.210 HD
ENDBRANCH   3   4
ENDBRANCH   1   3
BRANCH   1   6
ATOM      6  C   UNL     1       0.938  -2.083   1.242  0.00  0.00    +0.329 C 
ATOM      7  O   UNL     1       0.553  -2.700   2.207  0.00  0.00    -0.249 OA
BRANCH   6   8
ATOM      8  O   UNL     1       1.486  -2.733   0.204  0.00  0.00    -0.455 OA
BRANCH   8   9
ATOM      9  C   UNL     1       1.583  -4.154   0.306  0.00  0.00    +0.311 C 
BRANCH   9  10
ATOM     10  C   UNL     1       2.220  -4.706  -0.943  0.00  0.00    +0.199 C 
ATOM     11  O   UNL     1       2.557  -3.955  -1.836  0.00  0.00    -0.289 OA
BRANCH  10  12
ATOM     12  C   UNL     1       2.423  -6.096  -1.077  0.00  0.00    +0.026 C 
ATOM     13  C   UNL     1       2.994  -6.759  -2.148  0.00  0.00    +0.006 A 
ATOM     14  C   UNL     1       3.528  -6.314  -3.381  0.00  0.00    +0.010 A 
ATOM     15  C   UNL     1       4.033  -7.204  -4.265  0.00  0.00    +0.001 A 
ATOM     16  C   UNL     1       4.056  -8.585  -4.015  0.00  0.00    +0.002 A 
ATOM     17  C   UNL     1       3.572  -9.112  -2.870  0.00  0.00    +0.026 A 
ATOM     18  C   UNL     1       3.003  -8.212  -1.852  0.00  0.00    +0.043 A 
ATOM     19  N   UNL     1       2.477  -8.443  -0.683  0.00  0.00    -0.380 N 
ATOM     20  C   UNL     1       2.069  -7.173  -0.075  0.00  0.00    +0.152 C 
ATOM     21  H   UNL     1       2.376  -9.318  -0.277  0.00  0.00    +0.160 HD
ENDBRANCH  10  12
ENDBRANCH   9  10
ENDBRANCH   8   9
ENDBRANCH   6   8
ENDBRANCH   1   6
BRANCH   1  22
ATOM     22  N   UNL     1       0.179  -0.118   2.447  0.00  0.00    -0.174 NA
ATOM     23  H   UNL     1      -0.788  -0.104   2.529  0.00  0.00    +0.149 HD
BRANCH  22  24
ATOM     24  S   UNL     1       1.124   0.384   3.711  0.00  0.00    +0.059 S 
ATOM     25  O   UNL     1       0.237   0.795   4.743  0.00  0.00    -0.153 OA
ATOM     26  O   UNL     1       2.107  -0.623   3.907  0.00  0.00    -0.153 OA
BRANCH  24  27
ATOM     27  C   UNL     1       1.982   1.828   3.179  0.00  0.00    +0.107 A 
ATOM     28  C   UNL     1       3.177   1.709   2.494  0.00  0.00    +0.030 A 
ATOM     29  C   UNL     1       3.851   2.841   2.077  0.00  0.00    +0.023 A 
ATOM     30  C   UNL     1       3.330   4.094   2.344  0.00  0.00    +0.059 A 
ATOM     31  C   UNL     1       2.132   4.214   3.028  0.00  0.00    +0.061 A 
ATOM     32  C   UNL     1       1.456   3.079   3.441  0.00  0.00    +0.050 A 
ATOM     33 CL   UNL     1       1.477   5.786   3.364  0.00  0.00    -0.082 Cl
ATOM     34 CL   UNL     1       4.176   5.516   1.820  0.00  0.00    -0.082 Cl
ENDBRANCH  24  27
ENDBRANCH  22  24
ENDBRANCH   1  22
TORSDOF 10
