REMARK  Name = ZINC65035064
REMARK  7 active torsions:
REMARK  status: ('A' for Active; 'I' for Inactive)
REMARK    1  A    between atoms: C_1  and  C_2
REMARK    2  A    between atoms: C_2  and  C_3
REMARK    3  A    between atoms: N_14  and  C_19
REMARK    4  A    between atoms: C_19  and  C_20
REMARK    5  A    between atoms: N_22  and  C_23
REMARK    6  A    between atoms: C_26  and  O_30
REMARK    7  A    between atoms: O_30  and  C_31
REMARK                            x       y       z     vdW  Elec       q    Type
REMARK                         _______ _______ _______ _____ _____    ______ ____
ROOT
ATOM      1  C   UNL     1       0.735  -0.473   1.236  0.00  0.00    -0.047 A 
ATOM      2  C   UNL     1       2.106  -0.685   1.180  0.00  0.00    +0.005 A 
ATOM      3  C   UNL     1       2.792  -1.149   2.281  0.00  0.00    +0.026 A 
ATOM      4  C   UNL     1       2.104  -1.409   3.463  0.00  0.00    +0.050 A 
ATOM      5  C   UNL     1       0.716  -1.192   3.513  0.00  0.00    +0.045 A 
ATOM      6  C   UNL     1       0.042  -0.717   2.389  0.00  0.00    +0.017 A 
ATOM      7  C   UNL     1       0.015  -1.476   4.774  0.00  0.00    +0.191 A 
ATOM      8  O   UNL     1      -1.189  -1.305   4.872  0.00  0.00    -0.287 OA
ATOM      9  C   UNL     1       0.773  -1.953   5.875  0.00  0.00    +0.002 A 
ATOM     10  H   UNL     1       3.712  -2.015   4.539  0.00  0.00    +0.166 HD
ATOM     11  C   UNL     1       0.040  -2.231   7.161  0.00  0.00    -0.037 C 
ATOM     12  N   UNL     1       0.830  -3.100   8.036  0.00  0.00    +0.388 N 
ATOM     13  C   UNL     1       2.164  -2.504   8.211  0.00  0.00    -0.072 C 
ATOM     14  C   UNL     1       2.935  -2.652   6.901  0.00  0.00    +0.035 C 
ATOM     15  C   UNL     1       2.102  -2.138   5.749  0.00  0.00    +0.020 A 
ATOM     16  N   UNL     1       2.753  -1.871   4.581  0.00  0.00    -0.358 N 
ATOM     17  H   UNL     1       0.919  -4.013   7.614  0.00  0.00    -0.081 HD
ENDROOT
BRANCH   1  19
ATOM     18  C   UNL     1      -0.006   1.565   0.035  0.00  0.00    +0.009 C 
ATOM     19  C   UNL     1       0.007   0.035   0.019  0.00  0.00    +0.032 C 
ENDBRANCH   1  19
BRANCH  12  20
ATOM     20  C   UNL     1       0.167  -3.220   9.341  0.00  0.00    +0.019 C 
BRANCH  20  21
ATOM     21  C   UNL     1      -1.155  -3.923   9.171  0.00  0.00    +0.201 C 
ATOM     22  O   UNL     1      -1.510  -4.289   8.071  0.00  0.00    -0.278 OA
ATOM     23  N   UNL     1      -1.942  -4.145  10.242  0.00  0.00    -0.287 N 
ATOM     24  H   UNL     1      -1.629  -3.914  11.131  0.00  0.00    +0.155 HD
BRANCH  23  25
ATOM     25  C   UNL     1      -3.213  -4.711  10.072  0.00  0.00    +0.035 A 
ATOM     26  C   UNL     1      -3.421  -5.669   9.088  0.00  0.00    +0.027 A 
ATOM     27  C   UNL     1      -4.673  -6.226   8.921  0.00  0.00    +0.049 A 
ATOM     28  C   UNL     1      -5.723  -5.830   9.735  0.00  0.00    +0.138 A 
ATOM     29  C   UNL     1      -5.517  -4.873  10.719  0.00  0.00    +0.084 A 
ATOM     30  C   UNL     1      -4.263  -4.318  10.890  0.00  0.00    +0.047 A 
ATOM     31 CL   UNL     1      -6.833  -4.377  11.737  0.00  0.00    -0.080 Cl
BRANCH  28  32
ATOM     32  O   UNL     1      -6.956  -6.380   9.570  0.00  0.00    -0.494 OA
ATOM     33  C   UNL     1      -7.097  -7.359   8.538  0.00  0.00    +0.277 C 
ENDBRANCH  28  32
ENDBRANCH  23  25
ENDBRANCH  20  21
ENDBRANCH  12  20
TORSDOF 5
