REMARK  Name = ZINC38493088
REMARK  4 active torsions:
REMARK  status: ('A' for Active; 'I' for Inactive)
REMARK    1  A    between atoms: C_1  and  C_2
REMARK    2  A    between atoms: C_4  and  C_14
REMARK    3  A    between atoms: N_16  and  C_17
REMARK    4  A    between atoms: C_18  and  C_22
REMARK                            x       y       z     vdW  Elec       q    Type
REMARK                         _______ _______ _______ _____ _____    ______ ____
ROOT
ATOM      1  C   UNL     1       2.028   0.017  -1.441  0.00  0.00    +0.262 C 
ATOM      2  O   UNL     1       2.957  -0.758  -1.526  0.00  0.00    -0.271 OA
ATOM      3  N   UNL     1       2.253   1.345  -1.466  0.00  0.00    -0.276 N 
ATOM      4  H   UNL     1       1.520   1.965  -1.327  0.00  0.00    +0.155 HD
ENDROOT
BRANCH   1   7
ATOM      5  C   UNL     1       0.144   1.208   0.458  0.00  0.00    +0.056 C 
ATOM      6  C   UNL     1       0.121  -0.286   0.127  0.00  0.00    +0.220 C 
ATOM      7  C   UNL     1       0.621  -0.506  -1.308  0.00  0.00    +0.299 C 
ATOM      8  O   UNL     1       0.599  -1.912  -1.579  0.00  0.00    -0.472 OA
ATOM      9  C   UNL     1       1.121  -2.727  -0.622  0.00  0.00    +0.163 A 
ATOM     10  C   UNL     1       1.465  -4.030  -0.951  0.00  0.00    +0.049 A 
ATOM     11  C   UNL     1       1.993  -4.871   0.010  0.00  0.00    +0.004 A 
ATOM     12  C   UNL     1       2.179  -4.416   1.302  0.00  0.00    +0.004 A 
ATOM     13  C   UNL     1       1.840  -3.119   1.637  0.00  0.00    +0.049 A 
ATOM     14  C   UNL     1       1.312  -2.269   0.676  0.00  0.00    +0.163 A 
ATOM     15  O   UNL     1       0.990  -0.992   1.019  0.00  0.00    -0.481 OA
ENDBRANCH   1   7
BRANCH   3  16
ATOM     16  C   UNL     1       3.537   1.828  -1.692  0.00  0.00    +0.082 A 
ATOM     17  C   UNL     1       3.975   3.145  -1.749  0.00  0.00    +0.036 A 
ATOM     18  C   UNL     1       5.376   3.358  -2.001  0.00  0.00    +0.020 A 
ATOM     19  C   UNL     1       6.170   2.282  -2.163  0.00  0.00    +0.048 A 
ATOM     20  S   UNL     1       5.043   0.914  -1.972  0.00  0.00    -0.081 S 
BRANCH  17  21
ATOM     21  C   UNL     1       3.046   4.273  -1.562  0.00  0.00    +0.112 A 
ATOM     22  N   UNL     1       1.751   4.246  -1.322  0.00  0.00    -0.239 NA
ATOM     23  C   UNL     1       1.020   5.370  -1.171  0.00  0.00    +0.079 A 
ATOM     24  C   UNL     1      -0.366   5.481  -0.912  0.00  0.00    +0.029 A 
ATOM     25  C   UNL     1      -0.959   6.710  -0.787  0.00  0.00    +0.002 A 
ATOM     26  C   UNL     1      -0.227   7.883  -0.908  0.00  0.00    +0.001 A 
ATOM     27  C   UNL     1       1.130   7.812  -1.161  0.00  0.00    +0.017 A 
ATOM     28  C   UNL     1       1.733   6.586  -1.288  0.00  0.00    +0.040 A 
ATOM     29  S   UNL     1       3.391   6.026  -1.596  0.00  0.00    -0.067 S 
ENDBRANCH  17  21
ENDBRANCH   3  16
TORSDOF 3
