REMARK  Name = ZINC48278774
REMARK  6 active torsions:
REMARK  status: ('A' for Active; 'I' for Inactive)
REMARK    1  A    between atoms: C_1  and  C_2
REMARK    2  A    between atoms: C_2  and  S_3
REMARK    3  A    between atoms: S_3  and  N_6
REMARK    4  A    between atoms: C_9  and  N_12
REMARK    5  A    between atoms: C_13  and  C_15
REMARK    6  A    between atoms: C_21  and  C_23
REMARK                            x       y       z     vdW  Elec       q    Type
REMARK                         _______ _______ _______ _____ _____    ______ ____
ROOT
ATOM      1  N   UNL     1       1.828  -6.003   2.946  0.00  0.00    -0.312 N 
ATOM      2  C   UNL     1       2.310  -7.142   2.410  0.00  0.00    +0.217 C 
ATOM      3  O   UNL     1       2.308  -7.294   1.207  0.00  0.00    -0.275 OA
ATOM      4  H   UNL     1       1.830  -5.881   3.908  0.00  0.00    +0.149 HD
ENDROOT
BRANCH   1   8
ATOM      5  N   UNL     1       0.835  -2.256   1.349  0.00  0.00    -0.181 NA
ATOM      6  C   UNL     1      -0.278  -3.020   1.930  0.00  0.00    +0.111 C 
ATOM      7  C   UNL     1       0.296  -4.099   2.854  0.00  0.00    +0.039 C 
ATOM      8  C   UNL     1       1.303  -4.949   2.075  0.00  0.00    +0.075 C 
ATOM      9  C   UNL     1       2.455  -4.064   1.593  0.00  0.00    +0.039 C 
ATOM     10  C   UNL     1       1.903  -2.984   0.651  0.00  0.00    +0.111 C 
BRANCH   5  11
ATOM     11  S   UNL     1       0.879  -0.605   1.472  0.00  0.00    +0.032 S 
ATOM     12  O   UNL     1       2.259  -0.273   1.388  0.00  0.00    -0.158 OA
ATOM     13  O   UNL     1       0.132  -0.308   2.643  0.00  0.00    -0.158 OA
BRANCH  11  15
ATOM     14  C   UNL     1      -0.019   1.526   0.010  0.00  0.00    +0.029 C 
ATOM     15  C   UNL     1       0.002  -0.004   0.002  0.00  0.00    +0.182 C 
ENDBRANCH  11  15
ENDBRANCH   5  11
ENDBRANCH   1   8
BRANCH   2  16
ATOM     16  C   UNL     1       2.851  -8.227   3.306  0.00  0.00    +0.088 C 
ATOM     17  C   UNL     1       1.748  -8.712   4.249  0.00  0.00    +0.040 C 
ATOM     18  C   UNL     1       2.187  -9.960   4.958  0.00  0.00    -0.030 C 
ATOM     19  C   UNL     1       3.173 -10.705   4.573  0.00  0.00    -0.030 C 
ATOM     20  C   UNL     1       4.021 -10.419   3.369  0.00  0.00    +0.038 C 
ATOM     21  C   UNL     1       3.323  -9.412   2.454  0.00  0.00    +0.060 C 
BRANCH  21  22
ATOM     22  C   UNL     1       4.285  -8.926   1.400  0.00  0.00    +0.084 A 
ATOM     23  N   UNL     1       5.425  -8.325   1.577  0.00  0.00    -0.244 NA
ATOM     24  C   UNL     1       6.202  -7.938   0.544  0.00  0.00    +0.078 A 
ATOM     25  C   UNL     1       7.451  -7.283   0.547  0.00  0.00    +0.029 A 
ATOM     26  C   UNL     1       8.074  -6.977  -0.624  0.00  0.00    +0.002 A 
ATOM     27  C   UNL     1       7.511  -7.294  -1.852  0.00  0.00    +0.001 A 
ATOM     28  C   UNL     1       6.288  -7.937  -1.895  0.00  0.00    +0.017 A 
ATOM     29  C   UNL     1       5.651  -8.250  -0.719  0.00  0.00    +0.039 A 
ATOM     30  S   UNL     1       4.130  -9.046  -0.271  0.00  0.00    -0.072 S 
ENDBRANCH  21  22
ENDBRANCH   2  16
TORSDOF 5
