REMARK  Name = ZINC63225175
REMARK  9 active torsions:
REMARK  status: ('A' for Active; 'I' for Inactive)
REMARK    1  A    between atoms: C_1  and  C_2
REMARK    2  A    between atoms: C_4  and  C_33
REMARK    3  A    between atoms: N_5  and  C_7
REMARK    4  A    between atoms: C_7  and  C_8
REMARK    5  A    between atoms: C_10  and  C_16
REMARK    6  A    between atoms: C_13  and  O_14
REMARK    7  A    between atoms: O_14  and  C_15
REMARK    8  A    between atoms: C_23  and  O_28
REMARK    9  A    between atoms: O_28  and  C_29
REMARK                            x       y       z     vdW  Elec       q    Type
REMARK                         _______ _______ _______ _____ _____    ______ ____
ROOT
ATOM      1  C   UNL     1       1.482  -3.681   1.774  0.00  0.00    +0.016 A 
ATOM      2  C   UNL     1       2.064  -3.331   2.978  0.00  0.00    +0.014 A 
ATOM      3  C   UNL     1       3.374  -3.685   3.243  0.00  0.00    -0.028 A 
ATOM      4  C   UNL     1       4.105  -4.391   2.305  0.00  0.00    +0.009 A 
ATOM      5  C   UNL     1       3.528  -4.744   1.101  0.00  0.00    +0.046 A 
ATOM      6  C   UNL     1       2.212  -4.394   0.834  0.00  0.00    +0.125 A 
ENDROOT
BRANCH   3   7
ATOM      7  C   UNL     1       4.006  -3.301   4.556  0.00  0.00    +0.111 C 
ATOM      8  C   UNL     1       4.003  -4.504   5.501  0.00  0.00    +0.128 C 
ATOM      9  C   UNL     1       4.805  -4.084   6.728  0.00  0.00    -0.035 C 
ATOM     10  C   UNL     1       4.026  -4.301   7.778  0.00  0.00    +0.003 A 
ATOM     11  C   UNL     1       4.264  -4.174   9.224  0.00  0.00    +0.055 A 
ATOM     12  C   UNL     1       3.219  -4.470  10.044  0.00  0.00    +0.121 A 
ATOM     13  C   UNL     1       1.957  -4.880   9.589  0.00  0.00    +0.047 A 
ATOM     14  C   UNL     1       1.631  -5.036   8.281  0.00  0.00    +0.029 A 
ATOM     15  C   UNL     1       2.683  -4.750   7.296  0.00  0.00    +0.043 A 
ATOM     16  N   UNL     1       2.662  -4.838   5.981  0.00  0.00    -0.376 N 
ATOM     17  C   UNL     1       6.174  -3.460   6.603  0.00  0.00    +0.048 C 
ATOM     18  C   UNL     1       6.048  -2.358   5.536  0.00  0.00    +0.086 C 
ATOM     19  N   UNL     1       5.402  -2.890   4.333  0.00  0.00    -0.307 NA
ATOM     20  H   UNL     1       5.942  -3.646   3.937  0.00  0.00    +0.123 HD
ATOM     21  H   UNL     1       1.903  -5.075   5.426  0.00  0.00    +0.160 HD
BRANCH  12  22
ATOM     22  O   UNL     1       3.409  -4.362  11.386  0.00  0.00    -0.495 OA
ATOM     23  C   UNL     1       2.298  -4.678  12.226  0.00  0.00    +0.277 C 
ENDBRANCH  12  22
ENDBRANCH   3   7
BRANCH   6  24
ATOM     24  O   UNL     1       1.640  -4.745  -0.348  0.00  0.00    -0.495 OA
ATOM     25  C   UNL     1       2.451  -5.478  -1.268  0.00  0.00    +0.277 C 
ENDBRANCH   6  24
BRANCH   1  26
ATOM     26  C   UNL     1       0.055  -3.295   1.486  0.00  0.00    +0.182 C 
BRANCH  26  31
ATOM     27  C   UNL     1      -0.018   1.503   0.010  0.00  0.00    +0.069 C 
ATOM     28  C   UNL     1       0.002  -0.004   0.002  0.00  0.00    +0.078 A 
ATOM     29  C   UNL     1       0.008  -0.818  -1.136  0.00  0.00    +0.084 A 
ATOM     30  C   UNL     1       0.028  -2.108  -0.725  0.00  0.00    +0.055 A 
ATOM     31  N   UNL     1       0.034  -2.109   0.625  0.00  0.00    -0.262 N 
ATOM     32  N   UNL     1       0.023  -0.777   1.058  0.00  0.00    -0.174 NA
ATOM     33  C   UNL     1       0.041  -3.324  -1.615  0.00  0.00    +0.067 C 
ATOM     34 CL   UNL     1      -0.008  -0.271  -2.784  0.00  0.00    -0.080 Cl
ENDBRANCH  26  31
ENDBRANCH   1  26
TORSDOF 5
