REMARK  Name = ZINC37614044
REMARK  8 active torsions:
REMARK  status: ('A' for Active; 'I' for Inactive)
REMARK    1  A    between atoms: C_1  and  C_2
REMARK    2  A    between atoms: C_2  and  C_3
REMARK    3  A    between atoms: C_3  and  N_4
REMARK    4  A    between atoms: C_5  and  C_7
REMARK    5  A    between atoms: C_10  and  C_12
REMARK    6  A    between atoms: C_17  and  O_18
REMARK    7  A    between atoms: O_18  and  C_19
REMARK    8  A    between atoms: C_19  and  C_20
REMARK                            x       y       z     vdW  Elec       q    Type
REMARK                         _______ _______ _______ _____ _____    ______ ____
ROOT
ATOM      1  C   UNL     1       0.308  -7.089   0.303  0.00  0.00    +0.049 A 
ATOM      2  C   UNL     1      -0.359  -6.644  -0.839  0.00  0.00    +0.014 A 
ATOM      3  C   UNL     1      -0.869  -7.558  -1.737  0.00  0.00    +0.001 A 
ATOM      4  C   UNL     1      -0.722  -8.916  -1.511  0.00  0.00    +0.004 A 
ATOM      5  C   UNL     1      -0.063  -9.368  -0.383  0.00  0.00    +0.046 A 
ATOM      6  C   UNL     1       0.460  -8.463   0.525  0.00  0.00    +0.131 A 
ENDROOT
BRANCH   1  10
ATOM      7  C   UNL     1       1.384  -4.120   2.227  0.00  0.00    +0.133 A 
ATOM      8  C   UNL     1       1.989  -4.811   3.242  0.00  0.00    +0.080 A 
ATOM      9  S   UNL     1       1.748  -6.413   2.786  0.00  0.00    -0.075 S 
ATOM     10  C   UNL     1       0.857  -6.114   1.269  0.00  0.00    +0.113 A 
ATOM     11  N   UNL     1       0.812  -4.795   1.239  0.00  0.00    -0.234 NA
BRANCH   7  13
ATOM     12  N   UNL     1       0.762  -1.976   1.234  0.00  0.00    -0.310 N 
ATOM     13  C   UNL     1       1.364  -2.647   2.235  0.00  0.00    +0.263 C 
ATOM     14  O   UNL     1       1.891  -2.037   3.146  0.00  0.00    -0.269 OA
ATOM     15  H   UNL     1       0.342  -2.462   0.507  0.00  0.00    +0.149 HD
BRANCH  12  16
ATOM     16  C   UNL     1       0.742  -0.511   1.242  0.00  0.00    +0.104 C 
BRANCH  16  18
ATOM     17  C   UNL     1      -0.019   1.526   0.010  0.00  0.00    +0.005 C 
ATOM     18  C   UNL     1       0.002  -0.004   0.002  0.00  0.00    +0.015 C 
ENDBRANCH  16  18
ENDBRANCH  12  16
ENDBRANCH   7  13
ENDBRANCH   1  10
BRANCH   6  19
ATOM     19  O   UNL     1       1.113  -8.906   1.631  0.00  0.00    -0.487 OA
BRANCH  19  20
ATOM     20  C   UNL     1       1.230 -10.321   1.791  0.00  0.00    +0.266 C 
BRANCH  20  21
ATOM     21  C   UNL     1       1.979 -10.622   3.064  0.00  0.00    +0.008 A 
ATOM     22  C   UNL     1       2.424  -9.587   3.865  0.00  0.00    +0.010 A 
ATOM     23  C   UNL     1       3.111  -9.863   5.032  0.00  0.00    +0.020 A 
ATOM     24  C   UNL     1       3.353 -11.175   5.400  0.00  0.00    +0.042 A 
ATOM     25  C   UNL     1       2.907 -12.210   4.599  0.00  0.00    +0.040 A 
ATOM     26  C   UNL     1       2.215 -11.934   3.433  0.00  0.00    +0.049 A 
ATOM     27 CL   UNL     1       1.651 -13.234   2.430  0.00  0.00    -0.083 Cl
ATOM     28 CL   UNL     1       4.216 -11.520   6.866  0.00  0.00    -0.083 Cl
ENDBRANCH  20  21
ENDBRANCH  19  20
ENDBRANCH   6  19
TORSDOF 7
