REMARK  Name = ZINC59433595
REMARK  7 active torsions:
REMARK  status: ('A' for Active; 'I' for Inactive)
REMARK    1  A    between atoms: C_1  and  C_2
REMARK    2  A    between atoms: C_5  and  N_9
REMARK    3  A    between atoms: C_6  and  C_8
REMARK    4  A    between atoms: C_15  and  C_16
REMARK    5  A    between atoms: C_18  and  C_29
REMARK    6  A    between atoms: N_19  and  C_22
REMARK    7  A    between atoms: C_20  and  C_21
REMARK                            x       y       z     vdW  Elec       q    Type
REMARK                         _______ _______ _______ _____ _____    ______ ____
ROOT
ATOM      1  N   UNL     1       0.629  -4.225  -0.065  0.00  0.00    -0.225 NA
ATOM      2  C   UNL     1       0.427  -4.859  -1.199  0.00  0.00    +0.166 C 
ATOM      3  N   UNL     1       0.430  -6.216  -1.434  0.00  0.00    -0.260 N 
ATOM      4  C   UNL     1       0.207  -6.689  -2.649  0.00  0.00    +0.256 C 
ATOM      5  O   UNL     1       0.205  -7.886  -2.874  0.00  0.00    -0.269 OA
ATOM      6  C   UNL     1      -0.040  -5.706  -3.716  0.00  0.00    +0.078 C 
ATOM      7  C   UNL     1      -0.294  -5.911  -5.035  0.00  0.00    +0.030 C 
ATOM      8  S   UNL     1       0.076  -4.171  -2.809  0.00  0.00    -0.049 S 
ATOM      9  H   UNL     1       0.598  -6.830  -0.703  0.00  0.00    +0.157 HD
ENDROOT
BRANCH   1  14
ATOM     10  C   UNL     1       0.107   1.391   0.162  0.00  0.00    +0.044 C 
ATOM     11  C   UNL     1       0.247  -0.108   0.102  0.00  0.00    -0.050 A 
ATOM     12  C   UNL     1      -0.757  -0.870  -0.470  0.00  0.00    +0.005 A 
ATOM     13  C   UNL     1      -0.636  -2.243  -0.529  0.00  0.00    +0.028 A 
ATOM     14  C   UNL     1       0.503  -2.863  -0.010  0.00  0.00    +0.069 A 
ATOM     15  C   UNL     1       1.512  -2.088   0.564  0.00  0.00    -0.025 A 
ATOM     16  C   UNL     1       1.380  -0.715   0.612  0.00  0.00    +0.008 A 
ATOM     17  C   UNL     1       2.745  -2.748   1.127  0.00  0.00    +0.046 C 
ENDBRANCH   1  14
BRANCH   7  18
ATOM     18  C   UNL     1      -0.520  -7.271  -5.536  0.00  0.00    -0.003 A 
ATOM     19  C   UNL     1      -1.170  -8.378  -4.823  0.00  0.00    +0.031 A 
ATOM     20  C   UNL     1      -1.159  -9.431  -5.658  0.00  0.00    +0.022 A 
ATOM     21  N   UNL     1      -0.556  -9.069  -6.830  0.00  0.00    -0.317 N 
ATOM     22  C   UNL     1      -0.171  -7.769  -6.775  0.00  0.00    +0.028 A 
ATOM     23  C   UNL     1       0.521  -7.004  -7.874  0.00  0.00    +0.064 C 
ATOM     24  C   UNL     1      -1.722 -10.795  -5.351  0.00  0.00    +0.064 C 
BRANCH  21  25
ATOM     25  C   UNL     1      -0.369  -9.916  -7.931  0.00  0.00    +0.047 A 
ATOM     26  C   UNL     1       0.914 -10.271  -8.325  0.00  0.00    +0.027 A 
ATOM     27  C   UNL     1       1.096 -11.106  -9.410  0.00  0.00    +0.022 A 
ATOM     28  C   UNL     1       0.001 -11.588 -10.105  0.00  0.00    +0.041 A 
ATOM     29  C   UNL     1      -1.279 -11.236  -9.714  0.00  0.00    +0.022 A 
ATOM     30  C   UNL     1      -1.467 -10.406  -8.626  0.00  0.00    +0.027 A 
ATOM     31 CL   UNL     1       0.233 -12.637 -11.469  0.00  0.00    -0.084 Cl
ENDBRANCH  21  25
ENDBRANCH   7  18
TORSDOF 3
