REMARK  Name = ZINC64965520
REMARK  7 active torsions:
REMARK  status: ('A' for Active; 'I' for Inactive)
REMARK    1  A    between atoms: C_1  and  C_2
REMARK    2  A    between atoms: N_5  and  S_8
REMARK    3  A    between atoms: S_8  and  C_11
REMARK    4  A    between atoms: N_17  and  C_23
REMARK    5  A    between atoms: C_23  and  C_24
REMARK    6  A    between atoms: N_26  and  C_27
REMARK    7  A    between atoms: N_26  and  C_28
REMARK                            x       y       z     vdW  Elec       q    Type
REMARK                         _______ _______ _______ _____ _____    ______ ____
ROOT
ATOM      1  C   UNL     1      -0.848  -5.181   1.659  0.00  0.00    +0.107 A 
ATOM      2  C   UNL     1      -1.772  -5.789   0.830  0.00  0.00    +0.030 A 
ATOM      3  C   UNL     1      -1.512  -7.038   0.293  0.00  0.00    +0.018 A 
ATOM      4  C   UNL     1      -0.319  -7.676   0.591  0.00  0.00    +0.029 A 
ATOM      5  C   UNL     1       0.614  -7.063   1.425  0.00  0.00    +0.052 A 
ATOM      6  C   UNL     1       0.348  -5.811   1.955  0.00  0.00    +0.053 A 
ATOM      7  N   UNL     1       1.819  -7.721   1.712  0.00  0.00    -0.261 N 
ATOM      8  C   UNL     1       2.572  -8.216   0.722  0.00  0.00    +0.221 C 
ATOM      9  O   UNL     1       3.503  -8.945   0.990  0.00  0.00    -0.275 OA
ATOM     10  C   UNL     1       2.285  -7.886  -0.713  0.00  0.00    +0.107 C 
ATOM     11  C   UNL     1       1.324  -8.922  -1.321  0.00  0.00    +0.083 C 
ATOM     12  S   UNL     1       0.039  -9.269  -0.075  0.00  0.00    -0.123 S 
ENDROOT
BRANCH   1  13
ATOM     13  S   UNL     1      -1.192  -3.591   2.337  0.00  0.00    +0.061 S 
ATOM     14  O   UNL     1      -0.404  -3.472   3.513  0.00  0.00    -0.153 OA
ATOM     15  O   UNL     1      -2.606  -3.452   2.350  0.00  0.00    -0.153 OA
BRANCH  13  20
ATOM     16  C   UNL     1      -0.045   1.626   0.253  0.00  0.00    +0.007 C 
ATOM     17  C   UNL     1      -0.040   0.097   0.219  0.00  0.00    -0.012 C 
ATOM     18  C   UNL     1      -1.481  -0.419   0.260  0.00  0.00    +0.020 C 
ATOM     19  C   UNL     1      -1.474  -1.949   0.191  0.00  0.00    +0.110 C 
ATOM     20  N   UNL     1      -0.616  -2.467   1.266  0.00  0.00    -0.177 NA
ATOM     21  C   UNL     1       0.762  -1.969   1.372  0.00  0.00    +0.110 C 
ATOM     22  C   UNL     1       0.730  -0.438   1.428  0.00  0.00    +0.020 C 
ENDBRANCH  13  20
ENDBRANCH   1  13
BRANCH   7  23
ATOM     23  C   UNL     1       2.257  -7.866   3.103  0.00  0.00    +0.209 C 
BRANCH  23  24
ATOM     24  C   UNL     1       1.711  -9.152   3.669  0.00  0.00    +0.237 C 
ATOM     25  O   UNL     1       1.024  -9.875   2.979  0.00  0.00    -0.274 OA
ATOM     26  N   UNL     1       1.986  -9.497   4.943  0.00  0.00    -0.273 N 
ATOM     27  C   UNL     1       2.909  -8.685   5.739  0.00  0.00    +0.138 C 
BRANCH  26  28
ATOM     28  C   UNL     1       1.391 -10.633   5.503  0.00  0.00    +0.036 A 
ATOM     29  C   UNL     1       1.723 -11.897   5.033  0.00  0.00    +0.023 A 
ATOM     30  C   UNL     1       1.133 -13.015   5.589  0.00  0.00    +0.002 A 
ATOM     31  C   UNL     1       0.214 -12.878   6.612  0.00  0.00    +0.000 A 
ATOM     32  C   UNL     1      -0.119 -11.621   7.082  0.00  0.00    +0.002 A 
ATOM     33  C   UNL     1       0.471 -10.498   6.535  0.00  0.00    +0.023 A 
ENDBRANCH  26  28
ENDBRANCH  23  24
ENDBRANCH   7  23
TORSDOF 5
