REMARK  Name = ZINC23832991
REMARK  7 active torsions:
REMARK  status: ('A' for Active; 'I' for Inactive)
REMARK    1  A    between atoms: C_1  and  C_2
REMARK    2  A    between atoms: C_16  and  O_19
REMARK    3  A    between atoms: O_19  and  C_20
REMARK    4  A    between atoms: C_20  and  C_21
REMARK    5  A    between atoms: N_23  and  C_24
REMARK    6  A    between atoms: C_27  and  N_30
REMARK    7  A    between atoms: C_31  and  C_33
REMARK                            x       y       z     vdW  Elec       q    Type
REMARK                         _______ _______ _______ _____ _____    ______ ____
ROOT
ATOM      1  C   UNL     1       5.913  11.600  -2.588  0.00  0.00    +0.028 C 
ATOM      2  C   UNL     1       6.004  10.579  -1.451  0.00  0.00    +0.072 C 
ATOM      3  C   UNL     1       7.303   9.780  -1.586  0.00  0.00    +0.022 C 
ATOM      4  C   UNL     1       7.399   8.774  -0.436  0.00  0.00    +0.003 C 
ATOM      5  C   UNL     1       7.334   9.526   0.896  0.00  0.00    +0.019 C 
ATOM      6  C   UNL     1       6.035  10.332   0.959  0.00  0.00    +0.107 C 
ATOM      7  N   UNL     1       5.991  11.280  -0.161  0.00  0.00    -0.312 N 
ATOM      8  C   UNL     1       4.889  12.117  -0.062  0.00  0.00    +0.122 A 
ATOM      9  C   UNL     1       5.080  13.506  -0.072  0.00  0.00    +0.044 A 
ATOM     10  C   UNL     1       4.006  14.340   0.013  0.00  0.00    +0.013 A 
ATOM     11  C   UNL     1       2.723  13.767   0.128  0.00  0.00    +0.004 A 
ATOM     12  C   UNL     1       1.575  14.568   0.237  0.00  0.00    +0.010 A 
ATOM     13  C   UNL     1       0.350  13.982   0.346  0.00  0.00    +0.004 A 
ATOM     14  C   UNL     1       0.218  12.596   0.351  0.00  0.00    +0.048 A 
ATOM     15  C   UNL     1       1.312  11.786   0.247  0.00  0.00    +0.147 A 
ATOM     16  C   UNL     1       2.596  12.358   0.138  0.00  0.00    +0.115 A 
ATOM     17  N   UNL     1       3.687  11.589   0.040  0.00  0.00    -0.228 NA
ENDROOT
BRANCH  15  18
ATOM     18  O   UNL     1       1.165  10.435   0.254  0.00  0.00    -0.481 OA
BRANCH  18  19
ATOM     19  C   UNL     1      -0.166   9.928   0.373  0.00  0.00    +0.325 C 
BRANCH  19  20
ATOM     20  C   UNL     1      -0.133   8.421   0.363  0.00  0.00    +0.255 C 
ATOM     21  O   UNL     1       0.927   7.839   0.263  0.00  0.00    -0.272 OA
ATOM     22  N   UNL     1      -1.280   7.721   0.464  0.00  0.00    -0.283 N 
ATOM     23  H   UNL     1      -2.232   8.247   0.632  0.00  0.00    +0.155 HD
BRANCH  22  24
ATOM     24  C   UNL     1      -1.260   6.325   0.356  0.00  0.00    +0.034 A 
ATOM     25  C   UNL     1      -2.317   5.660  -0.251  0.00  0.00    +0.025 A 
ATOM     26  C   UNL     1      -2.297   4.284  -0.357  0.00  0.00    +0.025 A 
ATOM     27  C   UNL     1      -1.220   3.564   0.143  0.00  0.00    +0.033 A 
ATOM     28  C   UNL     1      -0.165   4.229   0.755  0.00  0.00    +0.025 A 
ATOM     29  C   UNL     1      -0.183   5.605   0.857  0.00  0.00    +0.025 A 
BRANCH  27  30
ATOM     30  N   UNL     1      -1.200   2.168   0.035  0.00  0.00    -0.286 N 
ATOM     31  C   UNL     1      -0.024   1.510   0.015  0.00  0.00    +0.214 C 
ATOM     32  O   UNL     1       1.018   2.131  -0.018  0.00  0.00    -0.276 OA
ATOM     33  C   UNL     1      -0.002   0.004   0.028  0.00  0.00    +0.109 C 
ATOM     34  H   UNL     1      -2.144   1.608  -0.034  0.00  0.00    +0.155 HD
ENDBRANCH  27  30
ENDBRANCH  22  24
ENDBRANCH  19  20
ENDBRANCH  18  19
ENDBRANCH  15  18
TORSDOF 5
