REMARK  Name = ZINC39987462
REMARK  14 active torsions:
REMARK  status: ('A' for Active; 'I' for Inactive)
REMARK    1  A    between atoms: C_1  and  C_2
REMARK    2  A    between atoms: N_9  and  N_10
REMARK    3  A    between atoms: C_11  and  C_13
REMARK    4  A    between atoms: C_13  and  C_15
REMARK    5  A    between atoms: C_13  and  O_16
REMARK    6  A    between atoms: O_16  and  C_17
REMARK    7  A    between atoms: C_20  and  O_23
REMARK    8  A    between atoms: N_26  and  C_27
REMARK    9  A    between atoms: C_27  and  C_28
REMARK   10  A    between atoms: C_28  and  C_29
REMARK   11  A    between atoms: C_29  and  O_30
REMARK   12  A    between atoms: O_30  and  C_31
REMARK   13  A    between atoms: C_34  and  O_37
REMARK   14  A    between atoms: O_37  and  C_38
REMARK                            x       y       z     vdW  Elec       q    Type
REMARK                         _______ _______ _______ _____ _____    ______ ____
ROOT
ATOM      1  C   UNL     1       0.090   2.055   0.452  0.00  0.00    +0.044 C 
ATOM      2  C   UNL     1       0.304   0.567   0.347  0.00  0.00    -0.050 A 
ATOM      3  C   UNL     1       0.527  -0.014  -0.890  0.00  0.00    +0.005 A 
ATOM      4  C   UNL     1       0.725  -1.376  -1.002  0.00  0.00    +0.024 A 
ATOM      5  C   UNL     1       0.702  -2.180   0.133  0.00  0.00    +0.046 A 
ATOM      6  C   UNL     1       0.476  -1.588   1.382  0.00  0.00    +0.029 A 
ATOM      7  C   UNL     1       0.284  -0.215   1.485  0.00  0.00    +0.015 A 
ATOM      8  C   UNL     1       0.509  -2.685   2.377  0.00  0.00    +0.153 C 
ATOM      9  N   UNL     1       0.346  -2.592   3.674  0.00  0.00    -0.174 NA
ATOM     10  C   UNL     1       0.767  -3.907   1.588  0.00  0.00    +0.271 C 
ATOM     11  O   UNL     1       0.868  -5.037   2.030  0.00  0.00    -0.268 OA
ATOM     12  N   UNL     1       0.869  -3.551   0.296  0.00  0.00    -0.265 N 
ENDROOT
BRANCH   9  13
ATOM     13  N   UNL     1       0.409  -3.741   4.473  0.00  0.00    -0.203 N 
ATOM     14  C   UNL     1       0.241  -3.645   5.806  0.00  0.00    +0.273 C 
ATOM     15  O   UNL     1       0.035  -2.564   6.315  0.00  0.00    -0.270 OA
ATOM     16  H   UNL     1       0.574  -4.606   4.066  0.00  0.00    +0.177 HD
BRANCH  14  17
ATOM     17  C   UNL     1       0.309  -4.881   6.665  0.00  0.00    +0.257 C 
ATOM     18  C   UNL     1      -0.851  -5.814   6.310  0.00  0.00    +0.062 C 
BRANCH  17  19
ATOM     19  O   UNL     1       0.218  -4.511   8.042  0.00  0.00    -0.480 OA
BRANCH  19  20
ATOM     20  C   UNL     1       0.763  -5.365   8.949  0.00  0.00    +0.122 A 
ATOM     21  C   UNL     1       0.806  -5.016  10.291  0.00  0.00    +0.049 A 
ATOM     22  C   UNL     1       1.360  -5.884  11.212  0.00  0.00    +0.049 A 
ATOM     23  C   UNL     1       1.871  -7.104  10.796  0.00  0.00    +0.117 A 
ATOM     24  C   UNL     1       1.827  -7.453   9.454  0.00  0.00    +0.049 A 
ATOM     25  C   UNL     1       1.270  -6.587   8.533  0.00  0.00    +0.049 A 
BRANCH  23  26
ATOM     26  O   UNL     1       2.417  -7.958  11.702  0.00  0.00    -0.507 OA
ATOM     27  H   UNL     1       1.784  -8.579  12.088  0.00  0.00    +0.292 HD
ENDBRANCH  23  26
ENDBRANCH  19  20
ENDBRANCH  17  19
ENDBRANCH  14  17
ENDBRANCH   9  13
BRANCH  12  28
ATOM     28  C   UNL     1       1.123  -4.488  -0.800  0.00  0.00    +0.117 C 
BRANCH  28  29
ATOM     29  C   UNL     1       2.632  -4.621  -1.017  0.00  0.00    +0.060 C 
BRANCH  29  30
ATOM     30  C   UNL     1       2.898  -5.600  -2.163  0.00  0.00    +0.230 C 
BRANCH  30  31
ATOM     31  O   UNL     1       4.307  -5.725  -2.366  0.00  0.00    -0.492 OA
BRANCH  31  32
ATOM     32  C   UNL     1       4.716  -6.563  -3.355  0.00  0.00    +0.121 A 
ATOM     33  C   UNL     1       3.780  -7.246  -4.117  0.00  0.00    +0.049 A 
ATOM     34  C   UNL     1       4.197  -8.098  -5.122  0.00  0.00    +0.049 A 
ATOM     35  C   UNL     1       5.550  -8.270  -5.368  0.00  0.00    +0.120 A 
ATOM     36  C   UNL     1       6.487  -7.586  -4.607  0.00  0.00    +0.049 A 
ATOM     37  C   UNL     1       6.070  -6.731  -3.605  0.00  0.00    +0.049 A 
BRANCH  35  38
ATOM     38  O   UNL     1       5.960  -9.109  -6.357  0.00  0.00    -0.495 OA
ATOM     39  C   UNL     1       7.369  -9.238  -6.556  0.00  0.00    +0.277 C 
ENDBRANCH  35  38
ENDBRANCH  31  32
ENDBRANCH  30  31
ENDBRANCH  29  30
ENDBRANCH  28  29
ENDBRANCH  12  28
TORSDOF 11
