REMARK  Name = ZINC06547651
REMARK  11 active torsions:
REMARK  status: ('A' for Active; 'I' for Inactive)
REMARK    1  A    between atoms: C_1  and  C_2
REMARK    2  A    between atoms: C_2  and  O_3
REMARK    3  A    between atoms: O_3  and  C_4
REMARK    4  A    between atoms: C_4  and  C_6
REMARK    5  A    between atoms: C_6  and  C_8
REMARK    6  A    between atoms: C_6  and  N_20
REMARK    7  A    between atoms: C_8  and  C_10
REMARK    8  A    between atoms: C_8  and  O_19
REMARK    9  A    between atoms: C_14  and  N_16
REMARK   10  A    between atoms: N_20  and  S_21
REMARK   11  A    between atoms: S_21  and  C_24
REMARK                            x       y       z     vdW  Elec       q    Type
REMARK                         _______ _______ _______ _____ _____    ______ ____
ROOT
ATOM      1  C   UNL     1      -0.190   5.847   1.473  0.00  0.00    +0.217 C 
ENDROOT
BRANCH   1   2
ATOM      2  C   UNL     1      -1.520   5.427   2.042  0.00  0.00    +0.329 C 
ATOM      3  O   UNL     1      -2.305   6.263   2.425  0.00  0.00    -0.249 OA
BRANCH   2   4
ATOM      4  O   UNL     1      -1.834   4.124   2.123  0.00  0.00    -0.464 OA
BRANCH   4   6
ATOM      5  C   UNL     1      -3.310   2.273   2.694  0.00  0.00    +0.048 C 
ATOM      6  C   UNL     1      -3.133   3.793   2.682  0.00  0.00    +0.229 C 
ENDBRANCH   4   6
ENDBRANCH   2   4
ENDBRANCH   1   2
BRANCH   1   7
ATOM      7  N   UNL     1      -0.090   7.309   1.492  0.00  0.00    -0.173 NA
ATOM      8  H   UNL     1      -0.461   7.830   0.764  0.00  0.00    +0.149 HD
BRANCH   7   9
ATOM      9  S   UNL     1       0.658   8.070   2.759  0.00  0.00    +0.059 S 
ATOM     10  O   UNL     1       0.617   9.462   2.476  0.00  0.00    -0.153 OA
ATOM     11  O   UNL     1       0.107   7.518   3.947  0.00  0.00    -0.153 OA
BRANCH   9  12
ATOM     12  C   UNL     1       2.355   7.598   2.723  0.00  0.00    +0.106 A 
ATOM     13  C   UNL     1       3.265   8.349   2.001  0.00  0.00    +0.029 A 
ATOM     14  C   UNL     1       4.596   7.985   1.969  0.00  0.00    +0.011 A 
ATOM     15  C   UNL     1       5.026   6.855   2.667  0.00  0.00    -0.014 A 
ATOM     16  C   UNL     1       4.103   6.106   3.389  0.00  0.00    -0.033 A 
ATOM     17  C   UNL     1       2.776   6.480   3.421  0.00  0.00    +0.033 A 
ATOM     18  C   UNL     1       4.848   4.961   4.030  0.00  0.00    +0.071 C 
ATOM     19  C   UNL     1       6.289   5.116   3.612  0.00  0.00    -0.035 A 
ATOM     20  C   UNL     1       6.372   6.246   2.804  0.00  0.00    -0.014 A 
ATOM     21  C   UNL     1       7.610   6.620   2.276  0.00  0.00    +0.009 A 
ATOM     22  C   UNL     1       8.734   5.873   2.558  0.00  0.00    +0.001 A 
ATOM     23  C   UNL     1       8.641   4.751   3.363  0.00  0.00    +0.000 A 
ATOM     24  C   UNL     1       7.419   4.374   3.889  0.00  0.00    +0.004 A 
ENDBRANCH   9  12
ENDBRANCH   7   9
ENDBRANCH   1   7
BRANCH   1  25
ATOM     25  C   UNL     1      -0.070   5.347   0.032  0.00  0.00    +0.174 C 
BRANCH  25  26
ATOM     26  C   UNL     1      -0.050   3.840   0.023  0.00  0.00    -0.015 A 
ATOM     27  C   UNL     1      -1.238   3.133   0.030  0.00  0.00    +0.006 A 
ATOM     28  C   UNL     1      -1.219   1.751   0.017  0.00  0.00    +0.003 A 
ATOM     29  C   UNL     1      -0.013   1.076   0.008  0.00  0.00    +0.033 A 
ATOM     30  C   UNL     1       1.175   1.783   0.000  0.00  0.00    +0.127 A 
ATOM     31  C   UNL     1       1.156   3.166   0.008  0.00  0.00    +0.039 A 
BRANCH  30  32
ATOM     32  N   UNL     1       2.467   1.060  -0.016  0.00  0.00    +0.056 N 
ATOM     33  O   UNL     1       2.483  -0.157  -0.023  0.00  0.00    -0.126 OA
ATOM     34  O   UNL     1       3.513   1.684  -0.022  0.00  0.00    -0.126 OA
ENDBRANCH  30  32
ENDBRANCH  25  26
BRANCH  25  35
ATOM     35  O   UNL     1      -1.188   5.813  -0.728  0.00  0.00    -0.385 OA
ATOM     36  H   UNL     1      -2.044   5.514  -0.392  0.00  0.00    +0.210 HD
ENDBRANCH  25  35
ENDBRANCH   1  25
TORSDOF 10
