REMARK  Name = ZINC40727427
REMARK  8 active torsions:
REMARK  status: ('A' for Active; 'I' for Inactive)
REMARK    1  A    between atoms: C_1  and  C_2
REMARK    2  A    between atoms: C_2  and  C_3
REMARK    3  A    between atoms: C_2  and  C_4
REMARK    4  A    between atoms: C_7  and  O_10
REMARK    5  A    between atoms: O_10  and  C_11
REMARK    6  A    between atoms: C_12  and  N_24
REMARK    7  A    between atoms: C_13  and  S_17
REMARK    8  A    between atoms: S_17  and  C_18
REMARK                            x       y       z     vdW  Elec       q    Type
REMARK                         _______ _______ _______ _____ _____    ______ ____
ROOT
ATOM      1  C   UNL     1      -5.718  -2.627  -1.054  0.00  0.00    +0.246 A 
ATOM      2  C   UNL     1      -7.045  -3.044  -1.144  0.00  0.00    +0.120 A 
ATOM      3  C   UNL     1      -7.435  -3.764  -2.276  0.00  0.00    +0.129 A 
ATOM      4  N   UNL     1      -6.531  -4.022  -3.219  0.00  0.00    -0.227 NA
ATOM      5  C   UNL     1      -5.287  -3.608  -3.093  0.00  0.00    +0.226 A 
ATOM      6  N   UNL     1      -4.881  -2.922  -2.044  0.00  0.00    -0.199 NA
ENDROOT
BRANCH   2   7
ATOM      7  N   UNL     1      -7.964  -2.750  -0.125  0.00  0.00    -0.352 N 
ATOM      8  H   UNL     1      -7.679  -2.249   0.656  0.00  0.00    +0.143 HD
ATOM      9  H   UNL     1      -8.884  -3.047  -0.201  0.00  0.00    +0.143 HD
ENDBRANCH   2   7
BRANCH   1  10
ATOM     10  O   UNL     1      -5.289  -1.925   0.025  0.00  0.00    -0.436 OA
BRANCH  10  14
ATOM     11  C   UNL     1      -1.421  -0.489  -0.012  0.00  0.00    -0.045 A 
ATOM     12  C   UNL     1      -2.401   0.148  -0.751  0.00  0.00    +0.007 A 
ATOM     13  C   UNL     1      -3.697  -0.331  -0.740  0.00  0.00    +0.046 A 
ATOM     14  C   UNL     1      -4.015  -1.452   0.012  0.00  0.00    +0.130 A 
ATOM     15  C   UNL     1      -3.030  -2.090   0.753  0.00  0.00    +0.046 A 
ATOM     16  C   UNL     1      -1.734  -1.610   0.735  0.00  0.00    +0.007 A 
BRANCH  11  18
ATOM     17  C   UNL     1       0.529   0.016  -1.457  0.00  0.00    +0.012 C 
ATOM     18  C   UNL     1      -0.009   0.035  -0.025  0.00  0.00    +0.013 C 
ATOM     19  C   UNL     1       0.008   1.470   0.507  0.00  0.00    +0.012 C 
ENDBRANCH  11  18
ENDBRANCH  10  14
ENDBRANCH   1  10
BRANCH   3  20
ATOM     20  S   UNL     1      -9.097  -4.323  -2.453  0.00  0.00    -0.068 S 
BRANCH  20  21
ATOM     21  C   UNL     1      -9.070  -5.277  -3.934  0.00  0.00    +0.014 A 
ATOM     22  C   UNL     1      -8.708  -6.618  -3.892  0.00  0.00    +0.015 A 
ATOM     23  C   UNL     1      -8.688  -7.363  -5.054  0.00  0.00    +0.001 A 
ATOM     24  C   UNL     1      -9.029  -6.776  -6.260  0.00  0.00    +0.000 A 
ATOM     25  C   UNL     1      -9.390  -5.442  -6.306  0.00  0.00    +0.001 A 
ATOM     26  C   UNL     1      -9.418  -4.693  -5.146  0.00  0.00    +0.015 A 
ENDBRANCH  20  21
ENDBRANCH   3  20
TORSDOF 6
