REMARK  Name = ZINC08932802
REMARK  12 active torsions:
REMARK  status: ('A' for Active; 'I' for Inactive)
REMARK    1  A    between atoms: C_1  and  C_2
REMARK    2  A    between atoms: C_4  and  C_28
REMARK    3  A    between atoms: C_5  and  C_9
REMARK    4  A    between atoms: C_6  and  C_8
REMARK    5  A    between atoms: C_9  and  N_10
REMARK    6  A    between atoms: C_11  and  C_27
REMARK    7  A    between atoms: C_12  and  C_18
REMARK    8  A    between atoms: C_13  and  C_16
REMARK    9  A    between atoms: C_14  and  C_15
REMARK   10  A    between atoms: C_18  and  N_57
REMARK   11  A    between atoms: C_19  and  C_20
REMARK   12  A    between atoms: C_19  and  N_57
REMARK                            x       y       z     vdW  Elec       q    Type
REMARK                         _______ _______ _______ _____ _____    ______ ____
ROOT
ATOM      1  N   UNL     1      -5.314  -0.107   5.067  0.00  0.00    -0.343 N 
ATOM      2  C   UNL     1      -5.442  -0.111   3.708  0.00  0.00    +0.018 A 
ATOM      3  C   UNL     1      -4.528  -0.945   3.183  0.00  0.00    -0.030 A 
ATOM      4  C   UNL     1      -3.780  -1.504   4.315  0.00  0.00    +0.085 A 
ATOM      5  C   UNL     1      -4.321  -0.933   5.446  0.00  0.00    +0.031 A 
ATOM      6  C   UNL     1      -3.881  -1.192   6.864  0.00  0.00    +0.064 C 
ATOM      7  C   UNL     1      -6.448   0.690   2.923  0.00  0.00    +0.064 C 
ENDROOT
BRANCH   4   8
ATOM      8  C   UNL     1      -2.674  -2.473   4.254  0.00  0.00    +0.388 C 
ATOM      9  O   UNL     1      -1.527  -2.081   4.163  0.00  0.00    -0.241 OA
ATOM     10  O   UNL     1      -2.934  -3.795   4.299  0.00  0.00    -0.241 OA
ENDBRANCH   4   8
BRANCH   1  11
ATOM     11  C   UNL     1      -6.140   0.684   5.982  0.00  0.00    +0.157 C 
BRANCH  11  16
ATOM     12  C   UNL     1     -11.434  -1.616   6.276  0.00  0.00    +0.044 C 
ATOM     13  C   UNL     1     -10.053  -1.016   6.200  0.00  0.00    -0.050 A 
ATOM     14  C   UNL     1      -9.007  -1.599   6.889  0.00  0.00    +0.007 A 
ATOM     15  C   UNL     1      -7.741  -1.049   6.819  0.00  0.00    -0.045 A 
ATOM     16  C   UNL     1      -7.521   0.084   6.059  0.00  0.00    -0.022 A 
ATOM     17  C   UNL     1      -8.568   0.671   5.373  0.00  0.00    -0.045 A 
ATOM     18  C   UNL     1      -9.833   0.118   5.439  0.00  0.00    +0.007 A 
ATOM     19  C   UNL     1      -8.330   1.910   4.550  0.00  0.00    +0.044 C 
ATOM     20  C   UNL     1      -6.600  -1.685   7.571  0.00  0.00    +0.044 C 
ENDBRANCH  11  16
ENDBRANCH   1  11
BRANCH   3  21
ATOM     21  C   UNL     1      -4.318  -1.250   1.722  0.00  0.00    -0.044 C 
BRANCH  21  22
ATOM     22  N   UNL     1      -3.342  -0.295   1.165  0.00  0.00    +0.384 N 
ATOM     23  H   UNL     1      -2.453  -0.385   1.671  0.00  0.00    -0.085 HD
ATOM     24  H   UNL     1      -3.702   0.660   1.273  0.00  0.00    -0.085 HD
BRANCH  22  25
ATOM     25  C   UNL     1      -3.116  -0.571  -0.267  0.00  0.00    -0.046 C 
BRANCH  25  26
ATOM     26  C   UNL     1      -2.116   0.418  -0.809  0.00  0.00    -0.062 A 
ATOM     27  C   UNL     1      -0.766   0.126  -0.773  0.00  0.00    +0.002 A 
ATOM     28  C   UNL     1       0.152   1.029  -1.274  0.00  0.00    +0.003 A 
ATOM     29  C   UNL     1      -0.279   2.229  -1.807  0.00  0.00    +0.038 A 
ATOM     30  C   UNL     1      -1.631   2.526  -1.839  0.00  0.00    +0.124 A 
ATOM     31  C   UNL     1      -2.550   1.620  -1.336  0.00  0.00    +0.040 A 
ATOM     32  F   UNL     1      -2.054   3.699  -2.359  0.00  0.00    -0.205 F 
ENDBRANCH  25  26
ENDBRANCH  22  25
ENDBRANCH  21  22
ENDBRANCH   3  21
TORSDOF 7
