REMARK  Name = ZINC02741647
REMARK  5 active torsions:
REMARK  status: ('A' for Active; 'I' for Inactive)
REMARK    1  A    between atoms: C_1  and  C_2
REMARK    2  A    between atoms: C_2  and  C_3
REMARK    3  A    between atoms: C_3  and  S_4
REMARK    4  A    between atoms: S_4  and  C_5
REMARK    5  A    between atoms: C_18  and  C_21
REMARK                            x       y       z     vdW  Elec       q    Type
REMARK                         _______ _______ _______ _____ _____    ______ ____
ROOT
ATOM      1  C   UNL     1       1.641  -2.747   2.702  0.00  0.00    +0.212 A 
ATOM      2  N   UNL     1       1.844  -4.028   2.997  0.00  0.00    -0.184 NA
ATOM      3  C   UNL     1       2.500  -4.341   4.102  0.00  0.00    +0.248 A 
ATOM      4  C   UNL     1       2.961  -3.298   4.936  0.00  0.00    +0.156 A 
ATOM      5  N   UNL     1       2.729  -2.043   4.582  0.00  0.00    -0.141 NA
ATOM      6  N   UNL     1       2.092  -1.782   3.493  0.00  0.00    -0.122 NA
ATOM      7  C   UNL     1       3.683  -3.626   6.183  0.00  0.00    +0.028 A 
ATOM      8  C   UNL     1       4.875  -2.998   6.520  0.00  0.00    +0.012 A 
ATOM      9  C   UNL     1       5.512  -3.323   7.702  0.00  0.00    +0.001 A 
ATOM     10  C   UNL     1       4.969  -4.271   8.553  0.00  0.00    +0.002 A 
ATOM     11  C   UNL     1       3.786  -4.907   8.227  0.00  0.00    +0.024 A 
ATOM     12  C   UNL     1       3.140  -4.597   7.045  0.00  0.00    +0.039 A 
ATOM     13  N   UNL     1       1.961  -5.247   6.667  0.00  0.00    -0.305 N 
ATOM     14  C   UNL     1       1.997  -6.166   5.533  0.00  0.00    +0.301 C 
ATOM     15  O   UNL     1       2.736  -5.630   4.441  0.00  0.00    -0.448 OA
ATOM     16  H   UNL     1       1.134  -5.090   7.149  0.00  0.00    +0.150 HD
ENDROOT
BRANCH  14  17
ATOM     17  C   UNL     1       2.635  -7.459   5.969  0.00  0.00    +0.049 A 
ATOM     18  C   UNL     1       2.419  -8.715   5.509  0.00  0.00    +0.018 A 
ATOM     19  C   UNL     1       3.127  -9.764   6.064  0.00  0.00    +0.023 A 
ATOM     20  C   UNL     1       4.019  -9.505   7.053  0.00  0.00    +0.055 A 
ATOM     21  S   UNL     1       3.879  -7.733   7.220  0.00  0.00    -0.081 S 
ATOM     22 BR   UNL     1       5.127 -10.707   8.004  0.00  0.00    -0.043 Br
ENDBRANCH  14  17
BRANCH   1  23
ATOM     23  S   UNL     1       0.767  -2.325   1.232  0.00  0.00    -0.084 S 
BRANCH  23  24
ATOM     24  C   UNL     1       0.742  -0.511   1.242  0.00  0.00    +0.077 C 
BRANCH  24  26
ATOM     25  C   UNL     1      -0.019   1.526   0.010  0.00  0.00    +0.004 C 
ATOM     26  C   UNL     1       0.002  -0.004   0.002  0.00  0.00    +0.008 C 
ENDBRANCH  24  26
ENDBRANCH  23  24
ENDBRANCH   1  23
TORSDOF 4
