REMARK  Name = ZINC39505917
REMARK  6 active torsions:
REMARK  status: ('A' for Active; 'I' for Inactive)
REMARK    1  A    between atoms: C_1  and  C_2
REMARK    2  A    between atoms: C_2  and  C_3
REMARK    3  A    between atoms: C_2  and  S_4
REMARK    4  A    between atoms: S_4  and  C_7
REMARK    5  A    between atoms: C_14  and  C_19
REMARK    6  A    between atoms: C_19  and  C_20
REMARK                            x       y       z     vdW  Elec       q    Type
REMARK                         _______ _______ _______ _____ _____    ______ ____
ROOT
ATOM      1  C   UNL     1      -2.397   0.068  -1.507  0.00  0.00    +0.133 C 
ATOM      2  C   UNL     1      -1.651  -0.484  -2.748  0.00  0.00    +0.028 C 
ATOM      3  C   UNL     1      -2.695  -0.314  -3.881  0.00  0.00    +0.025 C 
ATOM      4  C   UNL     1      -4.036  -0.640  -3.204  0.00  0.00    +0.039 C 
ATOM      5  C   UNL     1      -3.855  -0.401  -1.698  0.00  0.00    +0.049 C 
ATOM      6  C   UNL     1      -4.420  -2.106  -3.471  0.00  0.00    +0.028 C 
ATOM      7  C   UNL     1      -5.960  -2.032  -3.650  0.00  0.00    +0.010 C 
ATOM      8  C   UNL     1      -6.131  -0.664  -4.357  0.00  0.00    +0.107 C 
ATOM      9  N   UNL     1      -5.107   0.210  -3.741  0.00  0.00    -0.213 NA
ATOM     10 CL   UNL     1      -4.490   1.327  -4.879  0.00  0.00    -0.021 Cl
ENDROOT
BRANCH   1  11
ATOM     11  S   UNL     1      -1.700  -0.632   0.015  0.00  0.00    -0.026 S 
ATOM     12  O   UNL     1      -1.658  -2.046  -0.118  0.00  0.00    -0.174 OA
ATOM     13  O   UNL     1      -2.381  -0.062   1.124  0.00  0.00    -0.174 OA
BRANCH  11  15
ATOM     14  C   UNL     1      -0.019   1.526   0.010  0.00  0.00    +0.031 C 
ATOM     15  C   UNL     1       0.002  -0.004   0.002  0.00  0.00    +0.125 C 
ATOM     16  C   UNL     1       0.742  -0.511   1.242  0.00  0.00    +0.031 C 
ENDBRANCH  11  15
ENDBRANCH   1  11
BRANCH   7  17
ATOM     17  C   UNL     1      -6.464  -3.174  -4.536  0.00  0.00    +0.040 C 
BRANCH  17  18
ATOM     18  C   UNL     1      -7.970  -3.143  -4.587  0.00  0.00    -0.047 A 
ATOM     19  C   UNL     1      -8.707  -3.845  -3.652  0.00  0.00    +0.003 A 
ATOM     20  C   UNL     1     -10.088  -3.818  -3.699  0.00  0.00    +0.000 A 
ATOM     21  C   UNL     1     -10.732  -3.087  -4.680  0.00  0.00    +0.000 A 
ATOM     22  C   UNL     1      -9.995  -2.384  -5.614  0.00  0.00    +0.000 A 
ATOM     23  C   UNL     1      -8.614  -2.409  -5.565  0.00  0.00    +0.003 A 
ENDBRANCH  17  18
ENDBRANCH   7  17
TORSDOF 4
