REMARK  Name = ZINC63190638
REMARK  3 active torsions:
REMARK  status: ('A' for Active; 'I' for Inactive)
REMARK    1  A    between atoms: C_3  and  N_11
REMARK    2  A    between atoms: C_6  and  N_7
REMARK    3  A    between atoms: C_16  and  C_18
REMARK                            x       y       z     vdW  Elec       q    Type
REMARK                         _______ _______ _______ _____ _____    ______ ____
ROOT
ATOM      1  N   UNL     1       3.582   2.124  -0.021  0.00  0.00    -0.328 N 
ATOM      2  C   UNL     1       4.210   2.518  -1.290  0.00  0.00    +0.105 C 
ATOM      3  C   UNL     1       5.660   2.021  -1.298  0.00  0.00    +0.019 C 
ATOM      4  C   UNL     1       6.380   2.542  -0.051  0.00  0.00    +0.003 C 
ATOM      5  C   UNL     1       5.690   1.999   1.202  0.00  0.00    +0.021 C 
ATOM      6  C   UNL     1       4.238   2.500   1.239  0.00  0.00    +0.059 C 
ENDROOT
BRANCH   1   9
ATOM      7  C   UNL     1      -0.017   1.378   0.010  0.00  0.00    +0.034 A 
ATOM      8  C   UNL     1       1.169   2.087   0.002  0.00  0.00    +0.026 A 
ATOM      9  C   UNL     1       2.381   1.410  -0.013  0.00  0.00    +0.044 A 
ATOM     10  C   UNL     1       2.397   0.020  -0.021  0.00  0.00    +0.041 A 
ATOM     11  C   UNL     1       1.207  -0.682  -0.013  0.00  0.00    +0.049 A 
ATOM     12  C   UNL     1       0.002  -0.004   0.002  0.00  0.00    +0.127 A 
ATOM     13 BR   UNL     1       4.044  -0.908  -0.042  0.00  0.00    -0.048 Br
BRANCH  12  14
ATOM     14  N   UNL     1      -1.270  -0.760   0.010  0.00  0.00    +0.056 N 
ATOM     15  O   UNL     1      -2.325  -0.168   0.023  0.00  0.00    -0.126 OA
ATOM     16  O   UNL     1      -1.256  -1.969   0.003  0.00  0.00    -0.126 OA
ENDBRANCH  12  14
ENDBRANCH   1   9
BRANCH   6  17
ATOM     17  C   UNL     1       3.500   1.855   2.414  0.00  0.00    -0.051 C 
ATOM     18  C   UNL     1       2.046   2.370   2.467  0.00  0.00    -0.016 C 
ATOM     19  C   UNL     1       1.782   2.516   3.989  0.00  0.00    -0.021 C 
ATOM     20  C   UNL     1       3.167   2.984   4.502  0.00  0.00    -0.082 C 
ATOM     21  N   UNL     1       4.148   2.235   3.682  0.00  0.00    +0.382 N 
ATOM     22  H   UNL     1       4.442   1.405   4.175  0.00  0.00    -0.085 HD
ATOM     23  H   UNL     1       4.949   2.818   3.493  0.00  0.00    -0.085 HD
ENDBRANCH   6  17
TORSDOF 3
