REMARK  Name = ZINC09641331
REMARK  7 active torsions:
REMARK  status: ('A' for Active; 'I' for Inactive)
REMARK    1  A    between atoms: C_1  and  C_2
REMARK    2  A    between atoms: C_5  and  C_35
REMARK    3  A    between atoms: C_9  and  C_10
REMARK    4  A    between atoms: C_9  and  N_68
REMARK    5  A    between atoms: C_10  and  N_11
REMARK    6  A    between atoms: N_11  and  C_12
REMARK    7  A    between atoms: C_14  and  N_29
REMARK                            x       y       z     vdW  Elec       q    Type
REMARK                         _______ _______ _______ _____ _____    ______ ____
ROOT
ATOM      1  C   UNL     1       2.467  -0.032  -0.022  0.00  0.00    +0.041 A 
ATOM      2  C   UNL     1       1.216  -0.661  -0.014  0.00  0.00    +0.049 A 
ATOM      3  C   UNL     1       0.002  -0.004   0.002  0.00  0.00    +0.061 A 
ATOM      4  C   UNL     1      -0.018   1.464   0.010  0.00  0.00    +0.136 A 
ATOM      5  C   UNL     1       1.300   2.088   0.001  0.00  0.00    +0.063 A 
ATOM      6  C   UNL     1       2.545   1.370  -0.015  0.00  0.00    +0.056 A 
ATOM      7  C   UNL     1       3.725   2.148  -0.021  0.00  0.00    +0.196 C 
ATOM      8  O   UNL     1       4.826   1.621  -0.035  0.00  0.00    -0.287 OA
ATOM      9  C   UNL     1       3.586   3.621  -0.010  0.00  0.00    +0.033 A 
ATOM     10  C   UNL     1       4.742   4.410  -0.014  0.00  0.00    +0.012 A 
ATOM     11  C   UNL     1       4.644   5.782  -0.005  0.00  0.00    +0.001 A 
ATOM     12  C   UNL     1       3.402   6.403   0.009  0.00  0.00    +0.001 A 
ATOM     13  C   UNL     1       2.249   5.654   0.013  0.00  0.00    +0.012 A 
ATOM     14  C   UNL     1       2.321   4.258   0.004  0.00  0.00    +0.031 A 
ATOM     15  C   UNL     1       1.105   3.446   0.010  0.00  0.00    +0.176 A 
ATOM     16  O   UNL     1      -0.227   3.568   0.022  0.00  0.00    -0.353 OA
ATOM     17  N   UNL     1      -0.821   2.491   0.019  0.00  0.00    -0.076 NA
ENDROOT
BRANCH   3  18
ATOM     18  N   UNL     1      -1.178  -0.718   0.010  0.00  0.00    -0.328 N 
ATOM     19  C   UNL     1      -1.308  -1.508   1.241  0.00  0.00    +0.105 C 
ATOM     20  C   UNL     1      -2.687  -2.170   1.282  0.00  0.00    +0.019 C 
ATOM     21  C   UNL     1      -2.851  -3.072   0.056  0.00  0.00    +0.003 C 
ATOM     22  C   UNL     1      -2.664  -2.235  -1.213  0.00  0.00    +0.019 C 
ATOM     23  C   UNL     1      -1.285  -1.571  -1.181  0.00  0.00    +0.105 C 
ENDBRANCH   3  18
BRANCH   1  24
ATOM     24  N   UNL     1       3.621  -0.787  -0.039  0.00  0.00    -0.345 N 
ATOM     25  H   UNL     1       4.487  -0.350  -0.044  0.00  0.00    +0.146 HD
BRANCH  24  26
ATOM     26  C   UNL     1       3.538  -2.250  -0.047  0.00  0.00    +0.083 C 
BRANCH  26  27
ATOM     27  C   UNL     1       4.950  -2.840  -0.065  0.00  0.00    -0.060 C 
BRANCH  27  35
ATOM     28  C   UNL     1       3.501  -6.848   2.392  0.00  0.00    +0.005 C 
ATOM     29  C   UNL     1       4.083  -6.322   1.078  0.00  0.00    -0.031 C 
ATOM     30  C   UNL     1       5.430  -6.998   0.809  0.00  0.00    +0.003 C 
ATOM     31  C   UNL     1       6.034  -6.423  -0.475  0.00  0.00    -0.031 C 
ATOM     32  C   UNL     1       6.183  -4.907  -0.329  0.00  0.00    -0.076 C 
ATOM     33  C   UNL     1       4.288  -4.809   1.179  0.00  0.00    -0.076 C 
ATOM     34  C   UNL     1       5.113  -6.734  -1.656  0.00  0.00    +0.005 C 
ATOM     35  N   UNL     1       4.848  -4.314  -0.096  0.00  0.00    +0.381 N 
ATOM     36  H   UNL     1       4.224  -4.589  -0.863  0.00  0.00    -0.082 HD
ENDBRANCH  27  35
ENDBRANCH  26  27
ENDBRANCH  24  26
ENDBRANCH   1  24
TORSDOF 5
