REMARK  Name = ZINC11839492
REMARK  7 active torsions:
REMARK  status: ('A' for Active; 'I' for Inactive)
REMARK    1  A    between atoms: C_1  and  C_2
REMARK    2  A    between atoms: C_7  and  C_8
REMARK    3  A    between atoms: C_7  and  N_59
REMARK    4  A    between atoms: C_11  and  C_16
REMARK    5  A    between atoms: N_18  and  C_19
REMARK    6  A    between atoms: C_19  and  C_21
REMARK    7  A    between atoms: C_19  and  C_22
REMARK                            x       y       z     vdW  Elec       q    Type
REMARK                         _______ _______ _______ _____ _____    ______ ____
ROOT
ATOM      1  C   UNL     1       0.014   6.725  -2.487  0.00  0.00    +0.003 A 
ATOM      2  C   UNL     1      -1.089   7.478  -2.243  0.00  0.00    +0.020 A 
ATOM      3  C   UNL     1      -2.009   7.724  -3.262  0.00  0.00    +0.020 A 
ATOM      4  C   UNL     1      -1.781   7.176  -4.523  0.00  0.00    +0.101 A 
ATOM      5  C   UNL     1      -0.617   6.391  -4.728  0.00  0.00    +0.261 A 
ATOM      6  O   UNL     1      -0.395   5.900  -5.821  0.00  0.00    -0.267 OA
ATOM      7  N   UNL     1       0.242   6.190  -3.710  0.00  0.00    -0.327 N 
ATOM      8  H   UNL     1       1.036   5.652  -3.856  0.00  0.00    +0.169 HD
ENDROOT
BRANCH   4   9
ATOM      9  C   UNL     1      -2.731   7.406  -5.622  0.00  0.00    +0.250 C 
ATOM     10  O   UNL     1      -3.781   7.981  -5.407  0.00  0.00    -0.270 OA
ATOM     11  N   UNL     1      -2.438   6.981  -6.867  0.00  0.00    -0.305 N 
ATOM     12  H   UNL     1      -1.638   6.456  -7.024  0.00  0.00    +0.150 HD
BRANCH  11  13
ATOM     13  C   UNL     1      -3.329   7.310  -7.982  0.00  0.00    +0.101 C 
ATOM     14  C   UNL     1      -4.479   6.303  -8.031  0.00  0.00    +0.033 C 
BRANCH  13  15
ATOM     15  C   UNL     1      -2.557   7.253  -9.275  0.00  0.00    -0.020 A 
ATOM     16  C   UNL     1      -1.473   6.437  -9.390  0.00  0.00    +0.006 A 
ATOM     17  C   UNL     1      -0.750   6.368 -10.578  0.00  0.00    +0.001 A 
ATOM     18  C   UNL     1      -1.099   7.122 -11.656  0.00  0.00    +0.008 A 
ATOM     19  C   UNL     1      -2.208   7.980 -11.574  0.00  0.00    -0.018 A 
ATOM     20  C   UNL     1      -2.947   8.047 -10.366  0.00  0.00    -0.013 A 
ATOM     21  C   UNL     1      -4.057   8.906 -10.285  0.00  0.00    +0.009 A 
ATOM     22  C   UNL     1      -4.407   9.659 -11.363  0.00  0.00    +0.001 A 
ATOM     23  C   UNL     1      -3.680   9.593 -12.550  0.00  0.00    +0.001 A 
ATOM     24  C   UNL     1      -2.600   8.773 -12.666  0.00  0.00    +0.008 A 
ENDBRANCH  13  15
ENDBRANCH  11  13
ENDBRANCH   4   9
BRANCH   1  25
ATOM     25  C   UNL     1       1.000   6.476  -1.376  0.00  0.00    -0.025 C 
BRANCH  25  32
ATOM     26  C   UNL     1       0.600   1.169   0.709  0.00  0.00    +0.007 C 
ATOM     27  C   UNL     1       0.492   2.685   0.536  0.00  0.00    -0.018 C 
ATOM     28  C   UNL     1      -0.300   3.001  -0.736  0.00  0.00    -0.016 C 
ATOM     29  C   UNL     1      -0.352   4.517  -0.935  0.00  0.00    -0.078 C 
ATOM     30  C   UNL     1       1.779   4.795   0.183  0.00  0.00    -0.078 C 
ATOM     31  C   UNL     1       1.895   3.287   0.417  0.00  0.00    -0.016 C 
ATOM     32  N   UNL     1       1.027   5.031  -1.068  0.00  0.00    +0.383 N 
ATOM     33  H   UNL     1       1.495   4.535  -1.836  0.00  0.00    -0.081 HD
ENDBRANCH  25  32
ENDBRANCH   1  25
TORSDOF 5
