REMARK  Name = ZINC10383904
REMARK  7 active torsions:
REMARK  status: ('A' for Active; 'I' for Inactive)
REMARK    1  A    between atoms: C_1  and  C_2
REMARK    2  A    between atoms: C_5  and  N_21
REMARK    3  A    between atoms: C_14  and  C_16
REMARK    4  A    between atoms: N_21  and  C_22
REMARK    5  A    between atoms: C_28  and  C_30
REMARK    6  A    between atoms: C_30  and  N_69
REMARK    7  A    between atoms: C_33  and  C_36
REMARK                            x       y       z     vdW  Elec       q    Type
REMARK                         _______ _______ _______ _____ _____    ______ ____
ROOT
ATOM      1  N   UNL     1       0.728   2.479  -0.958  0.00  0.00    -0.265 N 
ATOM      2  C   UNL     1       1.790   1.734  -0.592  0.00  0.00    +0.204 C 
ATOM      3  O   UNL     1       2.914   2.120  -0.834  0.00  0.00    -0.277 OA
ENDROOT
BRANCH   1   7
ATOM      4  C   UNL     1      -2.418   2.604  -3.929  0.00  0.00    +0.028 C 
ATOM      5  C   UNL     1      -1.683   2.965  -2.636  0.00  0.00    +0.081 C 
ATOM      6  C   UNL     1      -1.419   1.695  -1.817  0.00  0.00    +0.050 C 
ATOM      7  C   UNL     1      -0.623   2.070  -0.567  0.00  0.00    +0.115 C 
ATOM      8  C   UNL     1      -1.293   3.204   0.164  0.00  0.00    -0.005 A 
ATOM      9  C   UNL     1      -0.998   3.405   1.502  0.00  0.00    +0.007 A 
ATOM     10  C   UNL     1      -1.594   4.439   2.199  0.00  0.00    +0.000 A 
ATOM     11  C   UNL     1      -2.489   5.280   1.564  0.00  0.00    +0.002 A 
ATOM     12  C   UNL     1      -2.790   5.085   0.231  0.00  0.00    +0.024 A 
ATOM     13  C   UNL     1      -2.192   4.044  -0.472  0.00  0.00    +0.042 A 
ATOM     14  N   UNL     1      -2.517   3.859  -1.822  0.00  0.00    -0.262 N 
ATOM     15  C   UNL     1      -3.576   4.491  -2.365  0.00  0.00    +0.286 C 
ATOM     16  O   UNL     1      -3.755   4.455  -3.568  0.00  0.00    -0.266 OA
BRANCH  15  17
ATOM     17  C   UNL     1      -4.513   5.221  -1.506  0.00  0.00    +0.190 A 
ATOM     18  C   UNL     1      -4.996   6.479  -1.732  0.00  0.00    +0.054 A 
ATOM     19  C   UNL     1      -5.856   6.779  -0.664  0.00  0.00    +0.042 A 
ATOM     20  C   UNL     1      -5.860   5.705   0.157  0.00  0.00    +0.196 A 
ATOM     21  O   UNL     1      -5.055   4.767  -0.357  0.00  0.00    -0.458 OA
ENDBRANCH  15  17
ENDBRANCH   1   7
BRANCH   1  22
ATOM     22  C   UNL     1       0.917   3.642  -1.712  0.00  0.00    +0.037 A 
ATOM     23  C   UNL     1       0.650   4.885  -1.153  0.00  0.00    +0.023 A 
ATOM     24  C   UNL     1       0.842   6.032  -1.898  0.00  0.00    +0.002 A 
ATOM     25  C   UNL     1       1.294   5.943  -3.201  0.00  0.00    +0.000 A 
ATOM     26  C   UNL     1       1.555   4.707  -3.764  0.00  0.00    +0.002 A 
ATOM     27  C   UNL     1       1.365   3.556  -3.024  0.00  0.00    +0.023 A 
ENDBRANCH   1  22
BRANCH   2  28
ATOM     28  C   UNL     1       1.581   0.421   0.119  0.00  0.00    +0.019 C 
BRANCH  28  34
ATOM     29  C   UNL     1       3.591   0.874   1.390  0.00  0.00    -0.077 C 
ATOM     30  C   UNL     1       4.992   0.349   1.712  0.00  0.00    -0.006 C 
ATOM     31  C   UNL     1       4.874  -0.984   2.455  0.00  0.00    +0.071 C 
ATOM     32  C   UNL     1       4.086  -1.973   1.592  0.00  0.00    -0.006 C 
ATOM     33  C   UNL     1       2.711  -1.381   1.274  0.00  0.00    -0.077 C 
ATOM     34  N   UNL     1       2.893  -0.112   0.537  0.00  0.00    +0.385 N 
ATOM     35  H   UNL     1       3.462  -0.291  -0.298  0.00  0.00    -0.081 HD
BRANCH  31  36
ATOM     36  C   UNL     1       6.251  -1.535   2.722  0.00  0.00    +0.213 C 
ATOM     37  O   UNL     1       6.572  -2.613   2.267  0.00  0.00    -0.276 OA
ATOM     38  N   UNL     1       7.127  -0.831   3.466  0.00  0.00    -0.329 N 
ATOM     39  H   UNL     1       6.870   0.031   3.830  0.00  0.00    +0.145 HD
ATOM     40  H   UNL     1       8.013  -1.185   3.638  0.00  0.00    +0.145 HD
ENDBRANCH  31  36
ENDBRANCH  28  34
ENDBRANCH   2  28
TORSDOF 6
