REMARK  Name = ZINC62424748
REMARK  4 active torsions:
REMARK  status: ('A' for Active; 'I' for Inactive)
REMARK    1  A    between atoms: C_1  and  O_2
REMARK    2  A    between atoms: O_2  and  C_3
REMARK    3  A    between atoms: C_9  and  C_19
REMARK    4  A    between atoms: C_10  and  C_13
REMARK                            x       y       z     vdW  Elec       q    Type
REMARK                         _______ _______ _______ _____ _____    ______ ____
ROOT
ATOM      1  C   UNL     1       0.626  -0.619   1.042  0.00  0.00    +0.121 A 
ATOM      2  C   UNL     1       1.204   0.144   2.054  0.00  0.00    +0.047 A 
ATOM      3  C   UNL     1       1.839  -0.463   3.114  0.00  0.00    +0.030 A 
ATOM      4  C   UNL     1       1.908  -1.851   3.181  0.00  0.00    +0.048 A 
ATOM      5  C   UNL     1       1.326  -2.623   2.161  0.00  0.00    +0.013 A 
ATOM      6  C   UNL     1       0.680  -1.998   1.094  0.00  0.00    +0.056 A 
ATOM      7  C   UNL     1       1.570  -4.027   2.524  0.00  0.00    +0.032 A 
ATOM      8  C   UNL     1       2.256  -4.016   3.692  0.00  0.00    +0.029 A 
ATOM      9  N   UNL     1       2.463  -2.725   4.093  0.00  0.00    -0.357 N 
ATOM     10  H   UNL     1       2.932  -2.463   4.900  0.00  0.00    +0.166 HD
ENDROOT
BRANCH   7  11
ATOM     11  C   UNL     1       1.145  -5.226   1.759  0.00  0.00    +0.113 A 
ATOM     12  C   UNL     1       0.465  -5.230   0.589  0.00  0.00    +0.227 A 
ATOM     13  O   UNL     1       0.283  -6.522   0.239  0.00  0.00    -0.433 OA
ATOM     14  C   UNL     1       0.846  -7.292   1.182  0.00  0.00    +0.285 A 
ATOM     15  N   UNL     1       1.374  -6.522   2.100  0.00  0.00    -0.196 NA
ATOM     16  N   UNL     1       0.871  -8.673   1.182  0.00  0.00    -0.313 N 
ATOM     17  H   UNL     1       0.457  -9.165   0.456  0.00  0.00    +0.147 HD
ATOM     18  H   UNL     1       1.302  -9.151   1.908  0.00  0.00    +0.147 HD
ENDBRANCH   7  11
BRANCH   8  19
ATOM     19  C   UNL     1       2.719  -5.241   4.437  0.00  0.00    +0.036 C 
ATOM     20  C   UNL     1       2.090  -5.258   5.832  0.00  0.00    +0.009 C 
ATOM     21  C   UNL     1       2.561  -6.501   6.589  0.00  0.00    +0.001 C 
ATOM     22  C   UNL     1       4.085  -6.473   6.718  0.00  0.00    +0.000 C 
ATOM     23  C   UNL     1       4.715  -6.456   5.323  0.00  0.00    +0.001 C 
ATOM     24  C   UNL     1       4.244  -5.213   4.566  0.00  0.00    +0.009 C 
ENDBRANCH   8  19
BRANCH   1  26
ATOM     25  C   UNL     1      -0.017   1.425   0.010  0.00  0.00    +0.277 C 
ATOM     26  O   UNL     1       0.002  -0.004   0.002  0.00  0.00    -0.495 OA
ENDBRANCH   1  26
TORSDOF 3
