REMARK  Name = ZINC01472227
REMARK  7 active torsions:
REMARK  status: ('A' for Active; 'I' for Inactive)
REMARK    1  A    between atoms: C_1  and  C_2
REMARK    2  A    between atoms: C_2  and  C_3
REMARK    3  A    between atoms: C_3  and  C_4
REMARK    4  A    between atoms: N_7  and  C_9
REMARK    5  A    between atoms: C_16  and  N_30
REMARK    6  A    between atoms: C_17  and  C_28
REMARK    7  A    between atoms: C_18  and  C_20
REMARK                            x       y       z     vdW  Elec       q    Type
REMARK                         _______ _______ _______ _____ _____    ______ ____
ROOT
ATOM      1  C   UNL     1       0.000   1.080   2.488  0.00  0.00    +0.071 A 
ATOM      2  C   UNL     1       1.031   1.738   3.146  0.00  0.00    +0.050 A 
ATOM      3  C   UNL     1       1.424   0.962   4.200  0.00  0.00    +0.230 A 
ATOM      4  N   UNL     1       0.656  -0.149   4.197  0.00  0.00    -0.200 N 
ATOM      5  N   UNL     1      -0.234  -0.049   3.115  0.00  0.00    -0.168 NA
ATOM      6  O   UNL     1       2.420   1.325   5.046  0.00  0.00    -0.423 OA
ATOM      7  C   UNL     1       3.214   2.349   4.672  0.00  0.00    +0.200 C 
ATOM      8  C   UNL     1       2.926   3.192   3.655  0.00  0.00    +0.098 C 
ATOM      9  C   UNL     1       1.668   3.067   2.833  0.00  0.00    +0.106 C 
ENDROOT
BRANCH   9  10
ATOM     10  C   UNL     1       0.717   4.182   3.185  0.00  0.00    +0.019 A 
ATOM     11  C   UNL     1       0.288   5.062   2.206  0.00  0.00    +0.129 A 
ATOM     12  C   UNL     1      -0.586   6.086   2.531  0.00  0.00    +0.039 A 
ATOM     13  C   UNL     1      -1.030   6.229   3.833  0.00  0.00    +0.004 A 
ATOM     14  C   UNL     1      -0.601   5.351   4.810  0.00  0.00    +0.020 A 
ATOM     15  C   UNL     1       0.268   4.324   4.486  0.00  0.00    +0.048 A 
ATOM     16 CL   UNL     1       0.800   3.217   5.713  0.00  0.00    -0.083 Cl
ATOM     17  F   UNL     1       0.721   4.922   0.934  0.00  0.00    -0.205 F 
ENDBRANCH   9  10
BRANCH   4  18
ATOM     18  C   UNL     1       0.729  -1.208   5.111  0.00  0.00    +0.069 A 
ATOM     19  C   UNL     1       1.957  -1.596   5.630  0.00  0.00    +0.028 A 
ATOM     20  C   UNL     1       2.026  -2.637   6.535  0.00  0.00    +0.002 A 
ATOM     21  C   UNL     1       0.874  -3.299   6.917  0.00  0.00    +0.000 A 
ATOM     22  C   UNL     1      -0.350  -2.919   6.398  0.00  0.00    +0.002 A 
ATOM     23  C   UNL     1      -0.426  -1.876   5.496  0.00  0.00    +0.028 A 
ENDBRANCH   4  18
BRANCH   7  24
ATOM     24  N   UNL     1       4.383   2.547   5.364  0.00  0.00    -0.328 N 
ATOM     25  H   UNL     1       4.617   1.959   6.099  0.00  0.00    +0.145 HD
ATOM     26  H   UNL     1       4.974   3.276   5.119  0.00  0.00    +0.145 HD
ENDBRANCH   7  24
BRANCH   8  27
ATOM     27  C   UNL     1       3.850   4.242   3.348  0.00  0.00    +0.101 C 
ATOM     28  N   UNL     1       4.583   5.075   3.103  0.00  0.00    -0.191 NA
ENDBRANCH   8  27
BRANCH   1  29
ATOM     29  C   UNL     1      -0.729   1.579   1.267  0.00  0.00    +0.057 C 
BRANCH  29  31
ATOM     30  C   UNL     1      -0.753   1.593  -1.232  0.00  0.00    +0.004 C 
ATOM     31  C   UNL     1      -0.013   1.086   0.008  0.00  0.00    +0.003 C 
ENDBRANCH  29  31
ENDBRANCH   1  29
TORSDOF 6
