REMARK  Name = ZINC33627213
REMARK  10 active torsions:
REMARK  status: ('A' for Active; 'I' for Inactive)
REMARK    1  A    between atoms: C_1  and  C_2
REMARK    2  A    between atoms: C_3  and  C_30
REMARK    3  A    between atoms: C_4  and  C_23
REMARK    4  A    between atoms: C_5  and  C_17
REMARK    5  A    between atoms: N_6  and  C_7
REMARK    6  A    between atoms: C_7  and  C_8
REMARK    7  A    between atoms: C_17  and  C_18
REMARK    8  A    between atoms: C_18  and  C_19
REMARK    9  A    between atoms: C_19  and  O_21
REMARK   10  A    between atoms: O_21  and  C_22
REMARK                            x       y       z     vdW  Elec       q    Type
REMARK                         _______ _______ _______ _____ _____    ______ ____
ROOT
ATOM      1  C   UNL     1       2.545   1.408   5.129  0.00  0.00    +0.064 C 
ATOM      2  C   UNL     1       1.441   1.009   4.184  0.00  0.00    +0.029 A 
ATOM      3  C   UNL     1       0.711  -0.143   4.254  0.00  0.00    +0.065 A 
ATOM      4  C   UNL     1      -0.241  -0.091   3.130  0.00  0.00    +0.015 A 
ATOM      5  C   UNL     1       0.000   1.080   2.488  0.00  0.00    +0.028 A 
ATOM      6  N   UNL     1       1.014   1.727   3.127  0.00  0.00    -0.342 N 
ENDROOT
BRANCH   4   7
ATOM      7  C   UNL     1      -1.256  -1.112   2.772  0.00  0.00    -0.015 A 
ATOM      8  C   UNL     1      -2.614  -0.807   2.856  0.00  0.00    +0.009 A 
ATOM      9  C   UNL     1      -3.554  -1.759   2.517  0.00  0.00    +0.016 A 
ATOM     10  C   UNL     1      -3.151  -3.017   2.106  0.00  0.00    +0.018 A 
ATOM     11  C   UNL     1      -1.805  -3.327   2.026  0.00  0.00    +0.016 A 
ATOM     12  C   UNL     1      -0.856  -2.381   2.357  0.00  0.00    +0.009 A 
ATOM     13 BR   UNL     1      -4.446  -4.319   1.652  0.00  0.00    -0.050 Br
ENDBRANCH   4   7
BRANCH   3  14
ATOM     14  C   UNL     1       0.847  -1.218   5.249  0.00  0.00    +0.244 C 
ATOM     15  O   UNL     1       1.606  -2.146   5.043  0.00  0.00    -0.270 OA
ATOM     16  N   UNL     1       0.130  -1.176   6.389  0.00  0.00    -0.325 N 
ATOM     17  H   UNL     1       0.232  -1.979   7.134  0.00  0.00    +0.145 HD
ATOM     18  H   UNL     1      -0.557  -0.337   6.576  0.00  0.00    +0.145 HD
ENDBRANCH   3  14
BRANCH   6  19
ATOM     19  C   UNL     1       1.563   3.024   2.723  0.00  0.00    +0.157 C 
BRANCH  19  20
ATOM     20  C   UNL     1       0.806   4.127   3.418  0.00  0.00    -0.024 A 
ATOM     21  C   UNL     1       1.235   4.589   4.648  0.00  0.00    +0.009 A 
ATOM     22  C   UNL     1       0.545   5.601   5.289  0.00  0.00    +0.050 A 
ATOM     23  C   UNL     1      -0.580   6.155   4.699  0.00  0.00    +0.166 A 
ATOM     24  C   UNL     1      -1.012   5.690   3.459  0.00  0.00    +0.167 A 
ATOM     25  C   UNL     1      -0.311   4.679   2.820  0.00  0.00    +0.055 A 
ATOM     26  O   UNL     1      -2.127   6.388   3.095  0.00  0.00    -0.453 OA
ATOM     27  C   UNL     1      -2.135   7.561   3.931  0.00  0.00    +0.466 C 
ATOM     28  O   UNL     1      -1.424   7.144   5.112  0.00  0.00    -0.453 OA
ENDBRANCH  19  20
ENDBRANCH   6  19
BRANCH   5  29
ATOM     29  C   UNL     1      -0.729   1.579   1.267  0.00  0.00    +0.065 C 
BRANCH  29  30
ATOM     30  C   UNL     1      -0.013   1.086   0.008  0.00  0.00    +0.126 C 
BRANCH  30  31
ATOM     31  C   UNL     1      -0.742   1.585  -1.213  0.00  0.00    +0.307 C 
ATOM     32  O   UNL     1      -1.732   2.266  -1.089  0.00  0.00    -0.251 OA
BRANCH  31  33
ATOM     33  O   UNL     1      -0.290   1.274  -2.438  0.00  0.00    -0.468 OA
ATOM     34  C   UNL     1      -1.042   1.789  -3.568  0.00  0.00    +0.280 C 
ENDBRANCH  31  33
ENDBRANCH  30  31
ENDBRANCH  29  30
ENDBRANCH   5  29
TORSDOF 8
