REMARK  Name = ZINC14130529
REMARK  4 active torsions:
REMARK  status: ('A' for Active; 'I' for Inactive)
REMARK    1  A    between atoms: C_1  and  O_2
REMARK    2  A    between atoms: O_2  and  C_3
REMARK    3  A    between atoms: C_8  and  C_9
REMARK    4  A    between atoms: C_14  and  C_20
REMARK                            x       y       z     vdW  Elec       q    Type
REMARK                         _______ _______ _______ _____ _____    ______ ____
ROOT
ATOM      1  C   UNL     1       0.071  -2.826  -0.068  0.00  0.00    +0.025 C 
ATOM      2  C   UNL     1       0.036  -4.197  -0.193  0.00  0.00    +0.047 C 
ATOM      3  C   UNL     1       0.639  -5.019  -1.267  0.00  0.00    +0.008 A 
ATOM      4  C   UNL     1       1.375  -4.709  -2.406  0.00  0.00    +0.011 A 
ATOM      5  C   UNL     1       1.810  -5.722  -3.236  0.00  0.00    +0.013 A 
ATOM      6  C   UNL     1       1.514  -7.042  -2.936  0.00  0.00    +0.057 A 
ATOM      7  C   UNL     1       0.785  -7.359  -1.808  0.00  0.00    +0.036 A 
ATOM      8  C   UNL     1       0.338  -6.353  -0.959  0.00  0.00    +0.042 A 
ATOM      9  N   UNL     1      -0.400  -6.395   0.218  0.00  0.00    -0.281 N 
ATOM     10  C   UNL     1      -0.602  -5.163   0.714  0.00  0.00    +0.249 C 
ATOM     11  O   UNL     1      -1.209  -4.893   1.735  0.00  0.00    -0.270 OA
ATOM     12  H   UNL     1      -0.724  -7.210   0.630  0.00  0.00    +0.155 HD
ENDROOT
BRANCH   1  18
ATOM     13  C   UNL     1       1.467  -0.951  -0.916  0.00  0.00    +0.131 A 
ATOM     14  C   UNL     1       1.938  -0.181  -1.965  0.00  0.00    +0.095 A 
ATOM     15  C   UNL     1       1.524  -0.441  -3.263  0.00  0.00    +0.170 A 
ATOM     16  C   UNL     1       0.628  -1.483  -3.520  0.00  0.00    +0.167 A 
ATOM     17  C   UNL     1       0.151  -2.258  -2.485  0.00  0.00    +0.061 A 
ATOM     18  C   UNL     1       0.569  -2.004  -1.170  0.00  0.00    +0.021 A 
ATOM     19  O   UNL     1       0.386  -1.525  -4.864  0.00  0.00    -0.453 OA
ATOM     20  C   UNL     1       0.817  -0.249  -5.372  0.00  0.00    +0.466 C 
ATOM     21  O   UNL     1       1.838   0.163  -4.444  0.00  0.00    -0.452 OA
BRANCH  13  23
ATOM     22  C   UNL     1       2.785   0.391   0.535  0.00  0.00    +0.277 C 
ATOM     23  O   UNL     1       1.873  -0.694   0.353  0.00  0.00    -0.494 OA
ENDBRANCH  13  23
ENDBRANCH   1  18
BRANCH   6  24
ATOM     24  C   UNL     1       1.993  -8.140  -3.849  0.00  0.00    +0.417 C 
ATOM     25  F   UNL     1       2.704  -7.582  -4.917  0.00  0.00    -0.166 F 
ATOM     26  F   UNL     1       2.827  -9.009  -3.136  0.00  0.00    -0.166 F 
ATOM     27  F   UNL     1       0.893  -8.850  -4.342  0.00  0.00    -0.166 F 
ENDBRANCH   6  24
TORSDOF 3
