REMARK  Name = ZINC36558491
REMARK  16 active torsions:
REMARK  status: ('A' for Active; 'I' for Inactive)
REMARK    1  A    between atoms: C_1  and  C_2
REMARK    2  A    between atoms: C_2  and  C_3
REMARK    3  A    between atoms: C_3  and  C_5
REMARK    4  A    between atoms: C_3  and  C_11
REMARK    5  A    between atoms: N_13  and  C_14
REMARK    6  A    between atoms: N_13  and  C_21
REMARK    7  A    between atoms: C_14  and  C_15
REMARK    8  A    between atoms: C_18  and  C_20
REMARK    9  A    between atoms: C_21  and  C_23
REMARK   10  A    between atoms: C_21  and  C_35
REMARK   11  A    between atoms: C_32  and  O_33
REMARK   12  A    between atoms: O_33  and  C_34
REMARK   13  A    between atoms: N_37  and  C_38
REMARK   14  A    between atoms: C_38  and  C_39
REMARK   15  A    between atoms: C_38  and  C_40
REMARK   16  A    between atoms: C_38  and  C_41
REMARK                            x       y       z     vdW  Elec       q    Type
REMARK                         _______ _______ _______ _____ _____    ______ ____
ROOT
ATOM      1  C   UNL     1      -0.164   0.749   3.246  0.00  0.00    +0.197 C 
ENDROOT
BRANCH   1   2
ATOM      2  C   UNL     1       0.822   0.817   4.383  0.00  0.00    +0.031 A 
ATOM      3  C   UNL     1       1.051  -0.312   5.188  0.00  0.00    -0.009 A 
ATOM      4  C   UNL     1       0.374  -1.522   4.956  0.00  0.00    +0.009 A 
ATOM      5  C   UNL     1       0.621  -2.596   5.754  0.00  0.00    +0.001 A 
ATOM      6  C   UNL     1       1.536  -2.515   6.802  0.00  0.00    +0.001 A 
ATOM      7  C   UNL     1       2.210  -1.360   7.057  0.00  0.00    +0.008 A 
ATOM      8  C   UNL     1       1.982  -0.230   6.253  0.00  0.00    -0.017 A 
ATOM      9  C   UNL     1       2.661   0.979   6.486  0.00  0.00    +0.012 A 
ATOM     10  C   UNL     1       2.417   2.053   5.690  0.00  0.00    +0.046 A 
ATOM     11  C   UNL     1       1.503   1.974   4.635  0.00  0.00    +0.126 A 
BRANCH  11  12
ATOM     12  O   UNL     1       1.285   3.063   3.853  0.00  0.00    -0.495 OA
ATOM     13  C   UNL     1       2.102   4.210   4.095  0.00  0.00    +0.277 C 
ENDBRANCH  11  12
ENDBRANCH   1   2
BRANCH   1  14
ATOM     14  C   UNL     1      -1.389   1.554   3.595  0.00  0.00    +0.239 C 
ATOM     15  O   UNL     1      -2.017   2.112   2.720  0.00  0.00    -0.273 OA
ATOM     16  N   UNL     1      -1.787   1.653   4.879  0.00  0.00    -0.309 N 
ATOM     17  H   UNL     1      -1.255   1.251   5.584  0.00  0.00    +0.149 HD
BRANCH  16  18
ATOM     18  C   UNL     1      -3.022   2.368   5.210  0.00  0.00    +0.026 C 
ATOM     19  C   UNL     1      -4.198   1.720   4.476  0.00  0.00    +0.031 C 
ATOM     20  C   UNL     1      -3.263   2.299   6.719  0.00  0.00    +0.031 C 
ATOM     21  C   UNL     1      -2.896   3.830   4.780  0.00  0.00    +0.031 C 
ENDBRANCH  16  18
ENDBRANCH   1  14
BRANCH   1  24
ATOM     22  C   UNL     1       1.330   0.555   1.331  0.00  0.00    +0.224 C 
ATOM     23  O   UNL     1       1.660  -0.540   1.734  0.00  0.00    -0.275 OA
ATOM     24  N   UNL     1       0.451   1.296   2.034  0.00  0.00    -0.278 N 
BRANCH  22  25
ATOM     25  C   UNL     1       1.904   1.088   0.043  0.00  0.00    +0.105 C 
BRANCH  25  26
ATOM     26  C   UNL     1       3.231   1.748   0.320  0.00  0.00    -0.036 A 
ATOM     27  C   UNL     1       4.268   1.014   0.864  0.00  0.00    +0.004 A 
ATOM     28  C   UNL     1       5.485   1.619   1.117  0.00  0.00    +0.000 A 
ATOM     29  C   UNL     1       5.664   2.958   0.826  0.00  0.00    +0.000 A 
ATOM     30  C   UNL     1       4.628   3.692   0.281  0.00  0.00    +0.000 A 
ATOM     31  C   UNL     1       3.412   3.086   0.024  0.00  0.00    +0.004 A 
ENDBRANCH  25  26
BRANCH  25  33
ATOM     32  C   UNL     1       0.741  -0.579  -1.409  0.00  0.00    +0.005 C 
ATOM     33  C   UNL     1       2.104  -0.065  -0.942  0.00  0.00    +0.014 C 
ENDBRANCH  25  33
ENDBRANCH  22  25
BRANCH  24  34
ATOM     34  C   UNL     1       0.110   2.649   1.586  0.00  0.00    +0.183 C 
BRANCH  34  35
ATOM     35  C   UNL     1      -0.952   2.572   0.520  0.00  0.00    +0.122 A 
ATOM     36  C   UNL     1      -2.092   3.286   0.491  0.00  0.00    +0.046 A 
ATOM     37  C   UNL     1      -2.788   2.900  -0.677  0.00  0.00    +0.045 A 
ATOM     38  C   UNL     1      -2.032   1.974  -1.293  0.00  0.00    +0.102 A 
ATOM     39  O   UNL     1      -0.919   1.783  -0.567  0.00  0.00    -0.463 OA
ATOM     40  C   UNL     1      -2.374   1.272  -2.582  0.00  0.00    +0.086 C 
ENDBRANCH  34  35
ENDBRANCH  24  34
ENDBRANCH   1  24
TORSDOF 10
