REMARK  Name = ZINC39466036
REMARK  9 active torsions:
REMARK  status: ('A' for Active; 'I' for Inactive)
REMARK    1  A    between atoms: C_1  and  C_2
REMARK    2  A    between atoms: C_2  and  C_3
REMARK    3  A    between atoms: C_2  and  S_4
REMARK    4  A    between atoms: S_4  and  C_7
REMARK    5  A    between atoms: C_12  and  O_13
REMARK    6  A    between atoms: O_13  and  C_14
REMARK    7  A    between atoms: P_19  and  S_25
REMARK    8  A    between atoms: S_25  and  O_28
REMARK    9  A    between atoms: O_28  and  C_29
REMARK                            x       y       z     vdW  Elec       q    Type
REMARK                         _______ _______ _______ _____ _____    ______ ____
ROOT
ATOM      1  C   UNL     1      -2.252  -0.079  -1.422  0.00  0.00    +0.130 A 
ATOM      2  C   UNL     1      -2.763  -0.912  -2.396  0.00  0.00    +0.034 A 
ATOM      3  C   UNL     1      -3.231  -0.389  -3.592  0.00  0.00    -0.039 A 
ATOM      4  C   UNL     1      -3.189   0.972  -3.814  0.00  0.00    -0.020 A 
ATOM      5  C   UNL     1      -2.676   1.811  -2.837  0.00  0.00    +0.053 A 
ATOM      6  C   UNL     1      -2.213   1.291  -1.639  0.00  0.00    +0.145 A 
ATOM      7  C   UNL     1      -3.687   1.589  -5.094  0.00  0.00    +0.130 C 
ATOM      8  C   UNL     1      -2.702   2.673  -5.542  0.00  0.00    +0.195 C 
ATOM      9  O   UNL     1      -3.243   3.339  -6.700  0.00  0.00    -0.296 OA
ATOM     10  P   UNL     1      -3.772   2.425  -7.937  0.00  0.00    +0.458 P 
ATOM     11  O   UNL     1      -4.758   3.178  -8.744  0.00  0.00    -0.243 OA
ATOM     12  N   UNL     1      -4.490   1.108  -7.243  0.00  0.00    -0.158 NA
ATOM     13  N   UNL     1      -3.845   0.581  -6.142  0.00  0.00    -0.224 NA
ATOM     14  C   UNL     1      -4.606  -0.577  -5.646  0.00  0.00    +0.108 C 
ATOM     15  C   UNL     1      -3.777  -1.338  -4.628  0.00  0.00    +0.052 C 
ATOM     16  H   UNL     1      -5.309   0.727  -7.597  0.00  0.00    +0.152 HD
ENDROOT
BRANCH   1  17
ATOM     17  S   UNL     1      -1.660  -0.751   0.095  0.00  0.00    +0.003 S 
ATOM     18  O   UNL     1      -0.364  -0.192   0.258  0.00  0.00    -0.169 OA
ATOM     19  O   UNL     1      -1.831  -2.155  -0.039  0.00  0.00    -0.169 OA
BRANCH  17  21
ATOM     20  C   UNL     1      -4.211  -0.567   1.065  0.00  0.00    +0.032 C 
ATOM     21  C   UNL     1      -2.784  -0.103   1.363  0.00  0.00    +0.130 C 
ATOM     22  C   UNL     1      -2.356  -0.621   2.737  0.00  0.00    +0.032 C 
ENDBRANCH  17  21
ENDBRANCH   1  17
BRANCH  10  23
ATOM     23  S   UNL     1      -2.142   1.822  -9.151  0.00  0.00    +0.211 S 
ATOM     24  O   UNL     1      -1.201   1.199  -8.287  0.00  0.00    -0.126 OA
ATOM     25  O   UNL     1      -2.698   1.157 -10.277  0.00  0.00    -0.126 OA
BRANCH  23  26
ATOM     26  O   UNL     1      -1.479   3.087  -9.676  0.00  0.00    -0.339 OA
BRANCH  26  27
ATOM     27  C   UNL     1      -0.733   3.745  -8.751  0.00  0.00    +0.157 A 
ATOM     28  C   UNL     1      -1.317   4.717  -7.951  0.00  0.00    +0.048 A 
ATOM     29  C   UNL     1      -0.556   5.384  -7.010  0.00  0.00    +0.004 A 
ATOM     30  C   UNL     1       0.786   5.085  -6.866  0.00  0.00    +0.000 A 
ATOM     31  C   UNL     1       1.370   4.118  -7.663  0.00  0.00    +0.004 A 
ATOM     32  C   UNL     1       0.613   3.443  -8.600  0.00  0.00    +0.048 A 
ENDBRANCH  26  27
ENDBRANCH  23  26
ENDBRANCH  10  23
BRANCH   6  33
ATOM     33  O   UNL     1      -1.716   2.119  -0.683  0.00  0.00    -0.493 OA
ATOM     34  C   UNL     1      -1.707   3.517  -0.977  0.00  0.00    +0.277 C 
ENDBRANCH   6  33
TORSDOF 6
