REMARK  Name = ZINC32666825
REMARK  9 active torsions:
REMARK  status: ('A' for Active; 'I' for Inactive)
REMARK    1  A    between atoms: C_1  and  C_2
REMARK    2  A    between atoms: C_2  and  N_3
REMARK    3  A    between atoms: N_3  and  C_4
REMARK    4  A    between atoms: N_3  and  C_6
REMARK    5  A    between atoms: C_4  and  C_5
REMARK    6  A    between atoms: C_6  and  C_8
REMARK    7  A    between atoms: C_6  and  C_20
REMARK    8  A    between atoms: C_8  and  N_9
REMARK    9  A    between atoms: C_10  and  C_12
REMARK                            x       y       z     vdW  Elec       q    Type
REMARK                         _______ _______ _______ _____ _____    ______ ____
ROOT
ATOM      1  C   UNL     1      -1.187  -2.136   1.605  0.00  0.00    +0.094 C 
ENDROOT
BRANCH   1   2
ATOM      2  N   UNL     1       0.097  -1.500   1.909  0.00  0.00    -0.313 N 
ATOM      3  C   UNL     1       0.673  -1.687   3.113  0.00  0.00    +0.245 C 
ATOM      4  O   UNL     1       0.128  -2.385   3.946  0.00  0.00    -0.270 OA
ATOM      5  H   UNL     1       0.532  -0.943   1.245  0.00  0.00    +0.149 HD
BRANCH   3   6
ATOM      6  C   UNL     1       1.968  -1.045   3.421  0.00  0.00    +0.050 A 
ATOM      7  C   UNL     1       2.594  -0.239   2.468  0.00  0.00    +0.015 A 
ATOM      8  C   UNL     1       3.802   0.358   2.761  0.00  0.00    +0.021 A 
ATOM      9  C   UNL     1       4.395   0.159   3.997  0.00  0.00    +0.042 A 
ATOM     10  C   UNL     1       3.780  -0.639   4.946  0.00  0.00    +0.035 A 
ATOM     11  C   UNL     1       2.568  -1.238   4.667  0.00  0.00    +0.027 A 
ATOM     12  I   UNL     1       1.634  -2.439   6.107  0.00  0.00    -0.043 I 
ATOM     13 CL   UNL     1       5.916   0.914   4.358  0.00  0.00    -0.084 Cl
ENDBRANCH   3   6
ENDBRANCH   1   2
BRANCH   1  14
ATOM     14  C   UNL     1      -1.705  -1.621   0.260  0.00  0.00    -0.020 C 
BRANCH  14  15
ATOM     15  C   UNL     1      -2.626  -2.647  -0.349  0.00  0.00    -0.052 A 
ATOM     16  C   UNL     1      -2.193  -3.447  -1.390  0.00  0.00    +0.009 A 
ATOM     17  C   UNL     1      -3.047  -4.359  -1.916  0.00  0.00    +0.045 A 
ATOM     18  S   UNL     1      -4.513  -4.104  -0.931  0.00  0.00    -0.105 S 
ATOM     19  C   UNL     1      -3.888  -2.802   0.119  0.00  0.00    +0.047 A 
ENDBRANCH  14  15
BRANCH  14  20
ATOM     20  N   UNL     1      -2.438  -0.365   0.467  0.00  0.00    +0.385 N 
ATOM     21  H   UNL     1      -3.284  -0.551   0.985  0.00  0.00    -0.081 HD
BRANCH  20  23
ATOM     22  C   UNL     1      -2.369   1.876   1.450  0.00  0.00    -0.017 C 
ATOM     23  C   UNL     1      -1.599   0.574   1.222  0.00  0.00    -0.081 C 
ENDBRANCH  20  23
BRANCH  20  24
ATOM     24  C   UNL     1      -2.780   0.222  -0.836  0.00  0.00    -0.081 C 
ATOM     25  C   UNL     1      -3.828  -0.651  -1.529  0.00  0.00    -0.017 C 
ENDBRANCH  20  24
ENDBRANCH  14  20
ENDBRANCH   1  14
TORSDOF 7
