REMARK  Name = ZINC59520312
REMARK  5 active torsions:
REMARK  status: ('A' for Active; 'I' for Inactive)
REMARK    1  A    between atoms: C_4  and  C_7
REMARK    2  A    between atoms: C_7  and  C_9
REMARK    3  A    between atoms: C_7  and  O_16
REMARK    4  A    between atoms: O_16  and  N_17
REMARK    5  A    between atoms: C_18  and  C_19
REMARK                            x       y       z     vdW  Elec       q    Type
REMARK                         _______ _______ _______ _____ _____    ______ ____
ROOT
ATOM      1  C   UNL     1       1.328  -1.213  -0.512  0.00  0.00    +0.265 C 
ENDROOT
BRANCH   1   2
ATOM      2  C   UNL     1       1.836  -1.105   0.902  0.00  0.00    -0.000 A 
ATOM      3  C   UNL     1       2.087  -2.250   1.635  0.00  0.00    +0.009 A 
ATOM      4  C   UNL     1       2.554  -2.151   2.933  0.00  0.00    +0.020 A 
ATOM      5  C   UNL     1       2.769  -0.907   3.498  0.00  0.00    +0.041 A 
ATOM      6  C   UNL     1       2.517   0.238   2.764  0.00  0.00    +0.020 A 
ATOM      7  C   UNL     1       2.056   0.139   1.464  0.00  0.00    +0.009 A 
ATOM      8 CL   UNL     1       3.354  -0.783   5.127  0.00  0.00    -0.084 Cl
ENDBRANCH   1   2
BRANCH   1  12
ATOM      9  C   UNL     1      -2.925  -1.608  -0.473  0.00  0.00    +0.000 A 
ATOM     10  C   UNL     1      -2.348  -0.380  -0.736  0.00  0.00    +0.000 A 
ATOM     11  C   UNL     1      -0.972  -0.252  -0.749  0.00  0.00    +0.007 A 
ATOM     12  C   UNL     1      -0.173  -1.352  -0.498  0.00  0.00    -0.000 A 
ATOM     13  C   UNL     1      -0.750  -2.580  -0.234  0.00  0.00    +0.007 A 
ATOM     14  C   UNL     1      -2.127  -2.708  -0.222  0.00  0.00    +0.000 A 
ENDBRANCH   1  12
BRANCH   1  15
ATOM     15  O   UNL     1       1.906  -2.359  -1.141  0.00  0.00    -0.379 OA
BRANCH  15  16
ATOM     16  N   UNL     1       1.970  -2.271  -2.552  0.00  0.00    -0.066 NA
ATOM     17  C   UNL     1       2.476  -3.250  -3.242  0.00  0.00    +0.188 C 
ATOM     18  N   UNL     1       2.539  -3.164  -4.623  0.00  0.00    -0.339 N 
ATOM     19  H   UNL     1       2.336  -2.325  -5.067  0.00  0.00    +0.144 HD
ATOM     20  H   UNL     1       2.785  -3.942  -5.147  0.00  0.00    +0.144 HD
BRANCH  17  21
ATOM     21  C   UNL     1       2.985  -4.457  -2.552  0.00  0.00    +0.191 A 
ATOM     22  C   UNL     1       3.466  -5.682  -3.202  0.00  0.00    +0.191 A 
ATOM     23  N   UNL     1       3.833  -6.522  -2.274  0.00  0.00    -0.033 NA
ATOM     24  O   UNL     1       3.615  -5.906  -1.017  0.00  0.00    -0.240 OA
ATOM     25  N   UNL     1       3.088  -4.613  -1.258  0.00  0.00    -0.044 NA
ATOM     26  N   UNL     1       3.522  -5.907  -4.571  0.00  0.00    -0.339 N 
ATOM     27  H   UNL     1       3.716  -5.174  -5.176  0.00  0.00    +0.144 HD
ATOM     28  H   UNL     1       3.367  -6.798  -4.923  0.00  0.00    +0.144 HD
ENDBRANCH  17  21
ENDBRANCH  15  16
ENDBRANCH   1  15
TORSDOF 5
