REMARK  Name = ZINC41788601
REMARK  7 active torsions:
REMARK  status: ('A' for Active; 'I' for Inactive)
REMARK    1  A    between atoms: C_3  and  N_12
REMARK    2  A    between atoms: C_6  and  C_7
REMARK    3  A    between atoms: C_7  and  S_8
REMARK    4  A    between atoms: S_8  and  N_11
REMARK    5  A    between atoms: C_13  and  C_15
REMARK    6  A    between atoms: C_18  and  S_21
REMARK    7  A    between atoms: S_21  and  C_22
REMARK                            x       y       z     vdW  Elec       q    Type
REMARK                         _______ _______ _______ _____ _____    ______ ____
ROOT
ATOM      1  N   UNL     1       3.583   2.123  -0.021  0.00  0.00    -0.282 N 
ATOM      2  C   UNL     1       4.758   1.467   0.066  0.00  0.00    +0.248 C 
ATOM      3  O   UNL     1       4.776   0.251   0.060  0.00  0.00    -0.270 OA
ATOM      4  H   UNL     1       3.572   3.091  -0.084  0.00  0.00    +0.155 HD
ENDROOT
BRANCH   1   7
ATOM      5  C   UNL     1       0.070   1.232   0.593  0.00  0.00    +0.007 A 
ATOM      6  C   UNL     1       1.256   1.940   0.595  0.00  0.00    +0.023 A 
ATOM      7  C   UNL     1       2.381   1.408  -0.021  0.00  0.00    +0.034 A 
ATOM      8  C   UNL     1       2.310   0.165  -0.636  0.00  0.00    +0.023 A 
ATOM      9  C   UNL     1       1.121  -0.538  -0.634  0.00  0.00    +0.007 A 
ATOM     10  C   UNL     1       0.003  -0.005  -0.021  0.00  0.00    -0.025 A 
BRANCH  10  11
ATOM     11  C   UNL     1      -1.293  -0.775  -0.021  0.00  0.00    +0.219 C 
BRANCH  11  12
ATOM     12  S   UNL     1      -2.260  -0.331  -1.489  0.00  0.00    +0.031 S 
ATOM     13  O   UNL     1      -2.697   1.018  -1.398  0.00  0.00    -0.158 OA
ATOM     14  O   UNL     1      -1.614  -0.805  -2.663  0.00  0.00    -0.158 OA
BRANCH  12  15
ATOM     15  N   UNL     1      -3.645  -1.232  -1.376  0.00  0.00    -0.208 NA
ATOM     16  H   UNL     1      -3.773  -1.831  -0.623  0.00  0.00    +0.144 HD
ATOM     17  H   UNL     1      -4.327  -1.162  -2.062  0.00  0.00    +0.144 HD
ENDBRANCH  12  15
ENDBRANCH  11  12
ENDBRANCH  10  11
ENDBRANCH   1   7
BRANCH   2  18
ATOM     18  C   UNL     1       6.019   2.223   0.169  0.00  0.00    +0.037 A 
ATOM     19  C   UNL     1       5.998   3.622   0.181  0.00  0.00    +0.014 A 
ATOM     20  C   UNL     1       7.173   4.322   0.277  0.00  0.00    +0.016 A 
ATOM     21  C   UNL     1       8.386   3.643   0.361  0.00  0.00    +0.016 A 
ATOM     22  C   UNL     1       8.410   2.250   0.348  0.00  0.00    +0.016 A 
ATOM     23  C   UNL     1       7.238   1.544   0.259  0.00  0.00    +0.014 A 
BRANCH  21  24
ATOM     24  S   UNL     1       9.893   4.547   0.483  0.00  0.00    -0.016 S 
BRANCH  24  25
ATOM     25  C   UNL     1      11.171   3.261   0.566  0.00  0.00    +0.448 C 
ATOM     26  F   UNL     1      11.119   2.477  -0.591  0.00  0.00    -0.160 F 
ATOM     27  F   UNL     1      12.430   3.861   0.667  0.00  0.00    -0.160 F 
ATOM     28  F   UNL     1      10.947   2.454   1.687  0.00  0.00    -0.160 F 
ENDBRANCH  24  25
ENDBRANCH  21  24
ENDBRANCH   2  18
TORSDOF 7
