REMARK  Name = ZINC14463782
REMARK  2 active torsions:
REMARK  status: ('A' for Active; 'I' for Inactive)
REMARK    1  A    between atoms: C_10  and  C_11
REMARK    2  A    between atoms: C_24  and  C_27
REMARK                            x       y       z     vdW  Elec       q    Type
REMARK                         _______ _______ _______ _____ _____    ______ ____
ROOT
ATOM      1  C   UNL     1      -2.429  -0.110   0.055  0.00  0.00    +0.105 C 
ATOM      2  C   UNL     1      -2.435   1.233  -0.646  0.00  0.00    +0.029 C 
ATOM      3  C   UNL     1      -3.664   2.132  -0.470  0.00  0.00    +0.033 C 
ATOM      4  C   UNL     1      -3.044   3.525  -0.610  0.00  0.00    -0.030 C 
ATOM      5  C   UNL     1      -1.763   3.487  -0.261  0.00  0.00    -0.023 C 
ATOM      6  C   UNL     1      -1.432   2.107   0.169  0.00  0.00    +0.049 C 
ATOM      7  C   UNL     1      -0.093   1.508  -0.022  0.00  0.00    -0.019 A 
ATOM      8  C   UNL     1       1.049   2.279  -0.046  0.00  0.00    +0.006 A 
ATOM      9  C   UNL     1       2.297   1.696  -0.189  0.00  0.00    +0.001 A 
ATOM     10  C   UNL     1       2.405   0.327  -0.307  0.00  0.00    +0.015 A 
ATOM     11  C   UNL     1       1.261  -0.468  -0.290  0.00  0.00    +0.058 A 
ATOM     12  C   UNL     1      -0.015   0.119  -0.158  0.00  0.00    +0.044 A 
ATOM     13  N   UNL     1      -1.115  -0.722  -0.192  0.00  0.00    -0.336 N 
ATOM     14  H   UNL     1      -1.124  -1.270  -1.040  0.00  0.00    +0.147 HD
ENDROOT
BRANCH   1  24
ATOM     15  C   UNL     1      -4.741  -4.438   1.511  0.00  0.00    +0.001 A 
ATOM     16  C   UNL     1      -3.732  -3.638   2.045  0.00  0.00    +0.001 A 
ATOM     17  C   UNL     1      -3.319  -2.511   1.404  0.00  0.00    +0.009 A 
ATOM     18  C   UNL     1      -3.917  -2.145   0.185  0.00  0.00    -0.013 A 
ATOM     19  C   UNL     1      -4.943  -2.959  -0.357  0.00  0.00    -0.018 A 
ATOM     20  C   UNL     1      -5.343  -4.116   0.334  0.00  0.00    +0.008 A 
ATOM     21  C   UNL     1      -5.542  -2.593  -1.574  0.00  0.00    +0.008 A 
ATOM     22  C   UNL     1      -5.129  -1.465  -2.215  0.00  0.00    +0.001 A 
ATOM     23  C   UNL     1      -4.125  -0.662  -1.679  0.00  0.00    +0.006 A 
ATOM     24  C   UNL     1      -3.519  -0.988  -0.505  0.00  0.00    -0.019 A 
ENDBRANCH   1  24
BRANCH  11  25
ATOM     25  C   UNL     1       1.384  -1.932  -0.411  0.00  0.00    +0.243 C 
ATOM     26  O   UNL     1       0.388  -2.629  -0.396  0.00  0.00    -0.270 OA
ATOM     27  N   UNL     1       2.601  -2.497  -0.538  0.00  0.00    -0.325 N 
ATOM     28  H   UNL     1       3.396  -1.941  -0.550  0.00  0.00    +0.145 HD
ATOM     29  H   UNL     1       2.682  -3.461  -0.617  0.00  0.00    +0.145 HD
ENDBRANCH  11  25
TORSDOF 2
