REMARK  Name = ZINC45068778
REMARK  5 active torsions:
REMARK  status: ('A' for Active; 'I' for Inactive)
REMARK    1  A    between atoms: C_1  and  C_2
REMARK    2  A    between atoms: C_5  and  S_9
REMARK    3  A    between atoms: C_6  and  N_8
REMARK    4  A    between atoms: S_9  and  N_12
REMARK    5  A    between atoms: C_16  and  C_18
REMARK                            x       y       z     vdW  Elec       q    Type
REMARK                         _______ _______ _______ _____ _____    ______ ____
ROOT
ATOM      1  S   UNL     1       0.151  -4.644  -0.163  0.00  0.00    +0.063 S 
ATOM      2  O   UNL     1      -0.762  -4.452   0.909  0.00  0.00    -0.153 OA
ATOM      3  O   UNL     1      -0.111  -5.538  -1.236  0.00  0.00    -0.153 OA
ENDROOT
BRANCH   1   8
ATOM      4  C   UNL     1       1.078   0.786  -2.637  0.00  0.00    +0.044 C 
ATOM      5  C   UNL     1       0.848  -0.567  -2.016  0.00  0.00    -0.049 A 
ATOM      6  C   UNL     1       0.534  -1.651  -2.816  0.00  0.00    +0.005 A 
ATOM      7  C   UNL     1       0.322  -2.894  -2.251  0.00  0.00    +0.030 A 
ATOM      8  C   UNL     1       0.423  -3.058  -0.883  0.00  0.00    +0.126 A 
ATOM      9  C   UNL     1       0.738  -1.973  -0.076  0.00  0.00    +0.051 A 
ATOM     10  C   UNL     1       0.956  -0.726  -0.648  0.00  0.00    +0.028 A 
BRANCH   9  11
ATOM     11  N   UNL     1       0.840  -2.136   1.308  0.00  0.00    -0.356 N 
ATOM     12  H   UNL     1       0.770  -3.021   1.698  0.00  0.00    +0.142 HD
ATOM     13  H   UNL     1       0.982  -1.363   1.878  0.00  0.00    +0.142 HD
ENDBRANCH   9  11
ENDBRANCH   1   8
BRANCH   1  14
ATOM     14  N   UNL     1       1.583  -5.125   0.516  0.00  0.00    -0.173 NA
ATOM     15  C   UNL     1       2.854  -5.318  -0.206  0.00  0.00    +0.110 C 
ATOM     16  C   UNL     1       3.953  -5.144   0.872  0.00  0.00    +0.019 C 
ATOM     17  C   UNL     1       3.285  -5.805   2.107  0.00  0.00    +0.022 C 
ATOM     18  C   UNL     1       1.799  -5.424   1.939  0.00  0.00    +0.083 C 
BRANCH  18  19
ATOM     19  C   UNL     1       0.913  -6.596   2.365  0.00  0.00    +0.008 C 
ATOM     20  C   UNL     1      -0.559  -6.142   2.451  0.00  0.00    +0.005 C 
ATOM     21  C   UNL     1      -1.123  -6.911   3.672  0.00  0.00    +0.000 C 
ATOM     22  C   UNL     1       0.065  -6.891   4.666  0.00  0.00    +0.000 C 
ATOM     23  C   UNL     1       1.309  -7.073   3.773  0.00  0.00    +0.005 C 
ENDBRANCH  18  19
ENDBRANCH   1  14
TORSDOF 4
