REMARK  Name = ZINC59311362
REMARK  9 active torsions:
REMARK  status: ('A' for Active; 'I' for Inactive)
REMARK    1  A    between atoms: C_1  and  C_2
REMARK    2  A    between atoms: C_2  and  C_26
REMARK    3  A    between atoms: N_3  and  N_4
REMARK    4  A    between atoms: C_7  and  S_10
REMARK    5  A    between atoms: S_10  and  C_11
REMARK    6  A    between atoms: C_11  and  C_12
REMARK    7  A    between atoms: N_14  and  C_15
REMARK    8  A    between atoms: C_17  and  C_22
REMARK    9  A    between atoms: C_29  and  N_32
REMARK                            x       y       z     vdW  Elec       q    Type
REMARK                         _______ _______ _______ _____ _____    ______ ____
ROOT
ATOM      1  N   UNL     1      -0.032   0.035   2.341  0.00  0.00    -0.205 N 
ATOM      2  C   UNL     1      -0.004  -0.663   3.535  0.00  0.00    +0.232 A 
ATOM      3  N   UNL     1       0.032  -1.972   3.665  0.00  0.00    -0.186 NA
ATOM      4  C   UNL     1       0.052  -2.295   4.963  0.00  0.00    +0.211 A 
ATOM      5  N   UNL     1       0.030  -1.194   5.676  0.00  0.00    -0.144 NA
ATOM      6  N   UNL     1      -0.001  -0.121   4.771  0.00  0.00    -0.245 N 
ATOM      7  H   UNL     1      -0.053   1.005   2.347  0.00  0.00    +0.177 HD
ATOM      8  H   UNL     1      -0.018   0.824   4.992  0.00  0.00    +0.192 HD
ENDROOT
BRANCH   1  11
ATOM      9  C   UNL     1      -0.091   1.504   0.013  0.00  0.00    +0.068 C 
ATOM     10  C   UNL     1      -0.059  -0.003   0.004  0.00  0.00    +0.063 C 
ATOM     11  N   UNL     1      -0.032  -0.658   1.124  0.00  0.00    -0.184 NA
BRANCH  10  12
ATOM     12  C   UNL     1      -0.059  -0.733  -1.277  0.00  0.00    -0.002 A 
ATOM     13  C   UNL     1      -0.082  -0.031  -2.485  0.00  0.00    +0.012 A 
ATOM     14  C   UNL     1      -0.081  -0.721  -3.680  0.00  0.00    +0.033 A 
ATOM     15  C   UNL     1      -0.058  -2.104  -3.684  0.00  0.00    +0.126 A 
ATOM     16  C   UNL     1      -0.035  -2.806  -2.491  0.00  0.00    +0.033 A 
ATOM     17  C   UNL     1      -0.029  -2.130  -1.289  0.00  0.00    +0.012 A 
BRANCH  15  18
ATOM     18  N   UNL     1      -0.058  -2.837  -4.970  0.00  0.00    +0.056 N 
ATOM     19  O   UNL     1      -0.078  -2.227  -6.014  0.00  0.00    -0.126 OA
ATOM     20  O   UNL     1      -0.038  -4.046  -4.977  0.00  0.00    -0.126 OA
ENDBRANCH  15  18
ENDBRANCH  10  12
ENDBRANCH   1  11
BRANCH   4  21
ATOM     21  S   UNL     1       0.101  -3.933   5.609  0.00  0.00    -0.075 S 
BRANCH  21  22
ATOM     22  C   UNL     1       0.112  -3.695   7.408  0.00  0.00    +0.173 C 
BRANCH  22  23
ATOM     23  C   UNL     1       0.152  -5.037   8.092  0.00  0.00    +0.228 C 
ATOM     24  O   UNL     1       0.172  -6.054   7.432  0.00  0.00    -0.275 OA
ATOM     25  N   UNL     1       0.167  -5.107   9.438  0.00  0.00    -0.284 N 
ATOM     26  H   UNL     1       0.232  -4.295   9.965  0.00  0.00    +0.155 HD
BRANCH  25  27
ATOM     27  C   UNL     1       0.088  -6.351  10.075  0.00  0.00    +0.052 A 
ATOM     28  C   UNL     1      -0.503  -7.428   9.428  0.00  0.00    +0.037 A 
ATOM     29  C   UNL     1      -0.579  -8.654  10.059  0.00  0.00    +0.057 A 
ATOM     30  C   UNL     1      -0.067  -8.810  11.334  0.00  0.00    +0.014 A 
ATOM     31  C   UNL     1       0.522  -7.741  11.982  0.00  0.00    +0.022 A 
ATOM     32  C   UNL     1       0.607  -6.512  11.354  0.00  0.00    +0.062 A 
ATOM     33 CL   UNL     1       1.354  -5.171  12.165  0.00  0.00    -0.082 Cl
BRANCH  29  34
ATOM     34  C   UNL     1      -1.221  -9.823   9.357  0.00  0.00    +0.417 C 
ATOM     35  F   UNL     1      -0.250 -10.520   8.629  0.00  0.00    -0.166 F 
ATOM     36  F   UNL     1      -1.796 -10.677  10.304  0.00  0.00    -0.166 F 
ATOM     37  F   UNL     1      -2.212  -9.357   8.486  0.00  0.00    -0.166 F 
ENDBRANCH  29  34
ENDBRANCH  25  27
ENDBRANCH  22  23
ENDBRANCH  21  22
ENDBRANCH   4  21
TORSDOF 8
