REMARK  Name = ZINC43288369
REMARK  9 active torsions:
REMARK  status: ('A' for Active; 'I' for Inactive)
REMARK    1  A    between atoms: C_1  and  C_2
REMARK    2  A    between atoms: C_2  and  C_4
REMARK    3  A    between atoms: C_2  and  N_23
REMARK    4  A    between atoms: C_4  and  C_6
REMARK    5  A    between atoms: C_4  and  O_12
REMARK    6  A    between atoms: O_12  and  C_13
REMARK    7  A    between atoms: C_16  and  C_21
REMARK    8  A    between atoms: C_18  and  O_19
REMARK    9  A    between atoms: O_19  and  C_20
REMARK                            x       y       z     vdW  Elec       q    Type
REMARK                         _______ _______ _______ _____ _____    ______ ____
ROOT
ATOM      1  C   UNL     1       0.752  -0.519   1.250  0.00  0.00    +0.196 C 
ENDROOT
BRANCH   1   2
ATOM      2  C   UNL     1       0.860  -2.022   1.302  0.00  0.00    +0.029 A 
ATOM      3  C   UNL     1       1.901  -2.815   0.951  0.00  0.00    +0.030 A 
ATOM      4  C   UNL     1       1.775  -4.185   1.085  0.00  0.00    +0.025 A 
ATOM      5  C   UNL     1       0.613  -4.694   1.563  0.00  0.00    +0.060 A 
ATOM      6  S   UNL     1      -0.347  -3.217   1.849  0.00  0.00    -0.097 S 
ATOM      7 BR   UNL     1       3.201  -5.332   0.607  0.00  0.00    -0.050 Br
ENDBRANCH   1   2
BRANCH   1   9
ATOM      8  C   UNL     1      -0.143   1.418  -0.049  0.00  0.00    -0.010 C 
ATOM      9  C   UNL     1      -0.033  -0.107   0.004  0.00  0.00    -0.032 C 
BRANCH   9  10
ATOM     10  N   UNL     1       0.664  -0.590  -1.196  0.00  0.00    +0.382 N 
ATOM     11  H   UNL     1       1.589  -0.187  -1.232  0.00  0.00    -0.089 HD
ATOM     12  H   UNL     1       0.737  -1.595  -1.161  0.00  0.00    -0.089 HD
ATOM     13  H   UNL     1       0.146  -0.318  -2.018  0.00  0.00    -0.089 HD
ENDBRANCH   9  10
ENDBRANCH   1   9
BRANCH   1  14
ATOM     14  O   UNL     1       0.073  -0.050   2.417  0.00  0.00    -0.482 OA
BRANCH  14  15
ATOM     15  C   UNL     1       0.539   1.094   2.983  0.00  0.00    +0.163 A 
ATOM     16  C   UNL     1       1.549   1.813   2.361  0.00  0.00    +0.051 A 
ATOM     17  C   UNL     1       2.025   2.974   2.930  0.00  0.00    +0.022 A 
ATOM     18  C   UNL     1       1.490   3.430   4.138  0.00  0.00    +0.055 A 
ATOM     19  C   UNL     1       0.472   2.705   4.765  0.00  0.00    +0.068 A 
ATOM     20  C   UNL     1      -0.003   1.545   4.186  0.00  0.00    +0.163 A 
BRANCH  20  21
ATOM     21  O   UNL     1      -0.997   0.841   4.790  0.00  0.00    -0.491 OA
ATOM     22  C   UNL     1      -1.506   1.361   6.020  0.00  0.00    +0.277 C 
ENDBRANCH  20  21
BRANCH  18  23
ATOM     23  C   UNL     1       1.983   4.636   4.732  0.00  0.00    +0.099 C 
ATOM     24  N   UNL     1       2.374   5.593   5.203  0.00  0.00    -0.191 NA
ENDBRANCH  18  23
ENDBRANCH  14  15
ENDBRANCH   1  14
TORSDOF 7
