REMARK  Name = ZINC02570522
REMARK  5 active torsions:
REMARK  status: ('A' for Active; 'I' for Inactive)
REMARK    1  A    between atoms: C_1  and  C_2
REMARK    2  A    between atoms: C_2  and  C_23
REMARK    3  A    between atoms: C_12  and  O_21
REMARK    4  A    between atoms: C_13  and  C_16
REMARK    5  A    between atoms: C_16  and  C_18
REMARK                            x       y       z     vdW  Elec       q    Type
REMARK                         _______ _______ _______ _____ _____    ______ ____
ROOT
ATOM      1  C   UNL     1      -0.411   0.948   0.157  0.00  0.00    +0.022 C 
ATOM      2  C   UNL     1      -1.019   1.528   1.435  0.00  0.00    +0.034 C 
ATOM      3  C   UNL     1      -2.481   1.164   1.538  0.00  0.00    -0.012 A 
ATOM      4  C   UNL     1      -3.142  -0.040   1.617  0.00  0.00    +0.006 A 
ATOM      5  C   UNL     1      -4.523  -0.066   1.703  0.00  0.00    +0.000 A 
ATOM      6  C   UNL     1      -5.235   1.119   1.706  0.00  0.00    +0.002 A 
ATOM      7  C   UNL     1      -4.576   2.329   1.624  0.00  0.00    +0.026 A 
ATOM      8  C   UNL     1      -3.186   2.361   1.538  0.00  0.00    +0.054 A 
ATOM      9  N   UNL     1      -2.308   3.454   1.448  0.00  0.00    -0.278 N 
ATOM     10  C   UNL     1      -1.015   3.042   1.384  0.00  0.00    +0.059 A 
ATOM     11  C   UNL     1       0.013   3.920   1.292  0.00  0.00    +0.104 A 
ATOM     12  C   UNL     1      -0.237   5.300   1.260  0.00  0.00    +0.153 A 
ATOM     13  C   UNL     1      -1.572   5.740   1.327  0.00  0.00    +0.128 A 
ATOM     14  C   UNL     1      -2.604   4.775   1.422  0.00  0.00    +0.270 A 
ATOM     15  O   UNL     1      -3.767   5.137   1.480  0.00  0.00    -0.266 OA
ATOM     16 CL   UNL     1       1.645   3.334   1.213  0.00  0.00    -0.078 Cl
ATOM     17  C   UNL     1      -0.256   1.032   2.664  0.00  0.00    +0.022 C 
ENDROOT
BRANCH  13  18
ATOM     18  C   UNL     1      -1.877   7.121   1.298  0.00  0.00    +0.204 C 
ATOM     19  O   UNL     1      -1.552   7.834   2.226  0.00  0.00    -0.289 OA
BRANCH  18  20
ATOM     20  C   UNL     1      -2.607   7.707   0.117  0.00  0.00    +0.242 C 
ATOM     21 CL   UNL     1      -2.084   9.416  -0.124  0.00  0.00    -0.096 Cl
ATOM     22 CL   UNL     1      -2.226   6.748  -1.361  0.00  0.00    -0.096 Cl
ENDBRANCH  18  20
ENDBRANCH  13  18
BRANCH  12  23
ATOM     23  O   UNL     1       0.779   6.186   1.169  0.00  0.00    -0.504 OA
ATOM     24  H   UNL     1       1.655   5.777   1.130  0.00  0.00    +0.292 HD
ENDBRANCH  12  23
TORSDOF 3
