REMARK  Name = ZINC20882159
REMARK  8 active torsions:
REMARK  status: ('A' for Active; 'I' for Inactive)
REMARK    1  A    between atoms: C_1  and  C_2
REMARK    2  A    between atoms: C_2  and  C_3
REMARK    3  A    between atoms: C_6  and  C_9
REMARK    4  A    between atoms: C_14  and  C_19
REMARK    5  A    between atoms: C_21  and  O_27
REMARK    6  A    between atoms: C_24  and  O_25
REMARK    7  A    between atoms: O_25  and  C_26
REMARK    8  A    between atoms: O_27  and  C_28
REMARK                            x       y       z     vdW  Elec       q    Type
REMARK                         _______ _______ _______ _____ _____    ______ ____
ROOT
ATOM      1  C   UNL     1      -3.164   7.189   0.140  0.00  0.00    +0.136 C 
ATOM      2  C   UNL     1      -1.920   6.357  -0.060  0.00  0.00    +0.036 C 
ATOM      3  C   UNL     1      -1.411   5.970  -1.243  0.00  0.00    +0.017 C 
ATOM      4  C   UNL     1      -0.144   5.133  -1.300  0.00  0.00    +0.060 C 
ATOM      5  C   UNL     1      -0.068   4.219  -0.079  0.00  0.00    +0.036 C 
ATOM      6  C   UNL     1      -0.064   5.108   1.171  0.00  0.00    +0.088 C 
ATOM      7  C   UNL     1      -1.288   5.972   1.146  0.00  0.00    +0.163 C 
ATOM      8  O   UNL     1      -1.756   6.356   2.200  0.00  0.00    -0.292 OA
ATOM      9  N   UNL     1      -1.942   6.282  -2.452  0.00  0.00    -0.316 N 
ATOM     10  C   UNL     1      -3.290   6.179  -2.781  0.00  0.00    +0.052 A 
ATOM     11  C   UNL     1      -3.745   5.336  -3.779  0.00  0.00    +0.025 A 
ATOM     12  C   UNL     1      -5.084   5.365  -4.133  0.00  0.00    +0.002 A 
ATOM     13  C   UNL     1      -5.955   6.229  -3.496  0.00  0.00    +0.002 A 
ATOM     14  C   UNL     1      -5.505   7.057  -2.482  0.00  0.00    +0.025 A 
ATOM     15  C   UNL     1      -4.171   7.017  -2.113  0.00  0.00    +0.049 A 
ATOM     16  N   UNL     1      -3.680   7.798  -1.068  0.00  0.00    -0.331 N 
ATOM     17  H   UNL     1      -1.292   6.648  -3.261  0.00  0.00    +0.152 HD
ATOM     18  H   UNL     1      -3.688   8.893  -1.171  0.00  0.00    +0.147 HD
ENDROOT
BRANCH   1  22
ATOM     19  C   UNL     1      -6.207   4.697   1.805  0.00  0.00    -0.048 A 
ATOM     20  C   UNL     1      -5.721   5.771   2.527  0.00  0.00    +0.004 A 
ATOM     21  C   UNL     1      -4.736   6.577   1.988  0.00  0.00    +0.006 A 
ATOM     22  C   UNL     1      -4.237   6.310   0.727  0.00  0.00    -0.023 A 
ATOM     23  C   UNL     1      -4.727   5.239   0.003  0.00  0.00    +0.006 A 
ATOM     24  C   UNL     1      -5.709   4.430   0.544  0.00  0.00    +0.004 A 
BRANCH  19  26
ATOM     25  C   UNL     1      -8.656   4.368   2.012  0.00  0.00    +0.009 C 
ATOM     26  C   UNL     1      -7.280   3.817   2.393  0.00  0.00    +0.032 C 
ENDBRANCH  19  26
ENDBRANCH   1  22
BRANCH   5  27
ATOM     27  C   UNL     1       1.198   3.403  -0.130  0.00  0.00    +0.002 A 
ATOM     28  C   UNL     1       2.426   4.034  -0.145  0.00  0.00    +0.053 A 
ATOM     29  C   UNL     1       3.591   3.284  -0.192  0.00  0.00    +0.121 A 
ATOM     30  C   UNL     1       3.523   1.898  -0.224  0.00  0.00    +0.049 A 
ATOM     31  C   UNL     1       2.295   1.267  -0.203  0.00  0.00    +0.049 A 
ATOM     32  C   UNL     1       1.129   2.018  -0.162  0.00  0.00    +0.124 A 
BRANCH  32  33
ATOM     33  O   UNL     1      -0.080   1.397  -0.147  0.00  0.00    -0.495 OA
ATOM     34  C   UNL     1      -0.076  -0.032  -0.182  0.00  0.00    +0.277 C 
ENDBRANCH  32  33
BRANCH  29  35
ATOM     35  O   UNL     1       4.801   3.905  -0.207  0.00  0.00    -0.495 OA
ATOM     36  C   UNL     1       5.959   3.070  -0.256  0.00  0.00    +0.277 C 
ENDBRANCH  29  35
ENDBRANCH   5  27
TORSDOF 5
