REMARK  Name = ZINC09041185
REMARK  6 active torsions:
REMARK  status: ('A' for Active; 'I' for Inactive)
REMARK    1  A    between atoms: C_1  and  C_2
REMARK    2  A    between atoms: C_3  and  C_25
REMARK    3  A    between atoms: C_9  and  S_13
REMARK    4  A    between atoms: S_13  and  C_14
REMARK    5  A    between atoms: C_14  and  C_15
REMARK    6  A    between atoms: N_17  and  C_18
REMARK                            x       y       z     vdW  Elec       q    Type
REMARK                         _______ _______ _______ _____ _____    ______ ____
ROOT
ATOM      1  C   UNL     1       8.063   1.370  -0.146  0.00  0.00    +0.052 C 
ATOM      2  C   UNL     1       6.568   1.555  -0.121  0.00  0.00    -0.003 A 
ATOM      3  C   UNL     1       5.866   2.713  -0.107  0.00  0.00    +0.007 A 
ATOM      4  C   UNL     1       4.408   2.650  -0.083  0.00  0.00    +0.080 A 
ATOM      5  C   UNL     1       3.459   3.718  -0.065  0.00  0.00    +0.261 A 
ATOM      6  O   UNL     1       3.836   4.878  -0.070  0.00  0.00    -0.267 OA
ATOM      7  N   UNL     1       2.146   3.429  -0.050  0.00  0.00    -0.301 N 
ATOM      8  H   UNL     1       1.499   4.152  -0.042  0.00  0.00    +0.171 HD
ATOM      9  C   UNL     1       1.706   2.137  -0.040  0.00  0.00    +0.170 A 
ATOM     10  N   UNL     1       2.560   1.133  -0.056  0.00  0.00    -0.216 NA
ATOM     11  C   UNL     1       3.869   1.352  -0.077  0.00  0.00    +0.117 A 
ATOM     12  S   UNL     1       5.300   0.303  -0.102  0.00  0.00    -0.073 S 
ENDROOT
BRANCH   3  13
ATOM     13  C   UNL     1       6.566   4.020  -0.116  0.00  0.00    -0.016 A 
ATOM     14  C   UNL     1       6.460   4.878   0.977  0.00  0.00    +0.008 A 
ATOM     15  C   UNL     1       7.118   6.091   0.966  0.00  0.00    +0.001 A 
ATOM     16  C   UNL     1       7.872   6.461  -0.134  0.00  0.00    +0.000 A 
ATOM     17  C   UNL     1       7.976   5.616  -1.224  0.00  0.00    +0.001 A 
ATOM     18  C   UNL     1       7.327   4.398  -1.221  0.00  0.00    +0.008 A 
ENDBRANCH   3  13
BRANCH   9  19
ATOM     19  S   UNL     1      -0.024   1.806  -0.012  0.00  0.00    -0.078 S 
BRANCH  19  20
ATOM     20  C   UNL     1       0.001  -0.003  -0.016  0.00  0.00    +0.173 C 
BRANCH  20  21
ATOM     21  C   UNL     1      -1.412  -0.526   0.007  0.00  0.00    +0.228 C 
ATOM     22  O   UNL     1      -2.345   0.250   0.024  0.00  0.00    -0.275 OA
ATOM     23  N   UNL     1      -1.640  -1.854   0.008  0.00  0.00    -0.284 N 
ATOM     24  H   UNL     1      -0.898  -2.473  -0.071  0.00  0.00    +0.155 HD
BRANCH  23  25
ATOM     25  C   UNL     1      -2.947  -2.340   0.123  0.00  0.00    +0.047 A 
ATOM     26  C   UNL     1      -4.002  -1.645  -0.454  0.00  0.00    +0.024 A 
ATOM     27  C   UNL     1      -5.290  -2.128  -0.342  0.00  0.00    +0.002 A 
ATOM     28  C   UNL     1      -5.533  -3.300   0.353  0.00  0.00    +0.001 A 
ATOM     29  C   UNL     1      -4.487  -3.992   0.933  0.00  0.00    +0.017 A 
ATOM     30  C   UNL     1      -3.194  -3.516   0.821  0.00  0.00    +0.039 A 
ATOM     31 BR   UNL     1      -1.764  -4.463   1.616  0.00  0.00    -0.048 Br
ENDBRANCH  23  25
ENDBRANCH  20  21
ENDBRANCH  19  20
ENDBRANCH   9  19
TORSDOF 5
