REMARK  Name = ZINC35758199
REMARK  11 active torsions:
REMARK  status: ('A' for Active; 'I' for Inactive)
REMARK    1  A    between atoms: C_4  and  C_7
REMARK    2  A    between atoms: C_8  and  C_22
REMARK    3  A    between atoms: C_9  and  N_12
REMARK    4  A    between atoms: C_22  and  N_23
REMARK    5  A    between atoms: N_23  and  C_24
REMARK    6  A    between atoms: N_23  and  C_31
REMARK    7  A    between atoms: C_24  and  C_25
REMARK    8  A    between atoms: C_31  and  C_32
REMARK    9  A    between atoms: C_32  and  C_34
REMARK   10  A    between atoms: C_32  and  O_41
REMARK   11  A    between atoms: C_34  and  N_35
REMARK                            x       y       z     vdW  Elec       q    Type
REMARK                         _______ _______ _______ _____ _____    ______ ____
ROOT
ATOM      1  C   UNL     1       5.397  -1.813   0.367  0.00  0.00    +0.117 A 
ATOM      2  C   UNL     1       3.987  -1.825   0.321  0.00  0.00    +0.025 A 
ATOM      3  C   UNL     1       3.595  -1.028  -0.706  0.00  0.00    +0.223 A 
ATOM      4  O   UNL     1       4.698  -0.529  -1.289  0.00  0.00    -0.339 OA
ATOM      5  N   UNL     1       5.827  -1.031  -0.596  0.00  0.00    -0.076 NA
ENDROOT
BRANCH   3   6
ATOM      6  N   UNL     1       2.290  -0.775  -1.085  0.00  0.00    -0.295 N 
ATOM      7  C   UNL     1       1.554   0.389  -0.565  0.00  0.00    +0.113 C 
ATOM      8  C   UNL     1       1.245   1.314  -1.741  0.00  0.00    +0.054 C 
ATOM      9  C   UNL     1       0.676   0.536  -2.899  0.00  0.00    -0.041 A 
ATOM     10  C   UNL     1      -0.042   1.240  -3.858  0.00  0.00    +0.004 A 
ATOM     11  C   UNL     1      -0.581   0.591  -4.949  0.00  0.00    +0.000 A 
ATOM     12  C   UNL     1      -0.405  -0.773  -5.092  0.00  0.00    +0.000 A 
ATOM     13  C   UNL     1       0.304  -1.476  -4.140  0.00  0.00    +0.005 A 
ATOM     14  C   UNL     1       0.842  -0.824  -3.039  0.00  0.00    -0.027 A 
ATOM     15  C   UNL     1       1.585  -1.651  -2.027  0.00  0.00    +0.143 C 
ENDBRANCH   3   6
BRANCH   1  19
ATOM     16  C   UNL     1       7.826  -3.921   3.150  0.00  0.00    +0.000 A 
ATOM     17  C   UNL     1       8.174  -3.897   1.811  0.00  0.00    +0.001 A 
ATOM     18  C   UNL     1       7.389  -3.214   0.904  0.00  0.00    +0.010 A 
ATOM     19  C   UNL     1       6.245  -2.549   1.339  0.00  0.00    +0.004 A 
ATOM     20  C   UNL     1       5.899  -2.578   2.688  0.00  0.00    +0.010 A 
ATOM     21  C   UNL     1       6.691  -3.263   3.586  0.00  0.00    +0.001 A 
ENDBRANCH   1  19
BRANCH   2  22
ATOM     22  C   UNL     1       3.076  -2.589   1.247  0.00  0.00    -0.035 C 
BRANCH  22  23
ATOM     23  N   UNL     1       2.513  -3.745   0.536  0.00  0.00    +0.386 N 
ATOM     24  H   UNL     1       2.080  -3.435  -0.321  0.00  0.00    -0.081 HD
BRANCH  23  25
ATOM     25  C   UNL     1       3.585  -4.699   0.226  0.00  0.00    -0.046 C 
BRANCH  25  26
ATOM     26  C   UNL     1       4.176  -5.245   1.527  0.00  0.00    +0.102 C 
ATOM     27  C   UNL     1       5.422  -6.102   1.218  0.00  0.00    +0.032 C 
ATOM     28  C   UNL     1       5.274  -7.274   2.227  0.00  0.00    +0.030 C 
ATOM     29  C   UNL     1       3.733  -7.428   2.275  0.00  0.00    +0.160 C 
ATOM     30  O   UNL     1       3.219  -6.089   2.179  0.00  0.00    -0.378 OA
ENDBRANCH  25  26
ENDBRANCH  23  25
BRANCH  23  31
ATOM     31  C   UNL     1       1.507  -4.398   1.385  0.00  0.00    -0.045 C 
BRANCH  31  32
ATOM     32  C   UNL     1       0.910  -5.593   0.639  0.00  0.00    +0.112 C 
BRANCH  32  33
ATOM     33  O   UNL     1       0.306  -5.144  -0.576  0.00  0.00    -0.392 OA
ATOM     34  H   UNL     1      -0.407  -4.503  -0.447  0.00  0.00    +0.210 HD
ENDBRANCH  32  33
BRANCH  32  35
ATOM     35  C   UNL     1      -0.149  -6.265   1.516  0.00  0.00    +0.114 C 
BRANCH  35  36
ATOM     36  N   UNL     1      -0.681  -7.447   0.824  0.00  0.00    -0.296 NA
ATOM     37  C   UNL     1      -1.979  -7.847   1.387  0.00  0.00    +0.112 C 
ATOM     38  C   UNL     1      -2.523  -9.042   0.600  0.00  0.00    +0.175 C 
ATOM     39  O   UNL     1      -1.567 -10.105   0.634  0.00  0.00    -0.377 OA
ATOM     40  C   UNL     1      -0.292  -9.750   0.093  0.00  0.00    +0.175 C 
ATOM     41  C   UNL     1       0.276  -8.562   0.875  0.00  0.00    +0.112 C 
ENDBRANCH  35  36
ENDBRANCH  32  35
ENDBRANCH  31  32
ENDBRANCH  23  31
ENDBRANCH  22  23
ENDBRANCH   2  22
TORSDOF 11
