REMARK  Name = ZINC66990354
REMARK  6 active torsions:
REMARK  status: ('A' for Active; 'I' for Inactive)
REMARK    1  A    between atoms: C_4  and  N_23
REMARK    2  A    between atoms: C_5  and  C_7
REMARK    3  A    between atoms: C_7  and  N_8
REMARK    4  A    between atoms: N_8  and  C_9
REMARK    5  A    between atoms: C_9  and  C_11
REMARK    6  A    between atoms: C_9  and  C_18
REMARK                            x       y       z     vdW  Elec       q    Type
REMARK                         _______ _______ _______ _____ _____    ______ ____
ROOT
ATOM      1  N   UNL     1       1.496  -2.769   0.984  0.00  0.00    -0.301 NA
ATOM      2  H   UNL     1       2.324  -2.345   1.375  0.00  0.00    +0.123 HD
ENDROOT
BRANCH   1   3
ATOM      3  C   UNL     1       1.134  -2.138  -0.292  0.00  0.00    +0.119 C 
BRANCH   3   8
ATOM      4  C   UNL     1       1.922   1.554  -0.335  0.00  0.00    +0.000 A 
ATOM      5  C   UNL     1       0.792   2.089   0.256  0.00  0.00    +0.002 A 
ATOM      6  C   UNL     1      -0.230   1.260   0.672  0.00  0.00    +0.023 A 
ATOM      7  C   UNL     1      -0.123  -0.114   0.495  0.00  0.00    +0.034 A 
ATOM      8  C   UNL     1       1.013  -0.648  -0.099  0.00  0.00    -0.013 A 
ATOM      9  C   UNL     1       2.032   0.187  -0.512  0.00  0.00    +0.007 A 
BRANCH   7  10
ATOM     10  N   UNL     1      -1.155  -0.957   0.915  0.00  0.00    -0.325 N 
ATOM     11  C   UNL     1      -1.197  -1.476   2.291  0.00  0.00    +0.133 C 
ATOM     12  C   UNL     1      -2.591  -1.206   2.868  0.00  0.00    +0.178 C 
ATOM     13  O   UNL     1      -3.579  -1.714   1.968  0.00  0.00    -0.377 OA
ATOM     14  C   UNL     1      -3.578  -1.087   0.683  0.00  0.00    +0.178 C 
ATOM     15  C   UNL     1      -2.237  -1.345  -0.004  0.00  0.00    +0.133 C 
ENDBRANCH   7  10
ENDBRANCH   3   8
ENDBRANCH   1   3
BRANCH   1  16
ATOM     16  C   UNL     1       1.675  -4.219   0.822  0.00  0.00    +0.121 C 
BRANCH  16  17
ATOM     17  C   UNL     1       1.413  -4.907   2.138  0.00  0.00    -0.025 A 
ATOM     18  C   UNL     1       1.858  -4.337   3.316  0.00  0.00    +0.007 A 
ATOM     19  C   UNL     1       1.619  -4.967   4.522  0.00  0.00    +0.020 A 
ATOM     20  C   UNL     1       0.934  -6.169   4.551  0.00  0.00    +0.041 A 
ATOM     21  C   UNL     1       0.489  -6.739   3.371  0.00  0.00    +0.020 A 
ATOM     22  C   UNL     1       0.724  -6.104   2.166  0.00  0.00    +0.007 A 
ATOM     23 CL   UNL     1       0.633  -6.961   6.066  0.00  0.00    -0.084 Cl
ENDBRANCH  16  17
BRANCH  16  24
ATOM     24  C   UNL     1       3.086  -4.505   0.378  0.00  0.00    +0.011 A 
ATOM     25  C   UNL     1       3.520  -5.333  -0.604  0.00  0.00    +0.013 A 
ATOM     26  C   UNL     1       4.878  -5.439  -0.839  0.00  0.00    +0.008 A 
ATOM     27  C   UNL     1       5.735  -4.711  -0.083  0.00  0.00    +0.045 A 
ATOM     28  S   UNL     1       4.619  -3.835   1.000  0.00  0.00    -0.100 S 
ENDBRANCH  16  24
ENDBRANCH   1  16
TORSDOF 6
