REMARK  Name = ZINC02170447
REMARK  5 active torsions:
REMARK  status: ('A' for Active; 'I' for Inactive)
REMARK    1  A    between atoms: C_1  and  C_2
REMARK    2  A    between atoms: C_2  and  C_3
REMARK    3  A    between atoms: C_2  and  C_4
REMARK    4  A    between atoms: C_7  and  C_10
REMARK    5  A    between atoms: N_11  and  N_12
REMARK                            x       y       z     vdW  Elec       q    Type
REMARK                         _______ _______ _______ _____ _____    ______ ____
ROOT
ATOM      1  C   UNL     1       6.395  -0.899   0.355  0.00  0.00    -0.045 A 
ATOM      2  C   UNL     1       5.298  -1.742   0.362  0.00  0.00    +0.004 A 
ATOM      3  C   UNL     1       4.024  -1.221   0.273  0.00  0.00    +0.010 A 
ATOM      4  C   UNL     1       3.842   0.161   0.176  0.00  0.00    -0.005 A 
ATOM      5  C   UNL     1       4.955   1.005   0.165  0.00  0.00    +0.010 A 
ATOM      6  C   UNL     1       6.223   0.471   0.260  0.00  0.00    +0.004 A 
ENDROOT
BRANCH   1   8
ATOM      7  C   UNL     1       8.586  -1.085  -0.790  0.00  0.00    +0.012 C 
ATOM      8  C   UNL     1       7.784  -1.475   0.453  0.00  0.00    +0.013 C 
ATOM      9  C   UNL     1       8.478  -0.926   1.700  0.00  0.00    +0.012 C 
ENDBRANCH   1   8
BRANCH   4  10
ATOM     10  C   UNL     1       2.483   0.725   0.081  0.00  0.00    +0.139 C 
ATOM     11  N   UNL     1       2.318   2.009  -0.009  0.00  0.00    -0.179 NA
BRANCH  11  12
ATOM     12  N   UNL     1       1.027   2.552   0.010  0.00  0.00    -0.146 N 
ATOM     13  C   UNL     1       0.579   3.144  -1.085  0.00  0.00    +0.251 C 
ATOM     14  O   UNL     1       1.245   3.229  -2.094  0.00  0.00    -0.273 OA
ATOM     15  C   UNL     1      -0.830   3.711  -0.990  0.00  0.00    +0.174 C 
ATOM     16  S   UNL     1      -1.241   3.245   0.739  0.00  0.00    -0.091 S 
ATOM     17  C   UNL     1       0.306   2.446   1.141  0.00  0.00    +0.138 C 
ATOM     18  S   UNL     1       0.762   1.711   2.619  0.00  0.00    -0.026 S 
ENDBRANCH  11  12
ENDBRANCH   4  10
TORSDOF 3
