REMARK  Name = ZINC09151117
REMARK  6 active torsions:
REMARK  status: ('A' for Active; 'I' for Inactive)
REMARK    1  A    between atoms: C_1  and  C_2
REMARK    2  A    between atoms: C_2  and  N_51
REMARK    3  A    between atoms: C_8  and  N_22
REMARK    4  A    between atoms: C_9  and  C_10
REMARK    5  A    between atoms: C_10  and  N_11
REMARK    6  A    between atoms: N_14  and  C_15
REMARK                            x       y       z     vdW  Elec       q    Type
REMARK                         _______ _______ _______ _____ _____    ______ ____
ROOT
ATOM      1  C   UNL     1      -6.027   0.764   3.853  0.00  0.00    -0.074 C 
ATOM      2  C   UNL     1      -4.945   1.060   2.813  0.00  0.00    +0.018 C 
ATOM      3  C   UNL     1      -5.334   0.368   1.509  0.00  0.00    -0.034 A 
ATOM      4  C   UNL     1      -6.260  -0.631   1.533  0.00  0.00    -0.021 A 
ATOM      5  S   UNL     1      -6.398  -1.122  -0.163  0.00  0.00    -0.077 S 
ATOM      6  C   UNL     1      -5.214   0.030  -0.845  0.00  0.00    +0.089 A 
ATOM      7  C   UNL     1      -4.799   0.696   0.266  0.00  0.00    +0.004 A 
ATOM      8  C   UNL     1      -6.972  -1.164   2.732  0.00  0.00    -0.035 C 
ATOM      9  N   UNL     1      -6.245  -0.695   3.937  0.00  0.00    +0.383 N 
ATOM     10  H   UNL     1      -5.334  -1.167   3.983  0.00  0.00    -0.081 HD
ENDROOT
BRANCH   6  11
ATOM     11  N   UNL     1      -4.816   0.201  -2.176  0.00  0.00    -0.317 N 
ATOM     12  C   UNL     1      -5.650   0.264  -3.255  0.00  0.00    +0.092 A 
ATOM     13  C   UNL     1      -4.897   0.438  -4.361  0.00  0.00    +0.019 A 
ATOM     14  C   UNL     1      -3.549   0.473  -3.953  0.00  0.00    +0.019 A 
ATOM     15  C   UNL     1      -3.528   0.326  -2.612  0.00  0.00    +0.092 A 
ENDBRANCH   6  11
BRANCH   9  17
ATOM     16  C   UNL     1      -7.035  -2.541   5.337  0.00  0.00    -0.017 C 
ATOM     17  C   UNL     1      -7.018  -1.022   5.154  0.00  0.00    -0.082 C 
ENDBRANCH   9  17
BRANCH   7  18
ATOM     18  C   UNL     1      -3.767   1.788   0.151  0.00  0.00    +0.144 C 
BRANCH  18  19
ATOM     19  N   UNL     1      -2.438   1.236   0.428  0.00  0.00    -0.295 N 
ATOM     20  C   UNL     1      -1.354   2.035   0.383  0.00  0.00    +0.304 C 
ATOM     21  O   UNL     1      -1.478   3.214   0.113  0.00  0.00    -0.252 OA
ATOM     22  N   UNL     1      -0.132   1.527   0.637  0.00  0.00    -0.269 N 
ATOM     23  H   UNL     1      -2.339   0.295   0.643  0.00  0.00    +0.151 HD
ATOM     24  H   UNL     1      -0.023   0.574   0.783  0.00  0.00    +0.156 HD
BRANCH  22  25
ATOM     25  C   UNL     1       0.982   2.373   0.685  0.00  0.00    +0.036 A 
ATOM     26  C   UNL     1       1.063   3.465  -0.170  0.00  0.00    +0.023 A 
ATOM     27  C   UNL     1       2.160   4.302  -0.116  0.00  0.00    +0.003 A 
ATOM     28  C   UNL     1       3.183   4.048   0.779  0.00  0.00    +0.015 A 
ATOM     29  C   UNL     1       3.108   2.958   1.628  0.00  0.00    +0.020 A 
ATOM     30  C   UNL     1       2.010   2.120   1.583  0.00  0.00    +0.038 A 
ATOM     31 BR   UNL     1       4.510   2.614   2.850  0.00  0.00    -0.050 Br
ENDBRANCH  22  25
ENDBRANCH  18  19
ENDBRANCH   7  18
TORSDOF 5
