REMARK  Name = ZINC24007573
REMARK  10 active torsions:
REMARK  status: ('A' for Active; 'I' for Inactive)
REMARK    1  A    between atoms: C_1  and  C_2
REMARK    2  A    between atoms: C_4  and  C_30
REMARK    3  A    between atoms: N_9  and  C_10
REMARK    4  A    between atoms: C_10  and  C_11
REMARK    5  A    between atoms: N_13  and  C_14
REMARK    6  A    between atoms: C_14  and  C_15
REMARK    7  A    between atoms: C_19  and  C_21
REMARK    8  A    between atoms: C_24  and  O_29
REMARK    9  A    between atoms: C_25  and  O_27
REMARK   10  A    between atoms: O_27  and  C_28
REMARK                            x       y       z     vdW  Elec       q    Type
REMARK                         _______ _______ _______ _____ _____    ______ ____
ROOT
ATOM      1  C   UNL     1      -5.757  -5.293   0.341  0.00  0.00    +0.044 C 
ATOM      2  C   UNL     1      -4.556  -4.422   0.076  0.00  0.00    -0.049 A 
ATOM      3  C   UNL     1      -3.322  -5.003  -0.168  0.00  0.00    +0.010 A 
ATOM      4  C   UNL     1      -2.212  -4.219  -0.412  0.00  0.00    -0.007 A 
ATOM      5  C   UNL     1      -2.328  -2.836  -0.416  0.00  0.00    +0.140 A 
ATOM      6  C   UNL     1      -3.578  -2.250  -0.169  0.00  0.00    +0.041 A 
ATOM      7  C   UNL     1      -4.690  -3.049   0.077  0.00  0.00    +0.017 A 
ATOM      8  C   UNL     1      -3.678  -0.772  -0.177  0.00  0.00    +0.050 A 
ATOM      9  N   UNL     1      -4.820  -0.162   0.048  0.00  0.00    -0.375 N 
ATOM     10  C   UNL     1      -2.484  -0.040  -0.435  0.00  0.00    +0.072 A 
ATOM     11  C   UNL     1      -1.329  -0.710  -0.666  0.00  0.00    +0.138 A 
ATOM     12  O   UNL     1      -1.254  -2.052  -0.654  0.00  0.00    -0.454 OA
ATOM     13  C   UNL     1      -0.877  -4.865  -0.676  0.00  0.00    +0.047 C 
ATOM     14  H   UNL     1      -5.746  -0.747   0.146  0.00  0.00    +0.160 HD
ENDROOT
BRANCH  11  15
ATOM     15  C   UNL     1      -0.102   0.065  -0.935  0.00  0.00    +0.021 A 
ATOM     16  C   UNL     1      -0.146   1.462  -0.955  0.00  0.00    +0.015 A 
ATOM     17  C   UNL     1       1.001   2.184  -1.207  0.00  0.00    +0.050 A 
ATOM     18  C   UNL     1       2.201   1.527  -1.442  0.00  0.00    +0.158 A 
ATOM     19  C   UNL     1       2.252   0.135  -1.425  0.00  0.00    +0.162 A 
ATOM     20  C   UNL     1       1.106  -0.596  -1.172  0.00  0.00    +0.061 A 
BRANCH  19  21
ATOM     21  O   UNL     1       3.429  -0.505  -1.656  0.00  0.00    -0.491 OA
ATOM     22  C   UNL     1       3.408  -1.934  -1.622  0.00  0.00    +0.277 C 
ENDBRANCH  19  21
BRANCH  18  23
ATOM     23  O   UNL     1       3.328   2.244  -1.690  0.00  0.00    -0.503 OA
ATOM     24  H   UNL     1       4.280   1.725  -1.877  0.00  0.00    +0.292 HD
ENDBRANCH  18  23
ENDBRANCH  11  15
BRANCH   9  25
ATOM     25  C   UNL     1      -4.860   1.297   0.167  0.00  0.00    +0.209 C 
BRANCH  25  26
ATOM     26  C   UNL     1      -5.651   1.874  -0.979  0.00  0.00    +0.233 C 
ATOM     27  O   UNL     1      -6.134   1.138  -1.813  0.00  0.00    -0.274 OA
ATOM     28  N   UNL     1      -5.822   3.207  -1.077  0.00  0.00    -0.303 N 
ATOM     29  H   UNL     1      -5.384   3.875  -0.320  0.00  0.00    +0.149 HD
BRANCH  28  30
ATOM     30  C   UNL     1      -6.590   3.767  -2.191  0.00  0.00    +0.229 C 
BRANCH  30  31
ATOM     31  C   UNL     1      -6.631   5.269  -2.068  0.00  0.00    +0.373 C 
ATOM     32  O   UNL     1      -6.075   5.815  -1.145  0.00  0.00    -0.245 OA
ATOM     33  O   UNL     1      -7.285   6.000  -2.985  0.00  0.00    -0.245 OA
ENDBRANCH  30  31
ENDBRANCH  28  30
ENDBRANCH  25  26
ENDBRANCH   9  25
TORSDOF 7
