REMARK  Name = ZINC27238074
REMARK  14 active torsions:
REMARK  status: ('A' for Active; 'I' for Inactive)
REMARK    1  A    between atoms: C_1  and  C_2
REMARK    2  A    between atoms: C_2  and  C_3
REMARK    3  A    between atoms: C_3  and  C_4
REMARK    4  A    between atoms: C_4  and  C_5
REMARK    5  A    between atoms: C_5  and  C_6
REMARK    6  A    between atoms: C_5  and  C_15
REMARK    7  A    between atoms: C_5  and  O_34
REMARK    8  A    between atoms: C_9  and  O_12
REMARK    9  A    between atoms: O_12  and  C_13
REMARK   10  A    between atoms: C_13  and  C_14
REMARK   11  A    between atoms: C_15  and  C_17
REMARK   12  A    between atoms: C_15  and  O_25
REMARK   13  A    between atoms: C_17  and  N_18
REMARK   14  A    between atoms: O_25  and  C_26
REMARK                            x       y       z     vdW  Elec       q    Type
REMARK                         _______ _______ _______ _____ _____    ______ ____
ROOT
ATOM      1  C   UNL     1       2.404  -2.680  -0.862  0.00  0.00    +0.193 C 
ENDROOT
BRANCH   1   2
ATOM      2  C   UNL     1       1.150  -2.183  -0.139  0.00  0.00    +0.126 C 
BRANCH   2   3
ATOM      3  C   UNL     1       1.131  -0.676  -0.144  0.00  0.00    -0.012 A 
ATOM      4  C   UNL     1       2.101   0.028   0.547  0.00  0.00    +0.010 A 
ATOM      5  C   UNL     1       2.086   1.409   0.544  0.00  0.00    +0.046 A 
ATOM      6  C   UNL     1       1.098   2.090  -0.152  0.00  0.00    +0.121 A 
ATOM      7  C   UNL     1       0.127   1.381  -0.844  0.00  0.00    +0.046 A 
ATOM      8  C   UNL     1       0.145  -0.000  -0.838  0.00  0.00    +0.010 A 
BRANCH   6   9
ATOM      9  O   UNL     1       1.081   3.449  -0.156  0.00  0.00    -0.492 OA
BRANCH   9  10
ATOM     10  C   UNL     1       0.034   4.082  -0.894  0.00  0.00    +0.225 C 
ATOM     11  C   UNL     1       0.179   5.601  -0.782  0.00  0.00    +0.048 C 
ENDBRANCH   9  10
ENDBRANCH   6   9
ENDBRANCH   2   3
BRANCH   2  12
ATOM     12  O   UNL     1      -0.012  -2.676  -0.809  0.00  0.00    -0.380 OA
ATOM     13  H   UNL     1      -0.192  -2.415  -1.863  0.00  0.00    +0.211 HD
ENDBRANCH   2  12
BRANCH   2  14
ATOM     14  C   UNL     1       1.159  -2.689   1.304  0.00  0.00    +0.043 C 
BRANCH  14  15
ATOM     15  C   UNL     1       1.304  -4.212   1.310  0.00  0.00    +0.003 C 
BRANCH  15  17
ATOM     16  C   UNL     1       1.457  -6.241   2.760  0.00  0.00    +0.004 C 
ATOM     17  C   UNL     1       1.313  -4.718   2.754  0.00  0.00    -0.003 C 
ENDBRANCH  15  17
ENDBRANCH  14  15
ENDBRANCH   2  14
ENDBRANCH   1   2
BRANCH   1  18
ATOM     18  C   UNL     1       2.466  -2.062  -2.260  0.00  0.00    -0.030 C 
BRANCH  18  19
ATOM     19  N   UNL     1       1.360  -2.583  -3.075  0.00  0.00    +0.382 N 
ATOM     20  C   UNL     1       1.420  -4.059  -3.168  0.00  0.00    -0.079 C 
ATOM     21  C   UNL     1       0.482  -4.617  -4.203  0.00  0.00    -0.019 C 
ATOM     22  C   UNL     1       1.256  -4.780  -5.528  0.00  0.00    -0.002 C 
ATOM     23  C   UNL     1       1.411  -3.514  -6.236  0.00  0.00    -0.002 C 
ATOM     24  C   UNL     1       2.206  -2.480  -5.411  0.00  0.00    -0.019 C 
ATOM     25  C   UNL     1       1.287  -1.885  -4.378  0.00  0.00    -0.079 C 
ATOM     26  H   UNL     1       0.409  -2.360  -2.569  0.00  0.00    -0.082 HD
ENDBRANCH  18  19
ENDBRANCH   1  18
BRANCH   1  27
ATOM     27  O   UNL     1       3.564  -2.297  -0.120  0.00  0.00    -0.486 OA
BRANCH  27  28
ATOM     28  C   UNL     1       4.682  -3.052  -0.289  0.00  0.00    +0.139 A 
ATOM     29  C   UNL     1       4.696  -4.071  -1.231  0.00  0.00    +0.048 A 
ATOM     30  C   UNL     1       5.834  -4.834  -1.404  0.00  0.00    +0.023 A 
ATOM     31  C   UNL     1       6.957  -4.590  -0.632  0.00  0.00    +0.043 A 
ATOM     32  C   UNL     1       6.944  -3.579   0.311  0.00  0.00    +0.043 A 
ATOM     33  C   UNL     1       5.808  -2.809   0.485  0.00  0.00    +0.084 A 
ATOM     34 CL   UNL     1       5.791  -1.540   1.669  0.00  0.00    -0.080 Cl
ATOM     35 CL   UNL     1       8.383  -5.556  -0.848  0.00  0.00    -0.083 Cl
ENDBRANCH  27  28
ENDBRANCH   1  27
TORSDOF 12
