REMARK  Name = ZINC04070076
REMARK  4 active torsions:
REMARK  status: ('A' for Active; 'I' for Inactive)
REMARK    1  A    between atoms: C_1  and  C_2
REMARK    2  A    between atoms: C_8  and  C_24
REMARK    3  A    between atoms: C_9  and  N_11
REMARK    4  A    between atoms: C_12  and  C_14
REMARK                            x       y       z     vdW  Elec       q    Type
REMARK                         _______ _______ _______ _____ _____    ______ ____
ROOT
ATOM      1  N   UNL     1      -0.643   2.292  -4.920  0.00  0.00    -0.279 N 
ATOM      2  C   UNL     1      -1.555   2.785  -5.781  0.00  0.00    +0.224 C 
ATOM      3  O   UNL     1      -2.658   3.095  -5.384  0.00  0.00    -0.275 OA
ATOM      4  H   UNL     1       0.239   2.044  -5.237  0.00  0.00    +0.155 HD
ENDROOT
BRANCH   1  12
ATOM      5  C   UNL     1      -0.113   0.928   2.498  0.00  0.00    +0.008 C 
ATOM      6  C   UNL     1      -0.735   1.582   1.262  0.00  0.00    -0.009 C 
ATOM      7  C   UNL     1      -2.223   1.219   1.181  0.00  0.00    +0.009 C 
ATOM      8  C   UNL     1      -2.886   2.079   0.096  0.00  0.00    +0.043 C 
ATOM      9  C   UNL     1      -2.033   2.026  -1.134  0.00  0.00    -0.004 A 
ATOM     10  C   UNL     1      -0.755   1.593  -1.222  0.00  0.00    -0.018 A 
ATOM     11  C   UNL     1      -0.172   1.653  -2.551  0.00  0.00    +0.084 A 
ATOM     12  C   UNL     1      -0.967   2.139  -3.579  0.00  0.00    +0.090 A 
ATOM     13  S   UNL     1      -2.461   2.506  -2.783  0.00  0.00    -0.077 S 
ATOM     14  C   UNL     1      -0.013   1.086   0.008  0.00  0.00    +0.040 C 
BRANCH  11  15
ATOM     15  C   UNL     1       1.174   1.228  -2.791  0.00  0.00    +0.102 C 
ATOM     16  N   UNL     1       2.241   0.890  -2.981  0.00  0.00    -0.191 NA
ENDBRANCH  11  15
ENDBRANCH   1  12
BRANCH   2  17
ATOM     17  C   UNL     1      -1.204   2.952  -7.237  0.00  0.00    +0.048 C 
ATOM     18  C   UNL     1      -0.016   3.907  -7.369  0.00  0.00    +0.019 C 
ATOM     19  C   UNL     1       0.341   4.076  -8.847  0.00  0.00    -0.009 C 
ATOM     20  C   UNL     1      -0.862   4.650  -9.600  0.00  0.00    +0.007 C 
ATOM     21  C   UNL     1      -2.049   3.695  -9.467  0.00  0.00    -0.009 C 
ATOM     22  C   UNL     1      -2.406   3.526  -7.989  0.00  0.00    +0.019 C 
ATOM     23  C   UNL     1      -1.678   2.334 -10.061  0.00  0.00    +0.007 C 
ATOM     24  C   UNL     1      -0.475   1.760  -9.309  0.00  0.00    -0.009 C 
ATOM     25  C   UNL     1       0.712   2.716  -9.441  0.00  0.00    +0.007 C 
ATOM     26  C   UNL     1      -0.832   1.591  -7.831  0.00  0.00    +0.019 C 
ENDBRANCH   2  17
TORSDOF 3
