REMARK  Name = ZINC42817777
REMARK  4 active torsions:
REMARK  status: ('A' for Active; 'I' for Inactive)
REMARK    1  A    between atoms: C_1  and  N_2
REMARK    2  A    between atoms: C_6  and  C_9
REMARK    3  A    between atoms: N_17  and  C_18
REMARK    4  A    between atoms: C_18  and  C_19
REMARK                            x       y       z     vdW  Elec       q    Type
REMARK                         _______ _______ _______ _____ _____    ______ ____
ROOT
ATOM      1  C   UNL     1       0.671   1.204  -0.644  0.00  0.00    +0.105 C 
ATOM      2  N   UNL     1       0.336  -0.194  -0.343  0.00  0.00    -0.302 NA
ATOM      3  C   UNL     1       0.593  -1.058  -1.503  0.00  0.00    +0.103 C 
ATOM      4  C   UNL     1       0.065  -2.467  -1.214  0.00  0.00    +0.125 C 
ATOM      5  N   UNL     1       0.650  -2.935   0.051  0.00  0.00    -0.276 N 
ATOM      6  C   UNL     1       0.553  -2.059   1.229  0.00  0.00    +0.122 C 
ATOM      7  C   UNL     1       1.062  -0.666   0.844  0.00  0.00    +0.111 C 
ATOM      8  C   UNL     1       1.260  -4.134   0.130  0.00  0.00    +0.303 C 
ATOM      9  O   UNL     1       1.816  -4.467   1.158  0.00  0.00    -0.253 OA
ATOM     10  N   UNL     1       1.252  -4.965  -0.932  0.00  0.00    -0.293 N 
ATOM     11  H   UNL     1       0.871  -4.671  -1.774  0.00  0.00    +0.151 HD
ENDROOT
BRANCH   6  12
ATOM     12  C   UNL     1       1.394  -2.619   2.347  0.00  0.00    -0.026 A 
ATOM     13  C   UNL     1       2.769  -2.674   2.216  0.00  0.00    +0.005 A 
ATOM     14  C   UNL     1       3.541  -3.187   3.241  0.00  0.00    +0.000 A 
ATOM     15  C   UNL     1       2.938  -3.645   4.398  0.00  0.00    +0.000 A 
ATOM     16  C   UNL     1       1.563  -3.589   4.529  0.00  0.00    +0.000 A 
ATOM     17  C   UNL     1       0.791  -3.071   3.506  0.00  0.00    +0.005 A 
ENDBRANCH   6  12
BRANCH  10  18
ATOM     18  C   UNL     1       1.819  -6.311  -0.813  0.00  0.00    +0.168 C 
BRANCH  18  19
ATOM     19  C   UNL     1       1.686  -7.029  -2.131  0.00  0.00    +0.097 A 
ATOM     20  N   UNL     1       2.537  -7.053  -3.115  0.00  0.00    -0.242 NA
ATOM     21  C   UNL     1       2.301  -7.740  -4.252  0.00  0.00    +0.079 A 
ATOM     22  C   UNL     1       3.098  -7.877  -5.408  0.00  0.00    +0.029 A 
ATOM     23  C   UNL     1       2.667  -8.626  -6.460  0.00  0.00    +0.002 A 
ATOM     24  C   UNL     1       1.442  -9.277  -6.436  0.00  0.00    +0.001 A 
ATOM     25  C   UNL     1       0.633  -9.167  -5.321  0.00  0.00    +0.017 A 
ATOM     26  C   UNL     1       1.058  -8.413  -4.254  0.00  0.00    +0.039 A 
ATOM     27  S   UNL     1       0.408  -7.989  -2.659  0.00  0.00    -0.071 S 
ENDBRANCH  18  19
ENDBRANCH  10  18
TORSDOF 3
