REMARK  Name = ZINC06553871
REMARK  8 active torsions:
REMARK  status: ('A' for Active; 'I' for Inactive)
REMARK    1  A    between atoms: C_1  and  C_2
REMARK    2  A    between atoms: C_2  and  O_3
REMARK    3  A    between atoms: O_3  and  C_4
REMARK    4  A    between atoms: C_6  and  C_11
REMARK    5  A    between atoms: C_9  and  O_10
REMARK    6  A    between atoms: C_19  and  O_27
REMARK    7  A    between atoms: C_23  and  O_25
REMARK    8  A    between atoms: O_25  and  C_26
REMARK                            x       y       z     vdW  Elec       q    Type
REMARK                         _______ _______ _______ _____ _____    ______ ____
ROOT
ATOM      1  C   UNL     1      -2.921   1.533   0.010  0.00  0.00    +0.115 C 
ATOM      2  C   UNL     1      -1.989   1.066  -1.113  0.00  0.00    +0.046 C 
ATOM      3  C   UNL     1      -2.523   1.577  -2.453  0.00  0.00    +0.008 C 
ATOM      4  C   UNL     1      -1.593   1.127  -3.580  0.00  0.00    +0.001 C 
ATOM      5  C   UNL     1      -0.192   1.696  -3.341  0.00  0.00    +0.003 C 
ATOM      6  C   UNL     1       0.345   1.183  -2.003  0.00  0.00    +0.035 C 
ATOM      7  C   UNL     1      -0.586   1.628  -0.873  0.00  0.00    +0.072 C 
ATOM      8  C   UNL     1      -0.045   1.103   0.460  0.00  0.00    +0.054 C 
ATOM      9  C   UNL     1      -0.957   1.571   1.598  0.00  0.00    +0.114 C 
ATOM     10  N   UNL     1      -2.333   1.157   1.303  0.00  0.00    -0.260 N 
ATOM     11  C   UNL     1      -3.043   0.444   2.200  0.00  0.00    +0.403 C 
ATOM     12  O   UNL     1      -4.182   0.106   1.943  0.00  0.00    -0.226 OA
ENDROOT
BRANCH   1  15
ATOM     13  C   UNL     1      -3.836   4.986  -1.220  0.00  0.00    +0.162 A 
ATOM     14  C   UNL     1      -3.687   3.610  -1.157  0.00  0.00    +0.055 A 
ATOM     15  C   UNL     1      -3.083   3.030  -0.057  0.00  0.00    -0.023 A 
ATOM     16  C   UNL     1      -2.630   3.820   0.984  0.00  0.00    +0.009 A 
ATOM     17  C   UNL     1      -2.771   5.194   0.924  0.00  0.00    +0.049 A 
ATOM     18  C   UNL     1      -3.376   5.781  -0.175  0.00  0.00    +0.158 A 
BRANCH  18  19
ATOM     19  O   UNL     1      -3.520   7.133  -0.233  0.00  0.00    -0.503 OA
ATOM     20  H   UNL     1      -4.348   7.457   0.147  0.00  0.00    +0.292 HD
ENDBRANCH  18  19
BRANCH  13  21
ATOM     21  O   UNL     1      -4.431   5.558  -2.302  0.00  0.00    -0.489 OA
BRANCH  21  23
ATOM     22  C   UNL     1      -5.515   5.498  -4.460  0.00  0.00    +0.048 C 
ATOM     23  C   UNL     1      -4.878   4.679  -3.336  0.00  0.00    +0.226 C 
ENDBRANCH  21  23
ENDBRANCH  13  21
ENDBRANCH   1  15
BRANCH  11  24
ATOM     24  O   UNL     1      -2.491   0.106   3.380  0.00  0.00    -0.454 OA
ATOM     25  C   UNL     1      -3.314  -0.662   4.297  0.00  0.00    +0.282 C 
ENDBRANCH  11  24
BRANCH   7  26
ATOM     26  O   UNL     1      -0.643   3.055  -0.836  0.00  0.00    -0.388 OA
ATOM     27  H   UNL     1       0.213   3.479  -0.688  0.00  0.00    +0.210 HD
ENDBRANCH   7  26
TORSDOF 6
