REMARK  Name = ZINC63964310
REMARK  6 active torsions:
REMARK  status: ('A' for Active; 'I' for Inactive)
REMARK    1  A    between atoms: C_1  and  C_2
REMARK    2  A    between atoms: C_2  and  C_3
REMARK    3  A    between atoms: C_8  and  N_13
REMARK    4  A    between atoms: C_14  and  C_16
REMARK    5  A    between atoms: C_16  and  C_18
REMARK    6  A    between atoms: C_26  and  C_28
REMARK                            x       y       z     vdW  Elec       q    Type
REMARK                         _______ _______ _______ _____ _____    ______ ____
ROOT
ATOM      1  N   UNL     1      -2.944  -5.190   3.308  0.00  0.00    -0.279 N 
ATOM      2  C   UNL     1      -3.470  -5.453   4.521  0.00  0.00    +0.288 C 
ATOM      3  O   UNL     1      -3.613  -4.556   5.327  0.00  0.00    -0.266 OA
ATOM      4  H   UNL     1      -2.907  -5.887   2.634  0.00  0.00    +0.155 HD
ENDROOT
BRANCH   1   9
ATOM      5  C   UNL     1      -0.588   0.276   3.718  0.00  0.00    +0.260 C 
ATOM      6  N   UNL     1      -0.931  -0.857   4.588  0.00  0.00    -0.307 N 
ATOM      7  C   UNL     1      -1.473  -1.844   3.753  0.00  0.00    +0.074 A 
ATOM      8  C   UNL     1      -1.961  -3.111   4.041  0.00  0.00    +0.050 A 
ATOM      9  C   UNL     1      -2.453  -3.913   3.020  0.00  0.00    +0.036 A 
ATOM     10  C   UNL     1      -2.457  -3.443   1.712  0.00  0.00    +0.027 A 
ATOM     11  C   UNL     1      -1.972  -2.183   1.427  0.00  0.00    +0.049 A 
ATOM     12  C   UNL     1      -1.477  -1.375   2.444  0.00  0.00    +0.144 A 
ATOM     13  O   UNL     1      -0.956  -0.117   2.393  0.00  0.00    -0.469 OA
ATOM     14  H   UNL     1      -0.806  -0.911   5.549  0.00  0.00    +0.150 HD
BRANCH   5  16
ATOM     15  C   UNL     1      -0.935   2.712   3.287  0.00  0.00    +0.009 C 
ATOM     16  C   UNL     1      -1.377   1.519   4.136  0.00  0.00    +0.062 C 
ENDBRANCH   5  16
ENDBRANCH   1   9
BRANCH   2  17
ATOM     17  C   UNL     1      -3.874  -6.842   4.872  0.00  0.00    +0.246 C 
ATOM     18  O   UNL     1      -3.636  -7.756   4.105  0.00  0.00    -0.282 OA
BRANCH  17  19
ATOM     19  C   UNL     1      -4.533  -7.098   6.094  0.00  0.00    +0.035 C 
ATOM     20  C   UNL     1      -4.861  -8.335   6.627  0.00  0.00    +0.007 A 
ATOM     21  C   UNL     1      -4.668  -9.658   6.174  0.00  0.00    +0.010 A 
ATOM     22  C   UNL     1      -5.101 -10.704   6.917  0.00  0.00    +0.001 A 
ATOM     23  C   UNL     1      -5.751 -10.535   8.149  0.00  0.00    +0.002 A 
ATOM     24  C   UNL     1      -5.985  -9.311   8.671  0.00  0.00    +0.026 A 
ATOM     25  C   UNL     1      -5.544  -8.120   7.926  0.00  0.00    +0.043 A 
ATOM     26  N   UNL     1      -5.638  -6.847   8.188  0.00  0.00    -0.377 N 
ATOM     27  C   UNL     1      -5.024  -6.080   7.100  0.00  0.00    +0.111 C 
ATOM     28  C   UNL     1      -6.065  -5.162   6.455  0.00  0.00    +0.035 C 
ATOM     29  H   UNL     1      -6.046  -6.467   8.981  0.00  0.00    +0.160 HD
ENDBRANCH  17  19
ENDBRANCH   2  17
TORSDOF 4
