REMARK  Name = ZINC04749772
REMARK  7 active torsions:
REMARK  status: ('A' for Active; 'I' for Inactive)
REMARK    1  A    between atoms: C_1  and  C_2
REMARK    2  A    between atoms: C_6  and  C_8
REMARK    3  A    between atoms: C_8  and  C_9
REMARK    4  A    between atoms: C_15  and  C_17
REMARK    5  A    between atoms: C_17  and  C_26
REMARK    6  A    between atoms: C_18  and  C_19
REMARK    7  A    between atoms: C_22  and  O_25
REMARK                            x       y       z     vdW  Elec       q    Type
REMARK                         _______ _______ _______ _____ _____    ______ ____
ROOT
ATOM      1  C   UNL     1      -0.044   5.797  -1.413  0.00  0.00    +0.015 A 
ATOM      2  C   UNL     1      -1.101   6.168  -2.176  0.00  0.00    +0.124 A 
ATOM      3  N   UNL     1      -0.872   6.591  -3.404  0.00  0.00    -0.233 NA
ATOM      4  C   UNL     1       0.354   6.654  -3.888  0.00  0.00    +0.165 A 
ATOM      5  S   UNL     1       1.305   6.092  -2.548  0.00  0.00    -0.057 S 
ATOM      6  N   UNL     1       0.776   7.070  -5.144  0.00  0.00    -0.260 N 
ATOM      7  C   UNL     1      -0.127   7.481  -6.056  0.00  0.00    +0.260 C 
ATOM      8  O   UNL     1      -1.311   7.488  -5.779  0.00  0.00    -0.269 OA
ATOM      9  H   UNL     1       1.721   7.064  -5.365  0.00  0.00    +0.157 HD
ENDROOT
BRANCH   7  10
ATOM     10  C   UNL     1       0.320   7.921  -7.387  0.00  0.00    +0.114 C 
ATOM     11  C   UNL     1      -0.603   8.341  -8.319  0.00  0.00    +0.032 C 
BRANCH  11  12
ATOM     12  C   UNL     1      -0.151   8.919  -9.587  0.00  0.00    -0.023 A 
ATOM     13  C   UNL     1       1.067   9.611  -9.652  0.00  0.00    +0.011 A 
ATOM     14  C   UNL     1       1.485  10.143 -10.838  0.00  0.00    +0.046 A 
ATOM     15  C   UNL     1       0.700  10.009 -11.979  0.00  0.00    +0.117 A 
ATOM     16  C   UNL     1      -0.512   9.329 -11.920  0.00  0.00    +0.046 A 
ATOM     17  C   UNL     1      -0.939   8.788 -10.740  0.00  0.00    +0.011 A 
BRANCH  15  18
ATOM     18  O   UNL     1       1.117  10.545 -13.153  0.00  0.00    -0.507 OA
ATOM     19  H   UNL     1       0.824  11.456 -13.296  0.00  0.00    +0.292 HD
ENDBRANCH  15  18
ENDBRANCH  11  12
BRANCH  10  20
ATOM     20  C   UNL     1       1.715   7.912  -7.712  0.00  0.00    +0.104 C 
ATOM     21  N   UNL     1       2.821   7.906  -7.971  0.00  0.00    -0.191 NA
ENDBRANCH  10  20
ENDBRANCH   7  10
BRANCH   1  22
ATOM     22  C   UNL     1      -0.014   5.282   0.003  0.00  0.00    +0.079 C 
BRANCH  22  28
ATOM     23  C   UNL     1      -2.826   1.144   0.085  0.00  0.00    +0.044 C 
ATOM     24  C   UNL     1      -1.470   1.799   0.033  0.00  0.00    -0.050 A 
ATOM     25  C   UNL     1      -0.328   1.022  -0.023  0.00  0.00    +0.003 A 
ATOM     26  C   UNL     1       0.915   1.624  -0.076  0.00  0.00    +0.001 A 
ATOM     27  C   UNL     1       1.017   3.002  -0.068  0.00  0.00    +0.004 A 
ATOM     28  C   UNL     1      -0.125   3.779  -0.006  0.00  0.00    -0.042 A 
ATOM     29  C   UNL     1      -1.368   3.178   0.047  0.00  0.00    +0.007 A 
ENDBRANCH  22  28
ENDBRANCH   1  22
TORSDOF 6
