REMARK  Name = ZINC27550721
REMARK  8 active torsions:
REMARK  status: ('A' for Active; 'I' for Inactive)
REMARK    1  A    between atoms: C_1  and  C_2
REMARK    2  A    between atoms: C_4  and  C_8
REMARK    3  A    between atoms: C_5  and  C_7
REMARK    4  A    between atoms: C_10  and  C_37
REMARK    5  A    between atoms: C_11  and  N_36
REMARK    6  A    between atoms: N_12  and  C_27
REMARK    7  A    between atoms: C_18  and  C_21
REMARK    8  A    between atoms: C_30  and  N_33
REMARK                            x       y       z     vdW  Elec       q    Type
REMARK                         _______ _______ _______ _____ _____    ______ ____
ROOT
ATOM      1  C   UNL     1      -2.875   0.911   0.365  0.00  0.00    +0.098 C 
ATOM      2  C   UNL     1      -2.238   0.364  -0.878  0.00  0.00    +0.077 C 
ATOM      3  C   UNL     1      -1.770  -0.909  -0.925  0.00  0.00    +0.107 C 
ATOM      4  N   UNL     1      -1.882  -1.727   0.176  0.00  0.00    -0.260 N 
ATOM      5  C   UNL     1      -2.790  -1.444   1.163  0.00  0.00    +0.025 C 
ATOM      6  C   UNL     1      -3.296  -0.199   1.295  0.00  0.00    +0.025 C 
ATOM      7  C   UNL     1      -4.227   0.101   2.305  0.00  0.00    +0.162 C 
ATOM      8  O   UNL     1      -4.674   1.228   2.387  0.00  0.00    -0.292 OA
ATOM      9  C   UNL     1      -4.681  -0.947   3.284  0.00  0.00    +0.088 C 
ATOM     10  C   UNL     1      -3.562  -1.979   3.463  0.00  0.00    +0.032 C 
ATOM     11  C   UNL     1      -3.212  -2.557   2.090  0.00  0.00    +0.060 C 
ENDROOT
BRANCH   1  15
ATOM     12  C   UNL     1       1.555   1.831   2.702  0.00  0.00    +0.051 C 
ATOM     13  C   UNL     1       0.188   2.131   2.143  0.00  0.00    -0.013 A 
ATOM     14  C   UNL     1      -0.679   1.301   1.513  0.00  0.00    +0.015 A 
ATOM     15  C   UNL     1      -1.889   1.803   1.074  0.00  0.00    -0.025 A 
ATOM     16  C   UNL     1      -2.179   3.108   1.296  0.00  0.00    -0.009 A 
ATOM     17  S   UNL     1      -0.709   3.675   2.136  0.00  0.00    -0.098 S 
ATOM     18  C   UNL     1      -3.417   3.883   0.923  0.00  0.00    +0.052 C 
ENDBRANCH   1  15
BRANCH  10  19
ATOM     19  C   UNL     1      -4.032  -3.083   4.373  0.00  0.00    -0.044 A 
ATOM     20  C   UNL     1      -5.148  -3.827   4.038  0.00  0.00    +0.004 A 
ATOM     21  C   UNL     1      -5.578  -4.843   4.871  0.00  0.00    +0.000 A 
ATOM     22  C   UNL     1      -4.896  -5.110   6.044  0.00  0.00    +0.000 A 
ATOM     23  C   UNL     1      -3.783  -4.363   6.381  0.00  0.00    +0.000 A 
ATOM     24  C   UNL     1      -3.351  -3.350   5.546  0.00  0.00    +0.004 A 
ENDBRANCH  10  19
BRANCH   4  25
ATOM     25  C   UNL     1      -1.062  -2.856   0.290  0.00  0.00    +0.040 A 
ATOM     26  C   UNL     1      -1.482  -4.076  -0.224  0.00  0.00    +0.026 A 
ATOM     27  C   UNL     1      -0.668  -5.186  -0.116  0.00  0.00    +0.034 A 
ATOM     28  C   UNL     1       0.559  -5.087   0.515  0.00  0.00    +0.126 A 
ATOM     29  C   UNL     1       0.977  -3.876   1.033  0.00  0.00    +0.034 A 
ATOM     30  C   UNL     1       0.171  -2.760   0.923  0.00  0.00    +0.026 A 
BRANCH  28  31
ATOM     31  N   UNL     1       1.426  -6.281   0.634  0.00  0.00    +0.056 N 
ATOM     32  O   UNL     1       2.507  -6.195   1.188  0.00  0.00    -0.126 OA
ATOM     33  O   UNL     1       1.059  -7.349   0.178  0.00  0.00    -0.126 OA
ENDBRANCH  28  31
ENDBRANCH   4  25
BRANCH   3  34
ATOM     34  N   UNL     1      -1.182  -1.383  -2.074  0.00  0.00    -0.345 N 
ATOM     35  H   UNL     1      -0.802  -2.414  -2.113  0.00  0.00    +0.144 HD
ATOM     36  H   UNL     1      -1.091  -0.730  -2.955  0.00  0.00    +0.144 HD
ENDBRANCH   3  34
BRANCH   2  37
ATOM     37  C   UNL     1      -2.122   1.200  -2.035  0.00  0.00    +0.099 C 
ATOM     38  N   UNL     1      -2.029   1.864  -2.953  0.00  0.00    -0.191 NA
ENDBRANCH   2  37
TORSDOF 6
