REMARK  Name = ZINC21259831
REMARK  8 active torsions:
REMARK  status: ('A' for Active; 'I' for Inactive)
REMARK    1  A    between atoms: C_1  and  C_2
REMARK    2  A    between atoms: C_2  and  O_3
REMARK    3  A    between atoms: O_3  and  C_4
REMARK    4  A    between atoms: C_4  and  C_6
REMARK    5  A    between atoms: C_7  and  C_13
REMARK    6  A    between atoms: C_13  and  S_14
REMARK    7  A    between atoms: S_14  and  C_15
REMARK    8  A    between atoms: N_28  and  C_29
REMARK                            x       y       z     vdW  Elec       q    Type
REMARK                         _______ _______ _______ _____ _____    ______ ____
ROOT
ATOM      1  C   UNL     1       0.940   0.651  -2.373  0.00  0.00    +0.173 A 
ATOM      2  N   UNL     1       1.980   0.087  -1.794  0.00  0.00    -0.216 NA
ATOM      3  C   UNL     1       2.890  -0.561  -2.512  0.00  0.00    +0.117 A 
ATOM      4  C   UNL     1       2.794  -0.680  -3.909  0.00  0.00    +0.076 A 
ATOM      5  C   UNL     1       3.873  -1.422  -4.563  0.00  0.00    -0.023 A 
ATOM      6  C   UNL     1       4.845  -1.916  -3.769  0.00  0.00    -0.004 A 
ATOM      7  S   UNL     1       4.389  -1.429  -2.127  0.00  0.00    -0.073 S 
ATOM      8  C   UNL     1       6.048  -2.704  -4.191  0.00  0.00    +0.043 C 
ATOM      9  C   UNL     1       5.828  -3.192  -5.630  0.00  0.00    +0.005 C 
ATOM     10  C   UNL     1       5.340  -2.015  -6.479  0.00  0.00    +0.005 C 
ATOM     11  C   UNL     1       3.914  -1.638  -6.073  0.00  0.00    +0.037 C 
ATOM     12  C   UNL     1       1.654  -0.059  -4.510  0.00  0.00    +0.263 A 
ATOM     13  O   UNL     1       1.487  -0.110  -5.717  0.00  0.00    -0.267 OA
ATOM     14  N   UNL     1       0.766   0.579  -3.725  0.00  0.00    -0.284 N 
ENDROOT
BRANCH  14  15
ATOM     15  C   UNL     1      -0.406   1.213  -4.334  0.00  0.00    +0.093 C 
ATOM     16  C   UNL     1      -1.222   0.168  -5.123  0.00  0.00    +0.025 C 
ATOM     17  C   UNL     1      -1.726   0.942  -6.367  0.00  0.00    +0.002 C 
ATOM     18  C   UNL     1      -0.521   1.849  -6.718  0.00  0.00    +0.002 C 
ATOM     19  C   UNL     1       0.039   2.281  -5.348  0.00  0.00    +0.025 C 
ENDBRANCH  14  15
BRANCH   1  20
ATOM     20  S   UNL     1      -0.248   1.502  -1.389  0.00  0.00    -0.082 S 
BRANCH  20  21
ATOM     21  C   UNL     1       0.477   1.266   0.253  0.00  0.00    +0.128 C 
BRANCH  21  23
ATOM     22  C   UNL     1      -1.365   1.216   1.895  0.00  0.00    +0.071 C 
ATOM     23  C   UNL     1      -0.394   1.930   1.287  0.00  0.00    +0.034 C 
ATOM     24  N   UNL     1      -0.185   3.244   1.598  0.00  0.00    -0.272 N 
ATOM     25  C   UNL     1      -0.911   3.918   2.499  0.00  0.00    +0.304 C 
ATOM     26  O   UNL     1      -0.653   5.088   2.705  0.00  0.00    -0.253 OA
ATOM     27  N   UNL     1      -1.915   3.341   3.188  0.00  0.00    -0.295 N 
ATOM     28  C   UNL     1      -2.218   1.923   2.930  0.00  0.00    +0.150 C 
ATOM     29  H   UNL     1       0.617   3.806   1.098  0.00  0.00    +0.156 HD
ATOM     30  H   UNL     1      -2.502   3.902   3.929  0.00  0.00    +0.151 HD
BRANCH  22  31
ATOM     31  C   UNL     1      -1.579  -0.146   1.578  0.00  0.00    +0.338 C 
ATOM     32  O   UNL     1      -0.971  -0.659   0.658  0.00  0.00    -0.245 OA
BRANCH  31  33
ATOM     33  O   UNL     1      -2.458  -0.876   2.297  0.00  0.00    -0.462 OA
BRANCH  33  35
ATOM     34  C   UNL     1      -3.651  -2.905   2.842  0.00  0.00    +0.048 C 
ATOM     35  C   UNL     1      -2.624  -2.245   1.921  0.00  0.00    +0.229 C 
ENDBRANCH  33  35
ENDBRANCH  31  33
ENDBRANCH  22  31
ENDBRANCH  21  23
ENDBRANCH  20  21
ENDBRANCH   1  20
TORSDOF 7
