REMARK  Name = ZINC43154817
REMARK  9 active torsions:
REMARK  status: ('A' for Active; 'I' for Inactive)
REMARK    1  A    between atoms: C_1  and  C_2
REMARK    2  A    between atoms: C_2  and  C_4
REMARK    3  A    between atoms: C_2  and  N_15
REMARK    4  A    between atoms: N_6  and  C_7
REMARK    5  A    between atoms: N_15  and  C_16
REMARK    6  A    between atoms: C_16  and  C_18
REMARK    7  A    between atoms: C_16  and  C_28
REMARK    8  A    between atoms: C_28  and  C_29
REMARK    9  A    between atoms: C_28  and  C_30
REMARK                            x       y       z     vdW  Elec       q    Type
REMARK                         _______ _______ _______ _____ _____    ______ ____
ROOT
ATOM      1  N   UNL     1       0.880  -0.399   1.239  0.00  0.00    +0.391 N 
ATOM      2  H   UNL     1       0.659  -1.350   1.494  0.00  0.00    -0.084 HD
ATOM      3  H   UNL     1       0.533  -0.210   0.311  0.00  0.00    -0.084 HD
ENDROOT
BRANCH   1   5
ATOM      4  C   UNL     1       0.614   0.103   3.621  0.00  0.00    -0.004 C 
ATOM      5  C   UNL     1       0.252   0.522   2.195  0.00  0.00    +0.014 C 
BRANCH   5   6
ATOM      6  C   UNL     1      -1.244   0.481   2.024  0.00  0.00    +0.203 C 
ATOM      7  O   UNL     1      -1.739  -0.245   1.188  0.00  0.00    -0.277 OA
ATOM      8  N   UNL     1      -2.033   1.251   2.800  0.00  0.00    -0.285 N 
ATOM      9  H   UNL     1      -1.636   1.889   3.413  0.00  0.00    +0.155 HD
BRANCH   8  10
ATOM     10  C   UNL     1      -3.426   1.130   2.720  0.00  0.00    +0.069 A 
ATOM     11  C   UNL     1      -3.995  -0.012   2.174  0.00  0.00    +0.027 A 
ATOM     12  C   UNL     1      -5.369  -0.130   2.096  0.00  0.00    +0.022 A 
ATOM     13  C   UNL     1      -6.180   0.890   2.563  0.00  0.00    +0.044 A 
ATOM     14  C   UNL     1      -5.618   2.030   3.108  0.00  0.00    +0.060 A 
ATOM     15  C   UNL     1      -4.242   2.151   3.194  0.00  0.00    +0.146 A 
ATOM     16  F   UNL     1      -3.693   3.262   3.731  0.00  0.00    -0.203 F 
ATOM     17 CL   UNL     1      -7.907   0.738   2.463  0.00  0.00    -0.083 Cl
ENDBRANCH   8  10
ENDBRANCH   5   6
ENDBRANCH   1   5
BRANCH   1  18
ATOM     18  C   UNL     1       2.337  -0.212   1.264  0.00  0.00    -0.037 C 
BRANCH  18  19
ATOM     19  C   UNL     1       2.893  -0.767   2.550  0.00  0.00    -0.057 A 
ATOM     20  C   UNL     1       2.400  -1.953   3.061  0.00  0.00    +0.006 A 
ATOM     21  C   UNL     1       2.906  -2.464   4.241  0.00  0.00    +0.049 A 
ATOM     22  C   UNL     1       3.912  -1.787   4.916  0.00  0.00    +0.162 A 
ATOM     23  C   UNL     1       4.409  -0.596   4.401  0.00  0.00    +0.162 A 
ATOM     24  C   UNL     1       3.900  -0.091   3.214  0.00  0.00    +0.051 A 
ATOM     25  O   UNL     1       5.401   0.080   5.044  0.00  0.00    -0.485 OA
ATOM     26  C   UNL     1       5.630  -0.264   6.415  0.00  0.00    +0.270 C 
ATOM     27  C   UNL     1       5.659  -1.794   6.528  0.00  0.00    +0.270 C 
ATOM     28  O   UNL     1       4.397  -2.301   6.079  0.00  0.00    -0.485 OA
ENDBRANCH  18  19
BRANCH  18  29
ATOM     29  C   UNL     1       2.966  -0.947   0.078  0.00  0.00    -0.027 C 
ATOM     30  C   UNL     1       2.495  -0.304  -1.228  0.00  0.00    +0.006 C 
ATOM     31  C   UNL     1       4.490  -0.856   0.171  0.00  0.00    +0.006 C 
ENDBRANCH  18  29
ENDBRANCH   1  18
TORSDOF 6
