REMARK  Name = ZINC21315945
REMARK  6 active torsions:
REMARK  status: ('A' for Active; 'I' for Inactive)
REMARK    1  A    between atoms: C_6  and  C_7
REMARK    2  A    between atoms: C_7  and  S_8
REMARK    3  A    between atoms: S_8  and  C_9
REMARK    4  A    between atoms: N_13  and  N_14
REMARK    5  A    between atoms: N_15  and  N_16
REMARK    6  A    between atoms: C_17  and  C_18
REMARK                            x       y       z     vdW  Elec       q    Type
REMARK                         _______ _______ _______ _____ _____    ______ ____
ROOT
ATOM      1  C   UNL     1      -0.809   3.844   1.366  0.00  0.00    +0.210 A 
ATOM      2  N   UNL     1      -0.263   4.523   0.386  0.00  0.00    -0.119 NA
ATOM      3  N   UNL     1      -0.430   5.887   0.658  0.00  0.00    -0.109 NA
ATOM      4  C   UNL     1      -1.073   5.997   1.795  0.00  0.00    +0.254 A 
ATOM      5  N   UNL     1      -1.329   4.736   2.260  0.00  0.00    -0.211 N 
ATOM      6  N   UNL     1      -1.436   7.183   2.416  0.00  0.00    -0.204 N 
ATOM      7  H   UNL     1      -1.976   7.160   3.373  0.00  0.00    +0.177 HD
ENDROOT
BRANCH   5   8
ATOM      8  N   UNL     1      -1.986   4.424   3.416  0.00  0.00    -0.294 N 
ATOM      9  H   UNL     1      -2.366   5.226   4.066  0.00  0.00    +0.163 HD
ATOM     10  H   UNL     1      -2.136   3.371   3.697  0.00  0.00    +0.163 HD
ENDBRANCH   5   8
BRANCH   6  11
ATOM     11  N   UNL     1      -1.114   8.411   1.822  0.00  0.00    -0.188 NA
ATOM     12  C   UNL     1      -1.454   9.522   2.403  0.00  0.00    +0.138 C 
BRANCH  12  13
ATOM     13  C   UNL     1      -1.115  10.813   1.778  0.00  0.00    -0.005 A 
ATOM     14  C   UNL     1      -0.423  10.846   0.565  0.00  0.00    +0.010 A 
ATOM     15  C   UNL     1      -0.113  12.058  -0.016  0.00  0.00    +0.016 A 
ATOM     16  C   UNL     1      -0.476  13.241   0.606  0.00  0.00    +0.018 A 
ATOM     17  C   UNL     1      -1.158  13.215   1.811  0.00  0.00    +0.016 A 
ATOM     18  C   UNL     1      -1.478  12.011   2.401  0.00  0.00    +0.010 A 
ATOM     19 BR   UNL     1      -0.041  14.898  -0.195  0.00  0.00    -0.050 Br
ENDBRANCH  12  13
ENDBRANCH   6  11
BRANCH   1  20
ATOM     20  S   UNL     1      -0.867   2.088   1.503  0.00  0.00    -0.080 S 
BRANCH  20  21
ATOM     21  C   UNL     1      -0.018   1.503   0.010  0.00  0.00    +0.112 C 
BRANCH  21  27
ATOM     22  C   UNL     1       1.057  -0.684   0.582  0.00  0.00    +0.007 A 
ATOM     23  C   UNL     1       1.074  -2.066   0.579  0.00  0.00    +0.038 A 
ATOM     24  C   UNL     1       0.040  -2.769  -0.014  0.00  0.00    +0.123 A 
ATOM     25  C   UNL     1      -1.013  -2.087  -0.599  0.00  0.00    +0.038 A 
ATOM     26  C   UNL     1      -1.031  -0.706  -0.591  0.00  0.00    +0.007 A 
ATOM     27  C   UNL     1       0.002  -0.004   0.002  0.00  0.00    -0.037 A 
ATOM     28  F   UNL     1       0.058  -4.120  -0.021  0.00  0.00    -0.205 F 
ENDBRANCH  21  27
ENDBRANCH  20  21
ENDBRANCH   1  20
TORSDOF 6
