REMARK  Name = ZINC21285736
REMARK  17 active torsions:
REMARK  status: ('A' for Active; 'I' for Inactive)
REMARK    1  A    between atoms: C_1  and  C_2
REMARK    2  A    between atoms: C_2  and  O_3
REMARK    3  A    between atoms: O_3  and  C_4
REMARK    4  A    between atoms: C_6  and  C_14
REMARK    5  A    between atoms: C_9  and  O_10
REMARK    6  A    between atoms: O_10  and  C_11
REMARK    7  A    between atoms: C_15  and  C_16
REMARK    8  A    between atoms: N_18  and  C_19
REMARK    9  A    between atoms: N_18  and  C_23
REMARK   10  A    between atoms: C_19  and  C_20
REMARK   11  A    between atoms: C_20  and  C_21
REMARK   12  A    between atoms: C_20  and  C_22
REMARK   13  A    between atoms: C_24  and  N_36
REMARK   14  A    between atoms: N_25  and  C_32
REMARK   15  A    between atoms: C_32  and  C_33
REMARK   16  A    between atoms: C_33  and  C_34
REMARK   17  A    between atoms: C_33  and  C_35
REMARK                            x       y       z     vdW  Elec       q    Type
REMARK                         _______ _______ _______ _____ _____    ______ ____
ROOT
ATOM      1  C   UNL     1       3.721   3.839   0.036  0.00  0.00    +0.244 C 
ATOM      2  O   UNL     1       3.839   2.637  -0.123  0.00  0.00    -0.270 OA
ATOM      3  N   UNL     1       2.496   4.401   0.042  0.00  0.00    -0.260 N 
ENDROOT
BRANCH   3   4
ATOM      4  C   UNL     1       1.347   3.587  -0.028  0.00  0.00    +0.140 A 
ATOM      5  C   UNL     1       0.461   3.711  -1.080  0.00  0.00    +0.127 A 
ATOM      6  N   UNL     1      -0.651   2.903  -1.121  0.00  0.00    -0.280 N 
ATOM      7  C   UNL     1      -0.876   2.005  -0.144  0.00  0.00    +0.331 A 
ATOM      8  O   UNL     1      -1.868   1.304  -0.196  0.00  0.00    -0.246 OA
ATOM      9  N   UNL     1      -0.022   1.866   0.885  0.00  0.00    -0.273 N 
ATOM     10  H   UNL     1      -0.221   1.119   1.668  0.00  0.00    +0.173 HD
ATOM     11  C   UNL     1       1.082   2.633   0.973  0.00  0.00    +0.277 A 
ATOM     12  O   UNL     1       1.848   2.502   1.913  0.00  0.00    -0.266 OA
BRANCH   5  13
ATOM     13  N   UNL     1       0.689   4.632  -2.075  0.00  0.00    -0.343 N 
ATOM     14  H   UNL     1      -0.021   4.726  -2.910  0.00  0.00    +0.144 HD
ATOM     15  H   UNL     1       1.581   5.275  -2.036  0.00  0.00    +0.144 HD
ENDBRANCH   5  13
BRANCH   6  16
ATOM     16  C   UNL     1      -1.599   3.024  -2.231  0.00  0.00    +0.131 C 
BRANCH  16  17
ATOM     17  C   UNL     1      -1.184   2.080  -3.361  0.00  0.00    +0.003 C 
ATOM     18  C   UNL     1      -1.303   0.631  -2.884  0.00  0.00    +0.009 C 
ATOM     19  C   UNL     1      -2.099   2.296  -4.568  0.00  0.00    +0.009 C 
ENDBRANCH  16  17
ENDBRANCH   6  16
ENDBRANCH   3   4
BRANCH   1  21
ATOM     20  C   UNL     1       6.136   4.109   0.215  0.00  0.00    +0.013 C 
ATOM     21  C   UNL     1       4.909   4.672   0.221  0.00  0.00    +0.068 C 
BRANCH  20  24
ATOM     22  C   UNL     1       9.720   5.157   0.571  0.00  0.00    +0.163 A 
ATOM     23  C   UNL     1       8.602   4.364   0.401  0.00  0.00    +0.057 A 
ATOM     24  C   UNL     1       7.329   4.946   0.401  0.00  0.00    -0.021 A 
ATOM     25  C   UNL     1       7.196   6.327   0.584  0.00  0.00    +0.012 A 
ATOM     26  C   UNL     1       8.317   7.110   0.757  0.00  0.00    +0.050 A 
ATOM     27  C   UNL     1       9.579   6.532   0.752  0.00  0.00    +0.168 A 
BRANCH  22  28
ATOM     28  O   UNL     1      10.959   4.595   0.566  0.00  0.00    -0.489 OA
BRANCH  28  30
ATOM     29  C   UNL     1      12.492   2.735   0.400  0.00  0.00    +0.048 C 
ATOM     30  C   UNL     1      11.029   3.181   0.376  0.00  0.00    +0.226 C 
ENDBRANCH  28  30
ENDBRANCH  22  28
BRANCH  27  31
ATOM     31  O   UNL     1      10.680   7.309   0.924  0.00  0.00    -0.431 OA
BRANCH  31  32
ATOM     32  C   UNL     1      10.464   8.710   1.105  0.00  0.00    +0.541 C 
ATOM     33  F   UNL     1       9.809   9.229  -0.017  0.00  0.00    -0.166 F 
ATOM     34  F   UNL     1       9.676   8.917   2.242  0.00  0.00    -0.166 F 
ENDBRANCH  31  32
ENDBRANCH  27  31
ENDBRANCH  20  24
ENDBRANCH   1  21
BRANCH   3  35
ATOM     35  C   UNL     1       2.359   5.857   0.121  0.00  0.00    +0.117 C 
BRANCH  35  36
ATOM     36  C   UNL     1       2.230   6.278   1.586  0.00  0.00    +0.001 C 
ATOM     37  C   UNL     1       2.248   7.805   1.681  0.00  0.00    +0.009 C 
ATOM     38  C   UNL     1       0.914   5.747   2.156  0.00  0.00    +0.009 C 
ENDBRANCH  35  36
ENDBRANCH   3  35
TORSDOF 12
