REMARK  Name = ZINC23683276
REMARK  13 active torsions:
REMARK  status: ('A' for Active; 'I' for Inactive)
REMARK    1  A    between atoms: C_1  and  C_2
REMARK    2  A    between atoms: C_7  and  O_8
REMARK    3  A    between atoms: O_8  and  C_9
REMARK    4  A    between atoms: C_9  and  C_10
REMARK    5  A    between atoms: N_12  and  C_13
REMARK    6  A    between atoms: N_12  and  C_18
REMARK    7  A    between atoms: C_13  and  C_14
REMARK    8  A    between atoms: C_14  and  C_15
REMARK    9  A    between atoms: C_15  and  O_16
REMARK   10  A    between atoms: O_16  and  C_17
REMARK   11  A    between atoms: C_19  and  N_34
REMARK   12  A    between atoms: N_20  and  C_27
REMARK   13  A    between atoms: C_27  and  C_28
REMARK                            x       y       z     vdW  Elec       q    Type
REMARK                         _______ _______ _______ _____ _____    ______ ____
ROOT
ATOM      1  C   UNL     1      -2.157  -0.670  -1.140  0.00  0.00    +0.140 A 
ATOM      2  C   UNL     1      -1.811  -1.586  -2.112  0.00  0.00    +0.128 A 
ATOM      3  N   UNL     1      -2.609  -1.718  -3.225  0.00  0.00    -0.276 N 
ATOM      4  C   UNL     1      -3.709  -0.956  -3.368  0.00  0.00    +0.331 A 
ATOM      5  O   UNL     1      -4.399  -1.085  -4.361  0.00  0.00    -0.246 OA
ATOM      6  N   UNL     1      -4.059  -0.054  -2.433  0.00  0.00    -0.273 N 
ATOM      7  H   UNL     1      -4.962   0.558  -2.571  0.00  0.00    +0.173 HD
ATOM      8  C   UNL     1      -3.314   0.111  -1.323  0.00  0.00    +0.277 A 
ATOM      9  O   UNL     1      -3.640   0.931  -0.481  0.00  0.00    -0.266 OA
ENDROOT
BRANCH   1  12
ATOM     10  C   UNL     1      -1.857  -0.846   1.225  0.00  0.00    +0.258 C 
ATOM     11  O   UNL     1      -2.949  -1.367   1.312  0.00  0.00    -0.272 OA
ATOM     12  N   UNL     1      -1.361  -0.514   0.015  0.00  0.00    -0.261 N 
BRANCH  10  13
ATOM     13  C   UNL     1      -1.054  -0.568   2.470  0.00  0.00    +0.325 C 
BRANCH  13  14
ATOM     14  O   UNL     1      -1.786  -1.006   3.616  0.00  0.00    -0.482 OA
BRANCH  14  21
ATOM     15  C   UNL     1      -3.221  -1.855   5.896  0.00  0.00    +0.047 C 
ATOM     16  C   UNL     1      -1.855  -1.225   5.984  0.00  0.00    -0.007 A 
ATOM     17  C   UNL     1      -1.254  -1.047   7.215  0.00  0.00    +0.027 A 
ATOM     18  C   UNL     1      -0.002  -0.463   7.297  0.00  0.00    +0.041 A 
ATOM     19  C   UNL     1       0.653  -0.062   6.146  0.00  0.00    +0.023 A 
ATOM     20  C   UNL     1       0.057  -0.243   4.913  0.00  0.00    +0.047 A 
ATOM     21  C   UNL     1      -1.198  -0.828   4.829  0.00  0.00    +0.124 A 
ATOM     22 CL   UNL     1       0.748  -0.234   8.846  0.00  0.00    -0.084 Cl
ENDBRANCH  14  21
ENDBRANCH  13  14
ENDBRANCH  10  13
BRANCH  12  23
ATOM     23  C   UNL     1       0.002   0.008  -0.100  0.00  0.00    +0.116 C 
BRANCH  23  24
ATOM     24  C   UNL     1      -0.035   1.538  -0.095  0.00  0.00    +0.047 C 
BRANCH  24  25
ATOM     25  C   UNL     1       1.390   2.083  -0.215  0.00  0.00    +0.161 C 
BRANCH  25  26
ATOM     26  O   UNL     1       1.355   3.511  -0.210  0.00  0.00    -0.383 OA
ATOM     27  C   UNL     1       2.641   4.125  -0.319  0.00  0.00    +0.193 C 
ENDBRANCH  25  26
ENDBRANCH  24  25
ENDBRANCH  23  24
ENDBRANCH  12  23
ENDBRANCH   1  12
BRANCH   2  28
ATOM     28  N   UNL     1      -0.685  -2.361  -1.968  0.00  0.00    -0.343 N 
ATOM     29  H   UNL     1      -0.416  -3.089  -2.747  0.00  0.00    +0.144 HD
ATOM     30  H   UNL     1      -0.054  -2.252  -1.074  0.00  0.00    +0.144 HD
ENDBRANCH   2  28
BRANCH   3  31
ATOM     31  C   UNL     1      -2.257  -2.690  -4.262  0.00  0.00    +0.163 C 
BRANCH  31  32
ATOM     32  C   UNL     1      -1.364  -2.034  -5.283  0.00  0.00    -0.028 A 
ATOM     33  C   UNL     1      -1.916  -1.411  -6.387  0.00  0.00    +0.005 A 
ATOM     34  C   UNL     1      -1.097  -0.805  -7.321  0.00  0.00    +0.000 A 
ATOM     35  C   UNL     1       0.275  -0.830  -7.157  0.00  0.00    +0.000 A 
ATOM     36  C   UNL     1       0.828  -1.457  -6.056  0.00  0.00    +0.000 A 
ATOM     37  C   UNL     1       0.009  -2.059  -5.119  0.00  0.00    +0.005 A 
ENDBRANCH  31  32
ENDBRANCH   3  31
TORSDOF 11
