REMARK  Name = ZINC32594574
REMARK  6 active torsions:
REMARK  status: ('A' for Active; 'I' for Inactive)
REMARK    1  A    between atoms: C_1  and  C_2
REMARK    2  A    between atoms: C_2  and  C_3
REMARK    3  A    between atoms: C_2  and  C_4
REMARK    4  A    between atoms: C_2  and  C_5
REMARK    5  A    between atoms: C_8  and  C_11
REMARK    6  A    between atoms: C_22  and  C_24
REMARK                            x       y       z     vdW  Elec       q    Type
REMARK                         _______ _______ _______ _____ _____    ______ ____
ROOT
ATOM      1  C   UNL     1       3.711  -0.707  -0.039  0.00  0.00    +0.069 C 
ATOM      2  C   UNL     1       4.469  -0.377   1.202  0.00  0.00    +0.033 A 
ATOM      3  C   UNL     1       5.789  -0.151   1.363  0.00  0.00    +0.087 A 
ATOM      4  N   UNL     1       6.204   0.129   2.643  0.00  0.00    -0.311 N 
ATOM      5  H   UNL     1       7.268   0.321   2.847  0.00  0.00    +0.170 HD
ATOM      6  C   UNL     1       5.313   0.172   3.653  0.00  0.00    +0.289 A 
ATOM      7  O   UNL     1       5.506   0.404   4.834  0.00  0.00    -0.260 OA
ATOM      8  S   UNL     1       3.820  -0.189   2.845  0.00  0.00    -0.030 S 
ATOM      9  S   UNL     1       6.895  -0.222  -0.032  0.00  0.00    -0.106 S 
ATOM     10  C   UNL     1       5.854  -1.006  -1.301  0.00  0.00    +0.087 C 
ATOM     11  C   UNL     1       4.486  -0.314  -1.294  0.00  0.00    +0.074 C 
ENDROOT
BRANCH   1  15
ATOM     12  C   UNL     1      -0.017   1.378   0.010  0.00  0.00    -0.042 A 
ATOM     13  C   UNL     1       1.171   2.086   0.002  0.00  0.00    +0.004 A 
ATOM     14  C   UNL     1       2.377   1.411  -0.014  0.00  0.00    +0.004 A 
ATOM     15  C   UNL     1       2.396   0.029  -0.022  0.00  0.00    -0.039 A 
ATOM     16  C   UNL     1       1.208  -0.679  -0.014  0.00  0.00    +0.004 A 
ATOM     17  C   UNL     1       0.002  -0.004   0.002  0.00  0.00    +0.004 A 
BRANCH  12  19
ATOM     18  C   UNL     1      -2.123   1.726   1.271  0.00  0.00    +0.015 C 
ATOM     19  C   UNL     1      -1.332   2.114   0.020  0.00  0.00    -0.013 C 
ATOM     20  C   UNL     1      -1.073   3.622   0.027  0.00  0.00    +0.015 C 
ATOM     21  C   UNL     1      -2.135   1.740  -1.228  0.00  0.00    +0.015 C 
ENDBRANCH  12  19
ENDBRANCH   1  15
BRANCH  11  22
ATOM     22  C   UNL     1       4.681   1.180  -1.314  0.00  0.00    +0.228 C 
ATOM     23  O   UNL     1       4.237   1.835  -2.227  0.00  0.00    -0.301 OA
ENDBRANCH  11  22
TORSDOF 3
