REMARK  Name = ZINC35781260
REMARK  12 active torsions:
REMARK  status: ('A' for Active; 'I' for Inactive)
REMARK    1  A    between atoms: C_1  and  O_2
REMARK    2  A    between atoms: O_2  and  C_3
REMARK    3  A    between atoms: C_6  and  O_9
REMARK    4  A    between atoms: O_9  and  C_10
REMARK    5  A    between atoms: C_10  and  C_11
REMARK    6  A    between atoms: C_11  and  C_13
REMARK    7  A    between atoms: C_11  and  O_39
REMARK    8  A    between atoms: C_13  and  N_14
REMARK    9  A    between atoms: N_14  and  C_15
REMARK   10  A    between atoms: N_14  and  C_22
REMARK   11  A    between atoms: C_15  and  C_16
REMARK   12  A    between atoms: C_22  and  C_23
REMARK                            x       y       z     vdW  Elec       q    Type
REMARK                         _______ _______ _______ _____ _____    ______ ____
ROOT
ATOM      1  N   UNL     1       3.882  -6.048  -6.571  0.00  0.00    +0.389 N 
ATOM      2  H   UNL     1       3.548  -5.503  -7.351  0.00  0.00    -0.081 HD
ENDROOT
BRANCH   1   3
ATOM      3  C   UNL     1       3.001  -5.840  -5.414  0.00  0.00    -0.043 C 
BRANCH   3   4
ATOM      4  C   UNL     1       2.900  -4.343  -5.114  0.00  0.00    +0.135 C 
BRANCH   4   5
ATOM      5  O   UNL     1       2.256  -3.681  -6.204  0.00  0.00    -0.390 OA
ATOM      6  H   UNL     1       1.360  -3.997  -6.382  0.00  0.00    +0.210 HD
ENDBRANCH   4   5
BRANCH   4   7
ATOM      7  C   UNL     1       2.085  -4.133  -3.836  0.00  0.00    +0.258 C 
BRANCH   7   8
ATOM      8  O   UNL     1       2.088  -2.746  -3.492  0.00  0.00    -0.489 OA
BRANCH   8  12
ATOM      9  C   UNL     1       0.009  -1.654  -0.097  0.00  0.00    +0.120 A 
ATOM     10  C   UNL     1       0.670  -0.691  -0.845  0.00  0.00    +0.049 A 
ATOM     11  C   UNL     1       1.366  -1.057  -1.981  0.00  0.00    +0.049 A 
ATOM     12  C   UNL     1       1.404  -2.386  -2.373  0.00  0.00    +0.121 A 
ATOM     13  C   UNL     1       0.743  -3.349  -1.624  0.00  0.00    +0.049 A 
ATOM     14  C   UNL     1       0.051  -2.985  -0.486  0.00  0.00    +0.049 A 
BRANCH   9  16
ATOM     15  C   UNL     1      -0.678   0.093   1.363  0.00  0.00    +0.277 C 
ATOM     16  O   UNL     1      -0.677  -1.294   1.021  0.00  0.00    -0.495 OA
ENDBRANCH   9  16
ENDBRANCH   8  12
ENDBRANCH   7   8
ENDBRANCH   4   7
ENDBRANCH   3   4
ENDBRANCH   1   3
BRANCH   1  17
ATOM     17  C   UNL     1       5.248  -5.627  -6.229  0.00  0.00    -0.042 C 
BRANCH  17  18
ATOM     18  C   UNL     1       6.125  -5.727  -7.450  0.00  0.00    -0.064 A 
ATOM     19  C   UNL     1       6.891  -6.857  -7.661  0.00  0.00    +0.002 A 
ATOM     20  C   UNL     1       7.696  -6.949  -8.781  0.00  0.00    +0.000 A 
ATOM     21  C   UNL     1       7.733  -5.909  -9.692  0.00  0.00    +0.000 A 
ATOM     22  C   UNL     1       6.966  -4.778  -9.482  0.00  0.00    +0.000 A 
ATOM     23  C   UNL     1       6.158  -4.689  -8.363  0.00  0.00    +0.002 A 
ENDBRANCH  17  18
ENDBRANCH   1  17
BRANCH   1  24
ATOM     24  C   UNL     1       3.885  -7.472  -6.934  0.00  0.00    -0.003 C 
BRANCH  24  25
ATOM     25  C   UNL     1       2.523  -7.862  -7.447  0.00  0.00    +0.094 A 
ATOM     26  N   UNL     1       2.262  -9.167  -7.719  0.00  0.00    -0.312 N 
ATOM     27  H   UNL     1       2.956  -9.830  -7.578  0.00  0.00    +0.170 HD
ATOM     28  C   UNL     1       1.060  -9.559  -8.180  0.00  0.00    +0.260 A 
ATOM     29  O   UNL     1       0.840 -10.734  -8.419  0.00  0.00    -0.267 OA
ATOM     30  C   UNL     1       0.041  -8.571  -8.383  0.00  0.00    +0.075 A 
ATOM     31  C   UNL     1      -1.327  -8.768  -8.872  0.00  0.00    -0.023 A 
ATOM     32  C   UNL     1      -2.096  -7.665  -8.981  0.00  0.00    -0.004 A 
ATOM     33  S   UNL     1      -1.066  -6.327  -8.438  0.00  0.00    -0.073 S 
ATOM     34  C   UNL     1       0.404  -7.252  -8.074  0.00  0.00    +0.116 A 
ATOM     35  N   UNL     1       1.614  -6.941  -7.617  0.00  0.00    -0.229 NA
ATOM     36  C   UNL     1      -3.509  -7.576  -9.466  0.00  0.00    +0.043 C 
ATOM     37  C   UNL     1      -4.359  -8.634  -8.750  0.00  0.00    +0.005 C 
ATOM     38  C   UNL     1      -4.316  -9.920  -9.569  0.00  0.00    +0.001 C 
ATOM     39  C   UNL     1      -2.959 -10.057 -10.257  0.00  0.00    +0.005 C 
ATOM     40  C   UNL     1      -1.843 -10.160  -9.225  0.00  0.00    +0.037 C 
ENDBRANCH  24  25
ENDBRANCH   1  24
TORSDOF 11
