REMARK  Name = ZINC09309204
REMARK  5 active torsions:
REMARK  status: ('A' for Active; 'I' for Inactive)
REMARK    1  A    between atoms: C_1  and  C_2
REMARK    2  A    between atoms: C_2  and  C_31
REMARK    3  A    between atoms: N_12  and  C_15
REMARK    4  A    between atoms: C_15  and  C_16
REMARK    5  A    between atoms: N_18  and  C_19
REMARK                            x       y       z     vdW  Elec       q    Type
REMARK                         _______ _______ _______ _____ _____    ______ ____
ROOT
ATOM      1  C   UNL     1      -8.182   6.965  -0.005  0.00  0.00    +0.041 C 
ATOM      2  C   UNL     1      -7.024   6.009  -0.294  0.00  0.00    +0.070 C 
ATOM      3  C   UNL     1      -5.702   6.667   0.107  0.00  0.00    +0.090 C 
ATOM      4  C   UNL     1      -4.594   5.644   0.081  0.00  0.00    +0.051 A 
ATOM      5  C   UNL     1      -4.868   4.288   0.080  0.00  0.00    +0.000 A 
ATOM      6  C   UNL     1      -3.834   3.373   0.065  0.00  0.00    +0.020 A 
ATOM      7  C   UNL     1      -2.500   3.838   0.048  0.00  0.00    +0.034 A 
ATOM      8  C   UNL     1      -1.265   3.035   0.031  0.00  0.00    +0.094 A 
ATOM      9  C   UNL     1      -0.071   3.751   0.015  0.00  0.00    +0.105 A 
ATOM     10  C   UNL     1       1.168   3.097  -0.001  0.00  0.00    +0.269 A 
ATOM     11  O   UNL     1       2.212   3.728  -0.016  0.00  0.00    -0.266 OA
ATOM     12  N   UNL     1       1.173   1.742   0.001  0.00  0.00    -0.289 N 
ATOM     13  C   UNL     1      -0.009   1.075   0.017  0.00  0.00    +0.203 A 
ATOM     14  N   UNL     1      -1.158   1.675   0.026  0.00  0.00    -0.236 NA
ATOM     15  S   UNL     1      -0.565   5.453   0.021  0.00  0.00    -0.062 S 
ATOM     16  C   UNL     1      -2.327   5.235   0.046  0.00  0.00    +0.111 A 
ATOM     17  N   UNL     1      -3.342   6.070   0.061  0.00  0.00    -0.244 NA
ATOM     18  C   UNL     1      -6.285   3.773   0.090  0.00  0.00    +0.197 C 
ATOM     19  O   UNL     1      -7.185   4.811   0.474  0.00  0.00    -0.369 OA
ATOM     20  C   UNL     1      -6.997   5.669  -1.785  0.00  0.00    +0.041 C 
ENDROOT
BRANCH  12  21
ATOM     21  C   UNL     1       2.439   1.006  -0.014  0.00  0.00    +0.222 C 
BRANCH  21  22
ATOM     22  C   UNL     1       2.856   0.751  -1.440  0.00  0.00    +0.237 C 
ATOM     23  O   UNL     1       2.163   1.146  -2.354  0.00  0.00    -0.274 OA
ATOM     24  N   UNL     1       3.998   0.085  -1.700  0.00  0.00    -0.284 N 
ATOM     25  H   UNL     1       4.586  -0.172  -0.972  0.00  0.00    +0.155 HD
BRANCH  24  26
ATOM     26  C   UNL     1       4.336  -0.237  -3.019  0.00  0.00    +0.034 A 
ATOM     27  C   UNL     1       4.998  -1.425  -3.298  0.00  0.00    +0.024 A 
ATOM     28  C   UNL     1       5.325  -1.743  -4.602  0.00  0.00    +0.017 A 
ATOM     29  C   UNL     1       5.004  -0.872  -5.628  0.00  0.00    +0.018 A 
ATOM     30  C   UNL     1       4.351   0.315  -5.353  0.00  0.00    +0.017 A 
ATOM     31  C   UNL     1       4.016   0.635  -4.051  0.00  0.00    +0.024 A 
ATOM     32 BR   UNL     1       5.460  -1.307  -7.411  0.00  0.00    -0.050 Br
ENDBRANCH  24  26
ENDBRANCH  21  22
ENDBRANCH  12  21
TORSDOF 3
