REMARK  Name = ZINC06668393
REMARK  5 active torsions:
REMARK  status: ('A' for Active; 'I' for Inactive)
REMARK    1  A    between atoms: C_1  and  N_2
REMARK    2  A    between atoms: C_5  and  C_10
REMARK    3  A    between atoms: C_13  and  O_16
REMARK    4  A    between atoms: N_19  and  C_21
REMARK    5  A    between atoms: C_21  and  C_22
REMARK                            x       y       z     vdW  Elec       q    Type
REMARK                         _______ _______ _______ _____ _____    ______ ____
ROOT
ATOM      1  C   UNL     1      -2.544   3.622   0.046  0.00  0.00    +0.139 C 
ATOM      2  N   UNL     1      -1.228   2.978   0.030  0.00  0.00    -0.260 N 
ATOM      3  C   UNL     1      -0.119   3.775   0.024  0.00  0.00    +0.042 C 
ATOM      4  C   UNL     1       1.121   3.247   0.009  0.00  0.00    +0.058 C 
ATOM      5  C   UNL     1       1.244   1.736  -0.001  0.00  0.00    +0.142 C 
ATOM      6  N   UNL     1      -0.011   0.966   0.007  0.00  0.00    -0.288 N 
ATOM      7  C   UNL     1      -1.178   1.640   0.017  0.00  0.00    +0.307 C 
ATOM      8  O   UNL     1      -2.220   1.012   0.018  0.00  0.00    -0.252 OA
ATOM      9  C   UNL     1       2.091   4.271   0.005  0.00  0.00    +0.247 C 
ATOM     10  O   UNL     1       3.293   4.080  -0.007  0.00  0.00    -0.270 OA
ATOM     11  N   UNL     1       1.514   5.486   0.017  0.00  0.00    -0.288 N 
ATOM     12  C   UNL     1       0.058   5.277   0.030  0.00  0.00    +0.160 C 
ATOM     13  H   UNL     1       0.002  -0.004   0.002  0.00  0.00    +0.151 HD
ENDROOT
BRANCH   5  14
ATOM     14  C   UNL     1       2.024   1.342  -1.228  0.00  0.00    -0.022 A 
ATOM     15  C   UNL     1       1.366   1.132  -2.426  0.00  0.00    +0.009 A 
ATOM     16  C   UNL     1       2.079   0.776  -3.554  0.00  0.00    +0.046 A 
ATOM     17  C   UNL     1       3.456   0.617  -3.481  0.00  0.00    +0.117 A 
ATOM     18  C   UNL     1       4.113   0.822  -2.277  0.00  0.00    +0.046 A 
ATOM     19  C   UNL     1       3.396   1.184  -1.153  0.00  0.00    +0.009 A 
BRANCH  17  20
ATOM     20  O   UNL     1       4.159   0.260  -4.588  0.00  0.00    -0.507 OA
ATOM     21  H   UNL     1       4.253  -0.696  -4.703  0.00  0.00    +0.292 HD
ENDBRANCH  17  20
ENDBRANCH   5  14
BRANCH  11  22
ATOM     22  C   UNL     1       2.206   6.777   0.018  0.00  0.00    +0.143 C 
BRANCH  22  23
ATOM     23  C   UNL     1       2.458   7.211   1.439  0.00  0.00    -0.030 A 
ATOM     24  C   UNL     1       1.520   7.981   2.103  0.00  0.00    +0.005 A 
ATOM     25  C   UNL     1       1.749   8.375   3.408  0.00  0.00    +0.000 A 
ATOM     26  C   UNL     1       2.919   8.008   4.046  0.00  0.00    +0.000 A 
ATOM     27  C   UNL     1       3.858   7.242   3.381  0.00  0.00    +0.000 A 
ATOM     28  C   UNL     1       3.627   6.844   2.078  0.00  0.00    +0.005 A 
ENDBRANCH  22  23
ENDBRANCH  11  22
TORSDOF 4
