REMARK  Name = ZINC04422239
REMARK  8 active torsions:
REMARK  status: ('A' for Active; 'I' for Inactive)
REMARK    1  A    between atoms: C_1  and  C_2
REMARK    2  A    between atoms: C_2  and  C_3
REMARK    3  A    between atoms: C_3  and  N_4
REMARK    4  A    between atoms: C_10  and  C_17
REMARK    5  A    between atoms: N_15  and  C_16
REMARK    6  A    between atoms: C_19  and  C_25
REMARK    7  A    between atoms: C_20  and  C_24
REMARK    8  A    between atoms: C_22  and  C_23
REMARK                            x       y       z     vdW  Elec       q    Type
REMARK                         _______ _______ _______ _____ _____    ______ ____
ROOT
ATOM      1  N   UNL     1      -0.374   0.372  -3.208  0.00  0.00    -0.292 N 
ATOM      2  C   UNL     1      -0.517  -0.735  -4.165  0.00  0.00    +0.159 C 
ATOM      3  C   UNL     1       0.566  -0.501  -5.195  0.00  0.00    +0.042 C 
ATOM      4  C   UNL     1       1.214   0.620  -4.816  0.00  0.00    +0.058 C 
ATOM      5  C   UNL     1       0.647   1.138  -3.634  0.00  0.00    +0.247 C 
ATOM      6  O   UNL     1       1.032   2.147  -3.071  0.00  0.00    -0.270 OA
ATOM      7  C   UNL     1       2.364   1.095  -5.680  0.00  0.00    +0.142 C 
ATOM      8  N   UNL     1       2.681   0.287  -6.871  0.00  0.00    -0.288 N 
ATOM      9  C   UNL     1       1.940  -0.811  -7.118  0.00  0.00    +0.307 C 
ATOM     10  O   UNL     1       2.194  -1.484  -8.098  0.00  0.00    -0.252 OA
ATOM     11  N   UNL     1       0.932  -1.185  -6.319  0.00  0.00    -0.260 N 
ATOM     12  C   UNL     1       0.183  -2.394  -6.669  0.00  0.00    +0.139 C 
ATOM     13  H   UNL     1       3.406   0.540  -7.463  0.00  0.00    +0.151 HD
ENDROOT
BRANCH   7  14
ATOM     14  C   UNL     1       2.052   2.496  -6.139  0.00  0.00    -0.019 A 
ATOM     15  C   UNL     1       0.740   2.927  -6.201  0.00  0.00    +0.009 A 
ATOM     16  C   UNL     1       0.455   4.214  -6.616  0.00  0.00    -0.047 A 
ATOM     17  C   UNL     1       1.480   5.067  -6.980  0.00  0.00    -0.047 A 
ATOM     18  C   UNL     1       2.792   4.634  -6.922  0.00  0.00    +0.007 A 
ATOM     19  C   UNL     1       3.078   3.348  -6.502  0.00  0.00    -0.045 A 
ATOM     20  C   UNL     1       4.508   2.877  -6.439  0.00  0.00    +0.044 C 
ATOM     21  C   UNL     1       1.169   6.468  -7.439  0.00  0.00    +0.044 C 
ATOM     22  C   UNL     1      -0.975   4.686  -6.678  0.00  0.00    +0.044 C 
ENDBRANCH   7  14
BRANCH   1  23
ATOM     23  C   UNL     1      -1.194   0.601  -2.015  0.00  0.00    +0.108 C 
BRANCH  23  25
ATOM     24  C   UNL     1      -1.420   0.126   0.427  0.00  0.00    +0.005 C 
ATOM     25  C   UNL     1      -0.564  -0.114  -0.818  0.00  0.00    +0.016 C 
ENDBRANCH  23  25
ENDBRANCH   1  23
TORSDOF 3
