REMARK  Name = ZINC39425929
REMARK  8 active torsions:
REMARK  status: ('A' for Active; 'I' for Inactive)
REMARK    1  A    between atoms: C_1  and  C_2
REMARK    2  A    between atoms: C_2  and  C_33
REMARK    3  A    between atoms: C_6  and  C_24
REMARK    4  A    between atoms: C_8  and  C_22
REMARK    5  A    between atoms: C_9  and  N_21
REMARK    6  A    between atoms: C_14  and  S_16
REMARK    7  A    between atoms: S_16  and  C_17
REMARK    8  A    between atoms: C_17  and  C_18
REMARK                            x       y       z     vdW  Elec       q    Type
REMARK                         _______ _______ _______ _____ _____    ______ ____
ROOT
ATOM      1  C   UNL     1       0.037   1.510   0.051  0.00  0.00    +0.011 C 
ATOM      2  C   UNL     1       0.041  -0.020   0.035  0.00  0.00    -0.023 C 
ATOM      3  C   UNL     1      -1.399  -0.538   0.058  0.00  0.00    +0.058 C 
ATOM      4  C   UNL     1      -1.394  -2.047   0.092  0.00  0.00    +0.027 C 
ATOM      5  C   UNL     1      -0.391  -2.725   0.689  0.00  0.00    +0.025 C 
ATOM      6  C   UNL     1      -0.387  -4.233   0.721  0.00  0.00    +0.097 C 
ATOM      7  C   UNL     1      -1.751  -4.785   0.431  0.00  0.00    +0.077 C 
ATOM      8  C   UNL     1      -2.707  -4.022  -0.159  0.00  0.00    +0.108 C 
ATOM      9  N   UNL     1      -2.436  -2.715  -0.495  0.00  0.00    -0.237 N 
ATOM     10  C   UNL     1      -3.228  -2.066  -1.440  0.00  0.00    +0.194 A 
ATOM     11  N   UNL     1      -4.280  -1.281  -1.273  0.00  0.00    -0.124 NA
ATOM     12  N   UNL     1      -4.892  -0.766  -2.248  0.00  0.00    -0.133 NA
ATOM     13  C   UNL     1      -4.518  -0.980  -3.502  0.00  0.00    +0.160 A 
ATOM     14  S   UNL     1      -3.109  -2.050  -3.227  0.00  0.00    -0.024 S 
ATOM     15  C   UNL     1       0.683  -2.048   1.293  0.00  0.00    +0.162 C 
ATOM     16  O   UNL     1       1.560  -2.688   1.838  0.00  0.00    -0.292 OA
ATOM     17  C   UNL     1       0.765  -0.546   1.278  0.00  0.00    +0.086 C 
ATOM     18  C   UNL     1       0.751  -0.519  -1.225  0.00  0.00    +0.011 C 
ENDROOT
BRANCH   6  19
ATOM     19  C   UNL     1       0.582  -4.747  -0.312  0.00  0.00    -0.035 A 
ATOM     20  C   UNL     1       0.402  -4.432  -1.646  0.00  0.00    +0.004 A 
ATOM     21  C   UNL     1       1.290  -4.903  -2.594  0.00  0.00    +0.000 A 
ATOM     22  C   UNL     1       2.361  -5.689  -2.208  0.00  0.00    +0.000 A 
ATOM     23  C   UNL     1       2.542  -6.003  -0.874  0.00  0.00    +0.000 A 
ATOM     24  C   UNL     1       1.655  -5.528   0.074  0.00  0.00    +0.004 A 
ENDBRANCH   6  19
BRANCH   8  25
ATOM     25  N   UNL     1      -3.946  -4.556  -0.421  0.00  0.00    -0.345 N 
ATOM     26  H   UNL     1      -4.115  -5.496  -0.252  0.00  0.00    +0.144 HD
ATOM     27  H   UNL     1      -4.652  -3.993  -0.776  0.00  0.00    +0.144 HD
ENDBRANCH   8  25
BRANCH   7  28
ATOM     28  C   UNL     1      -2.051  -6.141   0.784  0.00  0.00    +0.099 C 
ATOM     29  N   UNL     1      -2.289  -7.216   1.063  0.00  0.00    -0.191 NA
ENDBRANCH   7  28
BRANCH  13  30
ATOM     30  S   UNL     1      -5.207  -0.380  -5.008  0.00  0.00    -0.088 S 
BRANCH  30  31
ATOM     31  C   UNL     1      -6.605   0.646  -4.473  0.00  0.00    +0.171 C 
BRANCH  31  32
ATOM     32  C   UNL     1      -7.291   1.229  -5.681  0.00  0.00    +0.221 C 
ATOM     33  O   UNL     1      -6.879   0.978  -6.793  0.00  0.00    -0.275 OA
ATOM     34  N   UNL     1      -8.364   2.030  -5.525  0.00  0.00    -0.329 N 
ATOM     35  H   UNL     1      -8.694   2.232  -4.635  0.00  0.00    +0.145 HD
ATOM     36  H   UNL     1      -8.806   2.406  -6.303  0.00  0.00    +0.145 HD
ENDBRANCH  31  32
ENDBRANCH  30  31
ENDBRANCH  13  30
TORSDOF 6
