REMARK  Name = ZINC03391877
REMARK  11 active torsions:
REMARK  status: ('A' for Active; 'I' for Inactive)
REMARK    1  A    between atoms: C_1  and  C_2
REMARK    2  A    between atoms: C_2  and  C_3
REMARK    3  A    between atoms: C_3  and  C_5
REMARK    4  A    between atoms: C_3  and  N_55
REMARK    5  A    between atoms: C_8  and  S_16
REMARK    6  A    between atoms: N_9  and  C_10
REMARK    7  A    between atoms: S_16  and  C_17
REMARK    8  A    between atoms: C_17  and  C_18
REMARK    9  A    between atoms: C_23  and  C_28
REMARK   10  A    between atoms: C_30  and  N_55
REMARK   11  A    between atoms: C_31  and  N_55
REMARK                            x       y       z     vdW  Elec       q    Type
REMARK                         _______ _______ _______ _____ _____    ______ ____
ROOT
ATOM      1  C   UNL     1      10.123   1.042  -0.624  0.00  0.00    +0.125 A 
ATOM      2  N   UNL     1       9.139   0.230  -0.888  0.00  0.00    -0.135 NA
ATOM      3  N   UNL     1       8.102   0.894  -1.254  0.00  0.00    -0.122 NA
ATOM      4  C   UNL     1       8.368   2.180  -1.244  0.00  0.00    +0.197 A 
ATOM      5  N   UNL     1       9.670   2.316  -0.846  0.00  0.00    -0.275 N 
ENDROOT
BRANCH   5   6
ATOM      6  C   UNL     1      10.390   3.510  -0.695  0.00  0.00    +0.050 A 
ATOM      7  C   UNL     1      11.482   3.772  -1.511  0.00  0.00    +0.026 A 
ATOM      8  C   UNL     1      12.186   4.951  -1.364  0.00  0.00    +0.002 A 
ATOM      9  C   UNL     1      11.810   5.866  -0.397  0.00  0.00    +0.000 A 
ATOM     10  C   UNL     1      10.726   5.605   0.421  0.00  0.00    +0.002 A 
ATOM     11  C   UNL     1      10.015   4.430   0.274  0.00  0.00    +0.026 A 
ENDBRANCH   5   6
BRANCH   1  12
ATOM     12  C   UNL     1      11.505   0.653  -0.165  0.00  0.00    +0.000 C 
BRANCH  12  15
ATOM     13  C   UNL     1      10.906   0.672   2.181  0.00  0.00    -0.096 C 
ATOM     14  C   UNL     1      10.563  -1.328   0.860  0.00  0.00    -0.096 C 
ATOM     15  N   UNL     1      11.432  -0.152   1.073  0.00  0.00    +0.383 N 
ATOM     16  H   UNL     1      12.376  -0.475   1.316  0.00  0.00    -0.082 HD
ENDBRANCH  12  15
BRANCH  12  18
ATOM     17  C   UNL     1      13.634  -0.466  -0.841  0.00  0.00    +0.002 C 
ATOM     18  C   UNL     1      12.190  -0.175  -1.254  0.00  0.00    -0.011 C 
ENDBRANCH  12  18
ENDBRANCH   1  12
BRANCH   4  19
ATOM     19  S   UNL     1       7.261   3.483  -1.669  0.00  0.00    -0.076 S 
BRANCH  19  20
ATOM     20  C   UNL     1       5.785   2.519  -2.079  0.00  0.00    +0.173 C 
BRANCH  20  21
ATOM     21  C   UNL     1       4.673   3.452  -2.485  0.00  0.00    +0.229 C 
ATOM     22  O   UNL     1       4.860   4.650  -2.495  0.00  0.00    -0.275 OA
ATOM     23  N   UNL     1       3.470   2.954  -2.836  0.00  0.00    -0.269 N 
ATOM     24  C   UNL     1       2.441   3.818  -3.211  0.00  0.00    +0.144 A 
ATOM     25  C   UNL     1       1.202   3.297  -3.572  0.00  0.00    +0.085 A 
ATOM     26  C   UNL     1       0.191   4.165  -3.947  0.00  0.00    -0.009 A 
ATOM     27  C   UNL     1       0.451   5.530  -3.938  0.00  0.00    +0.063 A 
ATOM     28  C   UNL     1       1.706   5.976  -3.567  0.00  0.00    +0.133 A 
ATOM     29  N   UNL     1       2.651   5.124  -3.219  0.00  0.00    -0.237 NA
ATOM     30 CL   UNL     1      -0.783   6.662  -4.394  0.00  0.00    -0.082 Cl
ATOM     31  C   UNL     1      -1.164   3.642  -4.351  0.00  0.00    +0.047 C 
ATOM     32 CL   UNL     1       0.930   1.583  -3.559  0.00  0.00    -0.080 Cl
ATOM     33  H   UNL     1       3.321   1.996  -2.828  0.00  0.00    +0.156 HD
ENDBRANCH  20  21
ENDBRANCH  19  20
ENDBRANCH   4  19
TORSDOF 7
