REMARK  Name = ZINC09092407
REMARK  6 active torsions:
REMARK  status: ('A' for Active; 'I' for Inactive)
REMARK    1  A    between atoms: C_1  and  C_2
REMARK    2  A    between atoms: C_12  and  C_14
REMARK    3  A    between atoms: C_14  and  S_15
REMARK    4  A    between atoms: S_15  and  C_16
REMARK    5  A    between atoms: C_19  and  C_22
REMARK    6  A    between atoms: N_20  and  N_21
REMARK                            x       y       z     vdW  Elec       q    Type
REMARK                         _______ _______ _______ _____ _____    ______ ____
ROOT
ATOM      1  C   UNL     1       1.460  -1.252  -6.288  0.00  0.00    +0.209 A 
ATOM      2  N   UNL     1       2.534  -1.944  -5.978  0.00  0.00    -0.121 NA
ATOM      3  N   UNL     1       3.228  -2.177  -7.034  0.00  0.00    -0.127 NA
ATOM      4  C   UNL     1       2.646  -1.641  -8.081  0.00  0.00    +0.183 A 
ATOM      5  N   UNL     1       1.496  -1.032  -7.635  0.00  0.00    -0.224 N 
ENDROOT
BRANCH   4   6
ATOM      6  C   UNL     1       3.134  -1.684  -9.476  0.00  0.00    +0.035 A 
ATOM      7  C   UNL     1       3.160  -0.519 -10.245  0.00  0.00    +0.013 A 
ATOM      8  C   UNL     1       3.621  -0.565 -11.544  0.00  0.00    +0.001 A 
ATOM      9  C   UNL     1       4.047  -1.764 -12.089  0.00  0.00    +0.001 A 
ATOM     10  C   UNL     1       4.019  -2.923 -11.335  0.00  0.00    +0.016 A 
ATOM     11  C   UNL     1       3.565  -2.890 -10.031  0.00  0.00    +0.029 A 
ATOM     12 BR   UNL     1       3.526  -4.476  -9.001  0.00  0.00    -0.050 Br
ENDBRANCH   4   6
BRANCH   5  13
ATOM     13  N   UNL     1       0.580  -0.349  -8.384  0.00  0.00    -0.295 N 
ATOM     14  H   UNL     1       0.860   0.612  -8.510  0.00  0.00    +0.163 HD
ATOM     15  H   UNL     1       0.431  -0.802  -9.274  0.00  0.00    +0.163 HD
ENDBRANCH   5  13
BRANCH   1  16
ATOM     16  S   UNL     1       0.212  -0.704  -5.171  0.00  0.00    -0.075 S 
BRANCH  16  17
ATOM     17  C   UNL     1       0.863  -1.371  -3.620  0.00  0.00    +0.173 C 
BRANCH  17  28
ATOM     18  C   UNL     1      -0.725   0.384   0.160  0.00  0.00    +0.029 C 
ATOM     19  C   UNL     1      -0.612  -1.126  -0.057  0.00  0.00    +0.083 C 
ATOM     20  C   UNL     1       0.124  -1.781   1.123  0.00  0.00    +0.059 C 
ATOM     21  C   UNL     1       1.354  -2.407   0.505  0.00  0.00    -0.024 A 
ATOM     22  C   UNL     1       2.386  -3.129   1.073  0.00  0.00    +0.005 A 
ATOM     23  C   UNL     1       3.417  -3.605   0.284  0.00  0.00    +0.000 A 
ATOM     24  C   UNL     1       3.413  -3.356  -1.077  0.00  0.00    +0.002 A 
ATOM     25  C   UNL     1       2.385  -2.636  -1.647  0.00  0.00    +0.024 A 
ATOM     26  C   UNL     1       1.341  -2.152  -0.857  0.00  0.00    +0.040 A 
ATOM     27  N   UNL     1       0.214  -1.410  -1.233  0.00  0.00    -0.267 N 
ATOM     28  C   UNL     1      -0.069  -1.015  -2.490  0.00  0.00    +0.230 C 
ATOM     29  O   UNL     1      -1.074  -0.374  -2.712  0.00  0.00    -0.274 OA
ENDBRANCH  17  28
ENDBRANCH  16  17
ENDBRANCH   1  16
TORSDOF 5
