REMARK  Name = ZINC09670654
REMARK  9 active torsions:
REMARK  status: ('A' for Active; 'I' for Inactive)
REMARK    1  A    between atoms: C_1  and  C_2
REMARK    2  A    between atoms: C_5  and  N_9
REMARK    3  A    between atoms: C_7  and  C_8
REMARK    4  A    between atoms: C_12  and  C_15
REMARK    5  A    between atoms: C_15  and  S_16
REMARK    6  A    between atoms: S_16  and  C_17
REMARK    7  A    between atoms: C_20  and  C_23
REMARK    8  A    between atoms: N_21  and  N_22
REMARK    9  A    between atoms: C_27  and  C_29
REMARK                            x       y       z     vdW  Elec       q    Type
REMARK                         _______ _______ _______ _____ _____    ______ ____
ROOT
ATOM      1  N   UNL     1      -6.809   5.954   6.908  0.00  0.00    -0.219 N 
ATOM      2  C   UNL     1      -5.523   6.067   6.390  0.00  0.00    +0.172 A 
ATOM      3  N   UNL     1      -4.923   5.314   5.489  0.00  0.00    -0.228 NA
ATOM      4  C   UNL     1      -3.686   5.562   5.105  0.00  0.00    +0.061 A 
ATOM      5  C   UNL     1      -3.035   6.611   5.663  0.00  0.00    +0.072 A 
ATOM      6  S   UNL     1      -4.295   7.237   6.764  0.00  0.00    -0.060 S 
ATOM      7  C   UNL     1      -7.654   5.026   6.417  0.00  0.00    +0.223 C 
ATOM      8  O   UNL     1      -7.265   4.230   5.589  0.00  0.00    -0.275 OA
ATOM      9  C   UNL     1      -9.082   4.977   6.897  0.00  0.00    +0.110 C 
ENDROOT
BRANCH   1  14
ATOM     10  C   UNL     1      -8.498   9.400  11.088  0.00  0.00    +0.044 C 
ATOM     11  C   UNL     1      -8.049   8.485   9.978  0.00  0.00    -0.047 A 
ATOM     12  C   UNL     1      -7.368   7.319  10.277  0.00  0.00    +0.005 A 
ATOM     13  C   UNL     1      -6.956   6.479   9.262  0.00  0.00    +0.024 A 
ATOM     14  C   UNL     1      -7.226   6.805   7.940  0.00  0.00    +0.043 A 
ATOM     15  C   UNL     1      -7.905   7.978   7.642  0.00  0.00    +0.027 A 
ATOM     16  C   UNL     1      -8.319   8.813   8.662  0.00  0.00    -0.046 A 
ATOM     17  C   UNL     1      -9.062  10.084   8.340  0.00  0.00    +0.044 C 
ENDBRANCH   1  14
BRANCH   4  18
ATOM     18  C   UNL     1      -3.011   4.694   4.074  0.00  0.00    +0.133 C 
BRANCH  18  19
ATOM     19  S   UNL     1      -3.328   5.362   2.422  0.00  0.00    -0.078 S 
BRANCH  19  20
ATOM     20  C   UNL     1      -2.449   4.189   1.444  0.00  0.00    +0.209 A 
ATOM     21  N   UNL     1      -1.778   3.150   1.886  0.00  0.00    -0.121 NA
ATOM     22  N   UNL     1      -1.266   2.508   0.898  0.00  0.00    -0.123 NA
ATOM     23  C   UNL     1      -1.568   3.099  -0.224  0.00  0.00    +0.255 A 
ATOM     24  N   UNL     1      -2.335   4.188   0.084  0.00  0.00    -0.220 N 
BRANCH  23  25
ATOM     25  C   UNL     1      -1.154   2.659  -1.605  0.00  0.00    +0.454 C 
ATOM     26  F   UNL     1      -0.678   1.345  -1.552  0.00  0.00    -0.163 F 
ATOM     27  F   UNL     1      -0.144   3.502  -2.079  0.00  0.00    -0.163 F 
ATOM     28  F   UNL     1      -2.256   2.722  -2.464  0.00  0.00    -0.163 F 
ENDBRANCH  23  25
BRANCH  24  29
ATOM     29  N   UNL     1      -2.876   5.089  -0.789  0.00  0.00    -0.295 N 
ATOM     30  H   UNL     1      -3.796   4.799  -1.085  0.00  0.00    +0.163 HD
ATOM     31  H   UNL     1      -2.901   6.014  -0.386  0.00  0.00    +0.163 HD
ENDBRANCH  24  29
ENDBRANCH  19  20
ENDBRANCH  18  19
ENDBRANCH   4  18
TORSDOF 6
