REMARK  Name = ZINC06161747
REMARK  6 active torsions:
REMARK  status: ('A' for Active; 'I' for Inactive)
REMARK    1  A    between atoms: C_4  and  S_11
REMARK    2  A    between atoms: C_5  and  C_7
REMARK    3  A    between atoms: S_11  and  N_14
REMARK    4  A    between atoms: C_17  and  C_20
REMARK    5  A    between atoms: N_29  and  C_30
REMARK    6  A    between atoms: C_30  and  C_31
REMARK                            x       y       z     vdW  Elec       q    Type
REMARK                         _______ _______ _______ _____ _____    ______ ____
ROOT
ATOM      1  N   UNL     1       0.199   8.192   0.254  0.00  0.00    -0.177 NA
ATOM      2  C   UNL     1       0.672   7.443  -0.918  0.00  0.00    +0.110 C 
ATOM      3  C   UNL     1       0.300   5.967  -0.744  0.00  0.00    +0.028 C 
ATOM      4  C   UNL     1       0.852   5.461   0.591  0.00  0.00    +0.058 C 
ATOM      5  C   UNL     1       0.226   6.256   1.739  0.00  0.00    +0.028 C 
ATOM      6  C   UNL     1       0.598   7.735   1.592  0.00  0.00    +0.110 C 
ENDROOT
BRANCH   4   7
ATOM      7  C   UNL     1       0.517   4.000   0.750  0.00  0.00    +0.116 A 
ATOM      8  N   UNL     1       1.500   3.135   0.880  0.00  0.00    -0.326 N 
ATOM      9  C   UNL     1       1.245   1.838   1.024  0.00  0.00    +0.164 A 
ATOM     10  C   UNL     1      -0.091   1.399   1.034  0.00  0.00    +0.195 A 
ATOM     11  C   UNL     1      -1.105   2.365   0.897  0.00  0.00    +0.303 A 
ATOM     12  N   UNL     1      -0.753   3.636   0.755  0.00  0.00    -0.194 NA
ATOM     13  O   UNL     1      -2.410   2.005   0.906  0.00  0.00    -0.263 OA
ATOM     14  N   UNL     1      -0.084   0.063   1.185  0.00  0.00    -0.122 NA
ATOM     15  N   UNL     1       1.127  -0.367   1.268  0.00  0.00    -0.063 NA
ATOM     16  N   UNL     1       2.013   0.717   1.171  0.00  0.00    -0.224 N 
ATOM     17  H   UNL     1       2.446   3.457   0.871  0.00  0.00    +0.169 HD
BRANCH  16  18
ATOM     18  C   UNL     1       3.476   0.658   1.219  0.00  0.00    +0.182 C 
BRANCH  18  19
ATOM     19  C   UNL     1       4.018   0.479  -0.175  0.00  0.00    -0.025 A 
ATOM     20  C   UNL     1       4.319   1.586  -0.947  0.00  0.00    +0.005 A 
ATOM     21  C   UNL     1       4.815   1.423  -2.227  0.00  0.00    +0.002 A 
ATOM     22  C   UNL     1       5.012   0.152  -2.736  0.00  0.00    +0.020 A 
ATOM     23  C   UNL     1       4.711  -0.956  -1.964  0.00  0.00    +0.041 A 
ATOM     24  C   UNL     1       4.219  -0.792  -0.681  0.00  0.00    +0.025 A 
ATOM     25 CL   UNL     1       4.957  -2.551  -2.602  0.00  0.00    -0.084 Cl
ENDBRANCH  18  19
ENDBRANCH  16  18
ENDBRANCH   4   7
BRANCH   1  26
ATOM     26  S   UNL     1      -0.765   9.526   0.070  0.00  0.00    +0.061 S 
ATOM     27  O   UNL     1      -0.698  10.247   1.293  0.00  0.00    -0.153 OA
ATOM     28  O   UNL     1      -0.418  10.109  -1.178  0.00  0.00    -0.153 OA
BRANCH  26  32
ATOM     29  C   UNL     1      -5.026   8.053  -0.331  0.00  0.00    +0.001 A 
ATOM     30  C   UNL     1      -4.038   7.196   0.118  0.00  0.00    +0.002 A 
ATOM     31  C   UNL     1      -2.736   7.645   0.236  0.00  0.00    +0.029 A 
ATOM     32  C   UNL     1      -2.424   8.953  -0.086  0.00  0.00    +0.117 A 
ATOM     33  C   UNL     1      -3.411   9.809  -0.535  0.00  0.00    +0.081 A 
ATOM     34  C   UNL     1      -4.713   9.358  -0.658  0.00  0.00    +0.014 A 
BRANCH  33  35
ATOM     35  C   UNL     1      -3.069  11.232  -0.892  0.00  0.00    +0.419 C 
ATOM     36  F   UNL     1      -4.243  11.933  -1.188  0.00  0.00    -0.166 F 
ATOM     37  F   UNL     1      -2.422  11.841   0.188  0.00  0.00    -0.166 F 
ATOM     38  F   UNL     1      -2.225  11.243  -2.008  0.00  0.00    -0.166 F 
ENDBRANCH  33  35
ENDBRANCH  26  32
ENDBRANCH   1  26
TORSDOF 6
