REMARK  Name = ZINC13064985
REMARK  13 active torsions:
REMARK  status: ('A' for Active; 'I' for Inactive)
REMARK    1  A    between atoms: C_1  and  C_2
REMARK    2  A    between atoms: C_2  and  C_3
REMARK    3  A    between atoms: C_3  and  C_5
REMARK    4  A    between atoms: C_3  and  N_69
REMARK    5  A    between atoms: N_9  and  C_10
REMARK    6  A    between atoms: C_10  and  C_11
REMARK    7  A    between atoms: C_11  and  C_12
REMARK    8  A    between atoms: C_18  and  C_19
REMARK    9  A    between atoms: C_18  and  N_69
REMARK   10  A    between atoms: C_24  and  C_25
REMARK   11  A    between atoms: C_24  and  N_69
REMARK   12  A    between atoms: C_28  and  C_38
REMARK   13  A    between atoms: C_30  and  C_37
REMARK                            x       y       z     vdW  Elec       q    Type
REMARK                         _______ _______ _______ _____ _____    ______ ____
ROOT
ATOM      1  N   UNL     1       0.596  -0.492   2.930  0.00  0.00    +0.392 N 
ATOM      2  H   UNL     1       1.225  -0.658   3.724  0.00  0.00    -0.080 HD
ENDROOT
BRANCH   1   3
ATOM      3  C   UNL     1       0.473   0.965   2.712  0.00  0.00    +0.003 C 
BRANCH   3   4
ATOM      4  C   UNL     1       0.204   1.632   4.037  0.00  0.00    +0.138 A 
ATOM      5  N   UNL     1      -0.803   1.394   4.842  0.00  0.00    -0.115 NA
ATOM      6  N   UNL     1      -0.681   2.163   5.869  0.00  0.00    -0.023 NA
ATOM      7  N   UNL     1       0.378   2.884   5.739  0.00  0.00    -0.044 NA
ATOM      8  N   UNL     1       0.953   2.582   4.625  0.00  0.00    -0.231 N 
BRANCH   8   9
ATOM      9  C   UNL     1       2.189   3.167   4.098  0.00  0.00    +0.152 C 
BRANCH   9  10
ATOM     10  C   UNL     1       1.864   4.469   3.363  0.00  0.00    +0.058 C 
BRANCH  10  11
ATOM     11  C   UNL     1       3.125   5.034   2.761  0.00  0.00    -0.046 A 
ATOM     12  C   UNL     1       3.903   5.915   3.488  0.00  0.00    +0.004 A 
ATOM     13  C   UNL     1       5.062   6.429   2.938  0.00  0.00    +0.000 A 
ATOM     14  C   UNL     1       5.438   6.071   1.657  0.00  0.00    +0.000 A 
ATOM     15  C   UNL     1       4.656   5.194   0.927  0.00  0.00    +0.000 A 
ATOM     16  C   UNL     1       3.500   4.675   1.480  0.00  0.00    +0.004 A 
ENDBRANCH  10  11
ENDBRANCH   9  10
ENDBRANCH   8   9
ENDBRANCH   3   4
BRANCH   3  18
ATOM     17  C   UNL     1      -0.715   2.770   1.458  0.00  0.00    +0.002 C 
ATOM     18  C   UNL     1      -0.674   1.268   1.746  0.00  0.00    -0.011 C 
ENDBRANCH   3  18
ENDBRANCH   1   3
BRANCH   1  19
ATOM     19  C   UNL     1      -0.729  -1.071   3.236  0.00  0.00    -0.034 C 
BRANCH  19  20
ATOM     20  C   UNL     1      -0.533  -2.447   3.817  0.00  0.00    -0.027 A 
ATOM     21  C   UNL     1      -0.429  -2.817   5.117  0.00  0.00    +0.009 A 
ATOM     22  C   UNL     1      -0.251  -4.154   5.421  0.00  0.00    +0.008 A 
ATOM     23  C   UNL     1      -0.186  -5.055   4.410  0.00  0.00    +0.045 A 
ATOM     24  S   UNL     1      -0.385  -4.013   2.974  0.00  0.00    -0.103 S 
ENDBRANCH  19  20
ENDBRANCH   1  19
BRANCH   1  25
ATOM     25  C   UNL     1       1.163  -1.136   1.726  0.00  0.00    -0.036 C 
BRANCH  25  26
ATOM     26  C   UNL     1       2.649  -0.886   1.699  0.00  0.00    +0.001 A 
ATOM     27  C   UNL     1       3.497  -1.792   2.246  0.00  0.00    +0.017 A 
ATOM     28  C   UNL     1       4.935  -1.519   2.203  0.00  0.00    +0.002 A 
ATOM     29  C   UNL     1       5.858  -2.417   2.750  0.00  0.00    -0.041 A 
ATOM     30  C   UNL     1       7.193  -2.133   2.694  0.00  0.00    +0.007 A 
ATOM     31  C   UNL     1       7.642  -0.962   2.099  0.00  0.00    -0.048 A 
ATOM     32  C   UNL     1       6.750  -0.063   1.554  0.00  0.00    +0.029 A 
ATOM     33  C   UNL     1       5.386  -0.331   1.599  0.00  0.00    +0.050 A 
ATOM     34  N   UNL     1       4.472   0.550   1.061  0.00  0.00    -0.322 N 
ATOM     35  H   UNL     1       4.785   1.368   0.645  0.00  0.00    +0.169 HD
ATOM     36  C   UNL     1       3.154   0.288   1.100  0.00  0.00    +0.251 A 
ATOM     37  O   UNL     1       2.375   1.087   0.610  0.00  0.00    -0.268 OA
ATOM     38  C   UNL     1       9.119  -0.670   2.049  0.00  0.00    +0.044 C 
ATOM     39  C   UNL     1       5.381  -3.691   3.399  0.00  0.00    +0.044 C 
ENDBRANCH  25  26
ENDBRANCH   1  25
TORSDOF 10
