REMARK  Name = ZINC63498912
REMARK  5 active torsions:
REMARK  status: ('A' for Active; 'I' for Inactive)
REMARK    1  A    between atoms: C_1  and  C_2
REMARK    2  A    between atoms: C_2  and  O_3
REMARK    3  A    between atoms: O_3  and  C_4
REMARK    4  A    between atoms: C_8  and  C_11
REMARK    5  A    between atoms: C_9  and  O_10
REMARK                            x       y       z     vdW  Elec       q    Type
REMARK                         _______ _______ _______ _____ _____    ______ ____
ROOT
ATOM      1  C   UNL     1      -4.316  -4.377   0.007  0.00  0.00    +0.193 C 
ATOM      2  N   UNL     1      -4.261  -5.727  -0.567  0.00  0.00    -0.322 N 
ATOM      3  C   UNL     1      -4.141  -5.858  -1.946  0.00  0.00    +0.041 A 
ATOM      4  C   UNL     1      -3.503  -6.940  -2.527  0.00  0.00    +0.025 A 
ATOM      5  C   UNL     1      -3.408  -7.020  -3.903  0.00  0.00    +0.022 A 
ATOM      6  C   UNL     1      -3.947  -6.026  -4.706  0.00  0.00    +0.042 A 
ATOM      7  C   UNL     1      -4.588  -4.941  -4.142  0.00  0.00    +0.035 A 
ATOM      8  C   UNL     1      -4.692  -4.849  -2.757  0.00  0.00    +0.059 A 
ATOM      9  C   UNL     1      -5.374  -3.718  -2.103  0.00  0.00    +0.247 C 
ATOM     10  O   UNL     1      -6.071  -2.962  -2.752  0.00  0.00    -0.270 OA
ATOM     11  N   UNL     1      -5.214  -3.529  -0.776  0.00  0.00    -0.289 N 
ATOM     12 CL   UNL     1      -3.814  -6.147  -6.433  0.00  0.00    -0.084 Cl
ATOM     13  H   UNL     1      -4.308  -6.510   0.004  0.00  0.00    +0.148 HD
ATOM     14  H   UNL     1      -5.704  -2.818  -0.335  0.00  0.00    +0.151 HD
ENDROOT
BRANCH   1  19
ATOM     15  C   UNL     1      -1.498  -1.849   0.006  0.00  0.00    +0.162 A 
ATOM     16  C   UNL     1      -0.389  -2.680  -0.003  0.00  0.00    +0.049 A 
ATOM     17  C   UNL     1      -0.553  -4.052  -0.008  0.00  0.00    +0.004 A 
ATOM     18  C   UNL     1      -1.823  -4.600  -0.005  0.00  0.00    +0.011 A 
ATOM     19  C   UNL     1      -2.934  -3.777   0.004  0.00  0.00    +0.036 A 
ATOM     20  C   UNL     1      -2.776  -2.400   0.016  0.00  0.00    +0.165 A 
BRANCH  20  21
ATOM     21  O   UNL     1      -3.868  -1.589   0.030  0.00  0.00    -0.503 OA
ATOM     22  H   UNL     1      -4.192  -1.350  -0.849  0.00  0.00    +0.292 HD
ENDBRANCH  20  21
BRANCH  15  23
ATOM     23  O   UNL     1      -1.339  -0.499   0.012  0.00  0.00    -0.489 OA
BRANCH  23  25
ATOM     24  C   UNL     1      -0.019   1.526   0.010  0.00  0.00    +0.048 C 
ATOM     25  C   UNL     1       0.002  -0.004   0.002  0.00  0.00    +0.226 C 
ENDBRANCH  23  25
ENDBRANCH  15  23
ENDBRANCH   1  19
TORSDOF 4
