REMARK  Name = ZINC15902330
REMARK  8 active torsions:
REMARK  status: ('A' for Active; 'I' for Inactive)
REMARK    1  A    between atoms: C_1  and  C_2
REMARK    2  A    between atoms: N_5  and  S_11
REMARK    3  A    between atoms: C_7  and  C_10
REMARK    4  A    between atoms: S_11  and  C_14
REMARK    5  A    between atoms: C_17  and  C_20
REMARK    6  A    between atoms: N_22  and  N_23
REMARK    7  A    between atoms: C_24  and  C_26
REMARK    8  A    between atoms: C_26  and  C_27
REMARK                            x       y       z     vdW  Elec       q    Type
REMARK                         _______ _______ _______ _____ _____    ______ ____
ROOT
ATOM      1  C   UNL     1      -8.268   1.276   2.889  0.00  0.00    +0.260 C 
ATOM      2  O   UNL     1      -8.857   0.574   2.091  0.00  0.00    -0.269 OA
ATOM      3  N   UNL     1      -6.984   1.621   2.665  0.00  0.00    -0.230 N 
ATOM      4  H   UNL     1      -6.515   2.181   3.302  0.00  0.00    +0.173 HD
ENDROOT
BRANCH   1   8
ATOM      5  C   UNL     1     -10.256   2.646   6.384  0.00  0.00    +0.106 A 
ATOM      6  C   UNL     1     -10.929   1.846   5.477  0.00  0.00    +0.029 A 
ATOM      7  C   UNL     1     -10.290   1.398   4.340  0.00  0.00    +0.015 A 
ATOM      8  C   UNL     1      -8.960   1.753   4.105  0.00  0.00    +0.038 A 
ATOM      9  C   UNL     1      -8.285   2.555   5.027  0.00  0.00    +0.015 A 
ATOM     10  C   UNL     1      -8.938   3.001   6.157  0.00  0.00    +0.029 A 
BRANCH   5  11
ATOM     11  S   UNL     1     -11.081   3.214   7.833  0.00  0.00    +0.061 S 
ATOM     12  O   UNL     1     -10.406   4.393   8.249  0.00  0.00    -0.153 OA
ATOM     13  O   UNL     1     -12.472   3.195   7.543  0.00  0.00    -0.153 OA
BRANCH  11  17
ATOM     14  C   UNL     1      -7.862   0.816  10.992  0.00  0.00    +0.039 C 
ATOM     15  C   UNL     1      -8.957   0.814   9.922  0.00  0.00    +0.131 C 
ATOM     16  C   UNL     1      -9.667   2.172   9.915  0.00  0.00    +0.140 C 
ATOM     17  N   UNL     1     -10.829   2.083   9.016  0.00  0.00    -0.172 NA
ATOM     18  C   UNL     1     -11.764   0.962   9.203  0.00  0.00    +0.140 C 
ATOM     19  C   UNL     1     -10.948  -0.341   9.242  0.00  0.00    +0.131 C 
ATOM     20  O   UNL     1      -9.908  -0.213  10.214  0.00  0.00    -0.371 OA
ATOM     21  C   UNL     1     -10.333  -0.604   7.867  0.00  0.00    +0.039 C 
ENDBRANCH  11  17
ENDBRANCH   5  11
ENDBRANCH   1   8
BRANCH   3  22
ATOM     22  N   UNL     1      -6.329   1.169   1.513  0.00  0.00    -0.234 N 
ATOM     23  C   UNL     1      -5.045   1.513   1.289  0.00  0.00    +0.230 C 
ATOM     24  O   UNL     1      -4.457   2.214   2.085  0.00  0.00    -0.274 OA
ATOM     25  H   UNL     1      -6.799   0.608   0.875  0.00  0.00    +0.173 HD
BRANCH  23  26
ATOM     26  C   UNL     1      -4.340   1.027   0.049  0.00  0.00    +0.104 C 
BRANCH  26  27
ATOM     27  C   UNL     1      -2.904   1.556   0.038  0.00  0.00    -0.020 C 
ATOM     28  C   UNL     1      -2.188   1.063  -1.221  0.00  0.00    +0.011 C 
ATOM     29  C   UNL     1      -0.753   1.593  -1.232  0.00  0.00    -0.010 C 
ATOM     30  C   UNL     1      -0.013   1.086   0.008  0.00  0.00    +0.007 C 
ATOM     31  C   UNL     1      -0.729   1.579   1.267  0.00  0.00    -0.010 C 
ATOM     32  C   UNL     1      -2.164   1.050   1.278  0.00  0.00    +0.011 C 
ATOM     33  C   UNL     1      -0.750   3.109   1.275  0.00  0.00    +0.007 C 
ATOM     34  C   UNL     1      -1.490   3.616   0.036  0.00  0.00    -0.010 C 
ATOM     35  C   UNL     1      -0.773   3.123  -1.223  0.00  0.00    +0.007 C 
ATOM     36  C   UNL     1      -2.925   3.086   0.047  0.00  0.00    +0.011 C 
ENDBRANCH  26  27
ENDBRANCH  23  26
ENDBRANCH   3  22
TORSDOF 6
