REMARK  Name = ZINC29168648
REMARK  8 active torsions:
REMARK  status: ('A' for Active; 'I' for Inactive)
REMARK    1  A    between atoms: C_1  and  C_2
REMARK    2  A    between atoms: C_5  and  C_8
REMARK    3  A    between atoms: C_8  and  C_9
REMARK    4  A    between atoms: C_9  and  C_10
REMARK    5  A    between atoms: N_13  and  C_16
REMARK    6  A    between atoms: C_16  and  C_18
REMARK    7  A    between atoms: C_16  and  C_19
REMARK    8  A    between atoms: N_24  and  C_25
REMARK                            x       y       z     vdW  Elec       q    Type
REMARK                         _______ _______ _______ _____ _____    ______ ____
ROOT
ATOM      1  C   UNL     1      -0.764   3.110   1.262  0.00  0.00    -0.014 C 
ATOM      2  C   UNL     1      -0.729   1.579   1.267  0.00  0.00    -0.015 C 
ATOM      3  C   UNL     1      -0.013   1.086   0.008  0.00  0.00    -0.078 C 
ATOM      4  N   UNL     1      -0.723   1.572  -1.182  0.00  0.00    +0.387 N 
ATOM      5  C   UNL     1      -0.729   3.040  -1.234  0.00  0.00    -0.078 C 
ATOM      6  C   UNL     1      -1.466   3.591  -0.011  0.00  0.00    -0.015 C 
ATOM      7  H   UNL     1      -1.767   1.235  -1.111  0.00  0.00    -0.081 HD
ENDROOT
BRANCH   4   8
ATOM      8  C   UNL     1      -0.145   1.005  -2.408  0.00  0.00    +0.017 C 
ATOM      9  C   UNL     1       1.288   1.512  -2.579  0.00  0.00    -0.004 C 
BRANCH   8  10
ATOM     10  C   UNL     1      -0.972   1.427  -3.595  0.00  0.00    +0.207 C 
ATOM     11  O   UNL     1      -1.946   2.131  -3.435  0.00  0.00    -0.277 OA
ATOM     12  N   UNL     1      -0.629   1.022  -4.833  0.00  0.00    -0.242 N 
ATOM     13  C   UNL     1      -1.369   1.399  -5.895  0.00  0.00    +0.306 C 
ATOM     14  O   UNL     1      -2.345   2.105  -5.735  0.00  0.00    -0.252 OA
ATOM     15  N   UNL     1      -1.026   0.994  -7.134  0.00  0.00    -0.296 N 
ATOM     16  H   UNL     1       0.255   0.383  -4.978  0.00  0.00    +0.159 HD
ATOM     17  H   UNL     1      -0.142   0.355  -7.279  0.00  0.00    +0.151 HD
BRANCH  15  18
ATOM     18  C   UNL     1      -1.830   1.404  -8.288  0.00  0.00    +0.075 C 
ATOM     19  C   UNL     1      -2.154   0.340  -9.337  0.00  0.00    +0.024 C 
ATOM     20  C   UNL     1      -1.140   1.441  -9.652  0.00  0.00    +0.024 C 
ENDBRANCH  15  18
ENDBRANCH   8  10
ENDBRANCH   4   8
BRANCH   1  21
ATOM     21  C   UNL     1      -1.532   3.608   2.488  0.00  0.00    +0.008 C 
BRANCH  21  22
ATOM     22  C   UNL     1      -0.764   3.233   3.757  0.00  0.00    +0.035 C 
BRANCH  22  27
ATOM     23  C   UNL     1      -3.663   5.115   8.388  0.00  0.00    +0.044 C 
ATOM     24  C   UNL     1      -2.906   4.624   7.181  0.00  0.00    -0.050 A 
ATOM     25  C   UNL     1      -3.152   3.360   6.678  0.00  0.00    +0.003 A 
ATOM     26  C   UNL     1      -2.459   2.910   5.571  0.00  0.00    +0.004 A 
ATOM     27  C   UNL     1      -1.520   3.724   4.965  0.00  0.00    -0.047 A 
ATOM     28  C   UNL     1      -1.271   4.986   5.471  0.00  0.00    +0.004 A 
ATOM     29  C   UNL     1      -1.967   5.438   6.576  0.00  0.00    +0.003 A 
ENDBRANCH  22  27
ENDBRANCH  21  22
ENDBRANCH   1  21
TORSDOF 6
