REMARK  Name = ZINC58834723
REMARK  3 active torsions:
REMARK  status: ('A' for Active; 'I' for Inactive)
REMARK    1  A    between atoms: C_1  and  C_2
REMARK    2  A    between atoms: C_14  and  C_32
REMARK    3  A    between atoms: C_14  and  C_33
REMARK                            x       y       z     vdW  Elec       q    Type
REMARK                         _______ _______ _______ _____ _____    ______ ____
ROOT
ATOM      1  C   UNL     1       2.926   0.671  -1.544  0.00  0.00    +0.044 C 
ATOM      2  C   UNL     1       2.247  -0.608  -1.128  0.00  0.00    -0.050 A 
ATOM      3  C   UNL     1       1.734  -1.461  -2.089  0.00  0.00    +0.005 A 
ATOM      4  C   UNL     1       1.100  -2.636  -1.726  0.00  0.00    +0.024 A 
ATOM      5  C   UNL     1       0.982  -2.967  -0.384  0.00  0.00    +0.046 A 
ATOM      6  C   UNL     1       1.515  -2.110   0.580  0.00  0.00    +0.006 A 
ATOM      7  C   UNL     1       2.144  -0.931   0.214  0.00  0.00    +0.013 A 
ATOM      8  C   UNL     1       1.420  -2.503   2.037  0.00  0.00    +0.018 A 
ATOM      9  C   UNL     1       1.027  -3.804   2.296  0.00  0.00    +0.029 A 
ATOM     10  S   UNL     1       0.933  -4.084   3.949  0.00  0.00    -0.053 S 
ATOM     11  S   UNL     1       1.553  -2.195   4.560  0.00  0.00    -0.044 S 
ATOM     12  C   UNL     1       1.762  -1.547   3.022  0.00  0.00    +0.071 A 
ATOM     13  S   UNL     1       2.311   0.041   2.695  0.00  0.00    -0.043 S 
ATOM     14  C   UNL     1       0.741  -4.834   1.229  0.00  0.00    +0.070 C 
ATOM     15  N   UNL     1       0.323  -4.139   0.004  0.00  0.00    -0.244 N 
ATOM     16  C   UNL     1      -0.689  -4.628  -0.741  0.00  0.00    +0.319 C 
ATOM     17  O   UNL     1      -1.058  -5.776  -0.588  0.00  0.00    -0.251 OA
ATOM     18  N   UNL     1      -1.291  -3.843  -1.656  0.00  0.00    -0.222 N 
ATOM     19  C   UNL     1      -1.156  -2.452  -1.556  0.00  0.00    +0.057 A 
ATOM     20  C   UNL     1      -1.149  -1.837  -0.314  0.00  0.00    +0.025 A 
ATOM     21  C   UNL     1      -1.017  -0.463  -0.223  0.00  0.00    +0.002 A 
ATOM     22  C   UNL     1      -0.890   0.305  -1.364  0.00  0.00    +0.001 A 
ATOM     23  C   UNL     1      -0.896  -0.298  -2.611  0.00  0.00    +0.017 A 
ATOM     24  C   UNL     1      -1.028  -1.671  -2.707  0.00  0.00    +0.035 A 
ATOM     25  S   UNL     1      -1.038  -2.469  -4.282  0.00  0.00    -0.086 S 
ATOM     26  C   UNL     1      -2.017  -3.905  -3.971  0.00  0.00    +0.035 A 
ATOM     27  C   UNL     1      -2.032  -4.440  -2.685  0.00  0.00    +0.057 A 
ATOM     28  C   UNL     1      -2.793  -5.571  -2.433  0.00  0.00    +0.025 A 
ATOM     29  C   UNL     1      -3.523  -6.154  -3.453  0.00  0.00    +0.002 A 
ATOM     30  C   UNL     1      -3.500  -5.617  -4.726  0.00  0.00    +0.001 A 
ATOM     31  C   UNL     1      -2.753  -4.491  -4.984  0.00  0.00    +0.017 A 
ATOM     32  C   UNL     1      -0.380  -5.763   1.700  0.00  0.00    +0.037 C 
ATOM     33  C   UNL     1       2.005  -5.649   0.951  0.00  0.00    +0.037 C 
ENDROOT
TORSDOF 0
