REMARK  Name = ZINC60633431
REMARK  7 active torsions:
REMARK  status: ('A' for Active; 'I' for Inactive)
REMARK    1  A    between atoms: C_1  and  C_2
REMARK    2  A    between atoms: C_2  and  C_3
REMARK    3  A    between atoms: C_2  and  N_20
REMARK    4  A    between atoms: N_5  and  N_6
REMARK    5  A    between atoms: C_7  and  C_9
REMARK    6  A    between atoms: C_18  and  O_19
REMARK    7  A    between atoms: C_21  and  C_23
REMARK                            x       y       z     vdW  Elec       q    Type
REMARK                         _______ _______ _______ _____ _____    ______ ____
ROOT
ATOM      1  N   UNL     1       2.696  -0.625   2.561  0.00  0.00    -0.230 N 
ATOM      2  C   UNL     1       3.984  -0.283   2.764  0.00  0.00    +0.264 C 
ATOM      3  O   UNL     1       4.558   0.428   1.962  0.00  0.00    -0.269 OA
ATOM      4  H   UNL     1       2.239  -1.193   3.201  0.00  0.00    +0.173 HD
ENDROOT
BRANCH   2   5
ATOM      5  C   UNL     1       4.698  -0.772   3.959  0.00  0.00    +0.080 A 
ATOM      6  C   UNL     1       4.042  -1.587   4.867  0.00  0.00    +0.025 A 
ATOM      7  C   UNL     1       4.725  -2.049   6.001  0.00  0.00    -0.017 A 
ATOM      8  C   UNL     1       4.090  -2.878   6.944  0.00  0.00    +0.008 A 
ATOM      9  C   UNL     1       4.779  -3.310   8.034  0.00  0.00    +0.001 A 
ATOM     10  C   UNL     1       6.109  -2.943   8.234  0.00  0.00    +0.001 A 
ATOM     11  C   UNL     1       6.757  -2.142   7.344  0.00  0.00    +0.008 A 
ATOM     12  C   UNL     1       6.079  -1.675   6.204  0.00  0.00    -0.014 A 
ATOM     13  C   UNL     1       6.721  -0.848   5.269  0.00  0.00    +0.054 A 
ATOM     14  C   UNL     1       6.046  -0.412   4.167  0.00  0.00    +0.130 A 
BRANCH  14  15
ATOM     15  O   UNL     1       6.675   0.383   3.264  0.00  0.00    -0.506 OA
ATOM     16  H   UNL     1       6.597   1.329   3.451  0.00  0.00    +0.292 HD
ENDBRANCH  14  15
ENDBRANCH   2   5
BRANCH   1  19
ATOM     17  C   UNL     1       0.731  -0.503   1.223  0.00  0.00    +0.249 C 
ATOM     18  O   UNL     1       0.159  -1.213   2.023  0.00  0.00    -0.272 OA
ATOM     19  N   UNL     1       2.019  -0.161   1.426  0.00  0.00    -0.233 N 
ATOM     20  H   UNL     1       2.476   0.406   0.786  0.00  0.00    +0.173 HD
BRANCH  17  22
ATOM     21  C   UNL     1      -0.019   1.526   0.010  0.00  0.00    +0.038 C 
ATOM     22  C   UNL     1       0.002  -0.004   0.002  0.00  0.00    +0.157 C 
BRANCH  22  23
ATOM     23  N   UNL     1      -1.372  -0.511   0.012  0.00  0.00    -0.304 N 
ATOM     24  C   UNL     1      -2.051  -0.643  -1.145  0.00  0.00    +0.217 C 
ATOM     25  O   UNL     1      -1.524  -0.341  -2.194  0.00  0.00    -0.275 OA
ATOM     26  H   UNL     1      -1.794  -0.752   0.852  0.00  0.00    +0.149 HD
BRANCH  24  27
ATOM     27  C   UNL     1      -3.465  -1.164  -1.134  0.00  0.00    +0.075 C 
ATOM     28  C   UNL     1      -3.491  -2.609  -0.595  0.00  0.00    +0.013 C 
ATOM     29  C   UNL     1      -4.575  -3.314  -1.447  0.00  0.00    +0.001 C 
ATOM     30  C   UNL     1      -4.359  -2.698  -2.852  0.00  0.00    +0.001 C 
ATOM     31  C   UNL     1      -4.016  -1.221  -2.569  0.00  0.00    +0.013 C 
ENDBRANCH  24  27
ENDBRANCH  22  23
ENDBRANCH  17  22
ENDBRANCH   1  19
TORSDOF 6
