REMARK  Name = ZINC63733001
REMARK  3 active torsions:
REMARK  status: ('A' for Active; 'I' for Inactive)
REMARK    1  A    between atoms: C_6  and  N_10
REMARK    2  A    between atoms: C_11  and  C_13
REMARK    3  A    between atoms: C_13  and  C_14
REMARK                            x       y       z     vdW  Elec       q    Type
REMARK                         _______ _______ _______ _____ _____    ______ ____
ROOT
ATOM      1  N   UNL     1       3.522  -2.756  -1.248  0.00  0.00    -0.278 N 
ATOM      2  C   UNL     1       3.445  -4.099  -1.322  0.00  0.00    +0.220 C 
ATOM      3  O   UNL     1       3.004  -4.734  -0.387  0.00  0.00    -0.275 OA
ATOM      4  H   UNL     1       3.874  -2.248  -1.996  0.00  0.00    +0.152 HD
ENDROOT
BRANCH   1  10
ATOM      5  C   UNL     1      -0.016   1.344   0.009  0.00  0.00    +0.002 A 
ATOM      6  C   UNL     1       1.158   2.118   0.002  0.00  0.00    +0.002 A 
ATOM      7  C   UNL     1       2.389   1.570  -0.013  0.00  0.00    +0.027 A 
ATOM      8  C   UNL     1       2.533   0.108  -0.022  0.00  0.00    +0.061 A 
ATOM      9  N   UNL     1       3.569  -0.680  -0.036  0.00  0.00    -0.348 N 
ATOM     10  C   UNL     1       3.071  -2.062  -0.039  0.00  0.00    +0.269 C 
ATOM     11  N   UNL     1       1.606  -1.974  -0.024  0.00  0.00    -0.348 N 
ATOM     12  C   UNL     1       1.290  -0.712  -0.014  0.00  0.00    +0.061 A 
ATOM     13  C   UNL     1       0.002  -0.004   0.002  0.00  0.00    +0.027 A 
ATOM     14  H   UNL     1       4.499  -0.405  -0.045  0.00  0.00    +0.163 HD
ATOM     15  H   UNL     1       0.987  -2.721  -0.022  0.00  0.00    +0.163 HD
ENDBRANCH   1  10
BRANCH   2  16
ATOM     16  C   UNL     1       3.908  -4.813  -2.565  0.00  0.00    +0.131 C 
BRANCH  16  17
ATOM     17  C   UNL     1       3.717  -6.298  -2.393  0.00  0.00    -0.034 A 
ATOM     18  C   UNL     1       4.732  -7.065  -1.847  0.00  0.00    +0.053 A 
ATOM     19  C   UNL     1       4.553  -8.429  -1.689  0.00  0.00    +0.164 A 
ATOM     20  C   UNL     1       3.361  -9.023  -2.077  0.00  0.00    +0.180 A 
ATOM     21  C   UNL     1       2.347  -8.253  -2.623  0.00  0.00    +0.086 A 
ATOM     22  C   UNL     1       2.527  -6.889  -2.774  0.00  0.00    +0.028 A 
ATOM     23 CL   UNL     1       0.855  -8.995  -3.109  0.00  0.00    -0.080 Cl
ATOM     24  O   UNL     1       3.195 -10.368  -1.916  0.00  0.00    -0.487 OA
ATOM     25  C   UNL     1       4.003 -11.202  -2.749  0.00  0.00    +0.232 C 
ATOM     26  C   UNL     1       5.377 -11.410  -2.132  0.00  0.00    +0.082 C 
ATOM     27  C   UNL     1       6.174 -10.118  -2.043  0.00  0.00    +0.232 C 
ATOM     28  O   UNL     1       5.545  -9.195  -1.151  0.00  0.00    -0.488 OA
ENDBRANCH  16  17
ENDBRANCH   2  16
TORSDOF 3
