REMARK  Name = ZINC49645609
REMARK  5 active torsions:
REMARK  status: ('A' for Active; 'I' for Inactive)
REMARK    1  A    between atoms: C_1  and  C_2
REMARK    2  A    between atoms: C_2  and  C_3
REMARK    3  A    between atoms: C_4  and  C_19
REMARK    4  A    between atoms: N_8  and  S_9
REMARK    5  A    between atoms: S_9  and  C_12
REMARK                            x       y       z     vdW  Elec       q    Type
REMARK                         _______ _______ _______ _____ _____    ______ ____
ROOT
ATOM      1  S   UNL     1       4.524  -1.825   4.022  0.00  0.00    +0.073 S 
ATOM      2  O   UNL     1       4.162  -0.814   4.953  0.00  0.00    -0.151 OA
ATOM      3  O   UNL     1       3.971  -3.130   4.118  0.00  0.00    -0.151 OA
ENDROOT
BRANCH   1   9
ATOM      4  C   UNL     1       0.731  -0.503   1.223  0.00  0.00    +0.027 A 
ATOM      5  C   UNL     1       0.045  -0.840   2.315  0.00  0.00    +0.009 A 
ATOM      6  S   UNL     1       1.342  -1.349   3.432  0.00  0.00    -0.053 S 
ATOM      7  C   UNL     1       2.728  -1.070   2.339  0.00  0.00    +0.191 A 
ATOM      8  N   UNL     1       2.090  -0.615   1.205  0.00  0.00    -0.336 N 
ATOM      9  N   UNL     1       4.007  -1.254   2.556  0.00  0.00    -0.108 NA
ATOM     10  C   UNL     1      -1.444  -0.800   2.548  0.00  0.00    +0.053 C 
ATOM     11  H   UNL     1       2.597  -0.376   0.413  0.00  0.00    +0.168 HD
BRANCH   4  13
ATOM     12  C   UNL     1      -0.019   1.526   0.010  0.00  0.00    +0.010 C 
ATOM     13  C   UNL     1       0.002  -0.004   0.002  0.00  0.00    +0.050 C 
ENDBRANCH   4  13
ENDBRANCH   1   9
BRANCH   1  14
ATOM     14  C   UNL     1       6.330  -1.921   3.874  0.00  0.00    +0.138 C 
ATOM     15  C   UNL     1       6.698  -2.774   2.658  0.00  0.00    +0.024 C 
ATOM     16  C   UNL     1       8.222  -2.914   2.587  0.00  0.00    -0.017 C 
ATOM     17  C   UNL     1       8.735  -3.517   3.896  0.00  0.00    -0.082 C 
ATOM     18  N   UNL     1       8.373  -2.642   5.018  0.00  0.00    +0.380 N 
ATOM     19  C   UNL     1       6.912  -2.560   5.136  0.00  0.00    -0.054 C 
ATOM     20  H   UNL     1       8.759  -3.015   5.872  0.00  0.00    -0.086 HD
ATOM     21  H   UNL     1       8.748  -1.719   4.857  0.00  0.00    -0.086 HD
ENDBRANCH   1  14
TORSDOF 3
