REMARK  Name = ZINC45252937
REMARK  8 active torsions:
REMARK  status: ('A' for Active; 'I' for Inactive)
REMARK    1  A    between atoms: C_1  and  N_2
REMARK    2  A    between atoms: C_5  and  C_9
REMARK    3  A    between atoms: C_5  and  C_20
REMARK    4  A    between atoms: C_12  and  O_15
REMARK    5  A    between atoms: O_15  and  C_16
REMARK    6  A    between atoms: C_24  and  C_26
REMARK    7  A    between atoms: C_31  and  O_32
REMARK    8  A    between atoms: O_32  and  C_33
REMARK                            x       y       z     vdW  Elec       q    Type
REMARK                         _______ _______ _______ _____ _____    ______ ____
ROOT
ATOM      1  C   UNL     1      -0.084   1.458   0.301  0.00  0.00    +0.141 C 
ATOM      2  N   UNL     1      -0.043   0.004   0.129  0.00  0.00    -0.245 N 
ATOM      3  C   UNL     1      -1.111  -0.807   0.251  0.00  0.00    +0.254 C 
ATOM      4  O   UNL     1      -2.247  -0.475   0.515  0.00  0.00    -0.272 OA
ATOM      5  C   UNL     1      -0.616  -2.214  -0.008  0.00  0.00    +0.162 C 
ATOM      6  N   UNL     1       0.823  -2.052  -0.277  0.00  0.00    -0.296 N 
ATOM      7  C   UNL     1       1.090  -0.708  -0.184  0.00  0.00    +0.183 C 
ATOM      8  N   UNL     1       2.265  -0.178  -0.365  0.00  0.00    -0.272 NA
ATOM      9  H   UNL     1       3.023  -0.742  -0.585  0.00  0.00    +0.189 HD
ATOM     10  H   UNL     1       1.457  -2.756  -0.483  0.00  0.00    +0.150 HD
ENDROOT
BRANCH   5  11
ATOM     11  C   UNL     1      -1.312  -2.805  -1.206  0.00  0.00    -0.011 A 
ATOM     12  C   UNL     1      -0.569  -3.340  -2.242  0.00  0.00    +0.010 A 
ATOM     13  C   UNL     1      -1.205  -3.882  -3.342  0.00  0.00    +0.046 A 
ATOM     14  C   UNL     1      -2.591  -3.891  -3.406  0.00  0.00    +0.130 A 
ATOM     15  C   UNL     1      -3.334  -3.355  -2.364  0.00  0.00    +0.046 A 
ATOM     16  C   UNL     1      -2.693  -2.818  -1.265  0.00  0.00    +0.010 A 
BRANCH  14  17
ATOM     17  O   UNL     1      -3.219  -4.424  -4.487  0.00  0.00    -0.406 OA
BRANCH  17  18
ATOM     18  C   UNL     1      -4.648  -4.399  -4.484  0.00  0.00    +0.575 C 
ATOM     19  F   UNL     1      -5.091  -3.074  -4.407  0.00  0.00    -0.133 F 
ATOM     20  F   UNL     1      -5.126  -4.983  -5.662  0.00  0.00    -0.133 F 
ATOM     21  F   UNL     1      -5.125  -5.115  -3.381  0.00  0.00    -0.133 F 
ENDBRANCH  17  18
ENDBRANCH  14  17
ENDBRANCH   5  11
BRANCH   5  22
ATOM     22  C   UNL     1      -0.830  -3.079   1.208  0.00  0.00    -0.010 A 
ATOM     23  C   UNL     1      -2.039  -3.039   1.879  0.00  0.00    +0.006 A 
ATOM     24  C   UNL     1      -2.242  -3.830   2.995  0.00  0.00    +0.001 A 
ATOM     25  C   UNL     1      -1.239  -4.664   3.446  0.00  0.00    +0.009 A 
ATOM     26  C   UNL     1      -0.019  -4.708   2.773  0.00  0.00    -0.012 A 
ATOM     27  C   UNL     1       0.178  -3.913   1.646  0.00  0.00    +0.015 A 
BRANCH  26  28
ATOM     28  C   UNL     1       1.063  -5.602   3.252  0.00  0.00    +0.044 A 
ATOM     29  C   UNL     1       1.719  -6.460   2.368  0.00  0.00    +0.015 A 
ATOM     30  C   UNL     1       2.723  -7.275   2.864  0.00  0.00    +0.021 A 
ATOM     31  C   UNL     1       3.043  -7.217   4.207  0.00  0.00    +0.114 A 
ATOM     32  N   UNL     1       2.408  -6.398   5.024  0.00  0.00    -0.221 NA
ATOM     33  C   UNL     1       1.447  -5.597   4.598  0.00  0.00    +0.222 A 
BRANCH  33  34
ATOM     34  O   UNL     1       0.826  -4.767   5.472  0.00  0.00    -0.479 OA
ATOM     35  C   UNL     1       1.265  -4.810   6.832  0.00  0.00    +0.279 C 
ENDBRANCH  33  34
ENDBRANCH  26  28
ENDBRANCH   5  22
TORSDOF 6
