REMARK  Name = ZINC02748423
REMARK  8 active torsions:
REMARK  status: ('A' for Active; 'I' for Inactive)
REMARK    1  A    between atoms: C_1  and  C_2
REMARK    2  A    between atoms: C_7  and  O_8
REMARK    3  A    between atoms: O_8  and  C_9
REMARK    4  A    between atoms: C_9  and  C_10
REMARK    5  A    between atoms: N_12  and  C_13
REMARK    6  A    between atoms: C_14  and  C_20
REMARK    7  A    between atoms: C_15  and  C_19
REMARK    8  A    between atoms: C_16  and  C_18
REMARK                            x       y       z     vdW  Elec       q    Type
REMARK                         _______ _______ _______ _____ _____    ______ ____
ROOT
ATOM      1  C   UNL     1       3.713  -0.859  -0.038  0.00  0.00    +0.255 C 
ATOM      2  O   UNL     1       4.664  -0.106  -0.043  0.00  0.00    -0.272 OA
ATOM      3  N   UNL     1       3.909  -2.193  -0.047  0.00  0.00    -0.276 N 
ATOM      4  H   UNL     1       3.149  -2.795  -0.043  0.00  0.00    +0.155 HD
ENDROOT
BRANCH   3   5
ATOM      5  C   UNL     1       5.199  -2.704  -0.062  0.00  0.00    +0.090 A 
ATOM      6  C   UNL     1       5.600  -4.034  -0.073  0.00  0.00    +0.083 A 
ATOM      7  C   UNL     1       7.021  -4.285  -0.088  0.00  0.00    -0.021 A 
ATOM      8  C   UNL     1       7.834  -3.212  -0.091  0.00  0.00    -0.007 A 
ATOM      9  S   UNL     1       6.699  -1.839  -0.079  0.00  0.00    -0.077 S 
ATOM     10  C   UNL     1       9.340  -3.180  -0.105  0.00  0.00    +0.052 C 
ATOM     11  C   UNL     1       7.572  -5.687  -0.101  0.00  0.00    +0.046 C 
BRANCH   6  12
ATOM     12  C   UNL     1       4.649  -5.105  -0.069  0.00  0.00    +0.102 C 
ATOM     13  N   UNL     1       3.895  -5.954  -0.065  0.00  0.00    -0.191 NA
ENDBRANCH   6  12
ENDBRANCH   3   5
BRANCH   1  14
ATOM     14  C   UNL     1       2.312  -0.304  -0.022  0.00  0.00    +0.324 C 
BRANCH  14  15
ATOM     15  O   UNL     1       2.366   1.124  -0.015  0.00  0.00    -0.482 OA
BRANCH  15  22
ATOM     16  C   UNL     1       2.451   3.947  -0.000  0.00  0.00    +0.047 C 
ATOM     17  C   UNL     1       1.158   3.173   0.008  0.00  0.00    -0.007 A 
ATOM     18  C   UNL     1      -0.050   3.844   0.022  0.00  0.00    +0.027 A 
ATOM     19  C   UNL     1      -1.237   3.134   0.030  0.00  0.00    +0.041 A 
ATOM     20  C   UNL     1      -1.218   1.751   0.017  0.00  0.00    +0.023 A 
ATOM     21  C   UNL     1      -0.013   1.076   0.008  0.00  0.00    +0.047 A 
ATOM     22  C   UNL     1       1.179   1.786   0.000  0.00  0.00    +0.124 A 
ATOM     23 CL   UNL     1      -2.753   3.980   0.048  0.00  0.00    -0.084 Cl
ENDBRANCH  15  22
ENDBRANCH  14  15
ENDBRANCH   1  14
TORSDOF 5
