REMARK  Name = ZINC63064988
REMARK  5 active torsions:
REMARK  status: ('A' for Active; 'I' for Inactive)
REMARK    1  A    between atoms: C_3  and  C_15
REMARK    2  A    between atoms: C_4  and  S_8
REMARK    3  A    between atoms: S_8  and  C_11
REMARK    4  A    between atoms: C_15  and  C_17
REMARK    5  A    between atoms: C_15  and  C_19
REMARK                            x       y       z     vdW  Elec       q    Type
REMARK                         _______ _______ _______ _____ _____    ______ ____
ROOT
ATOM      1  C   UNL     1       0.013   1.331  -0.116  0.00  0.00    +0.039 A 
ATOM      2  C   UNL     1       1.196   2.030   0.037  0.00  0.00    +0.009 A 
ATOM      3  C   UNL     1       2.385   1.348   0.215  0.00  0.00    -0.004 A 
ATOM      4  C   UNL     1       2.393  -0.035   0.240  0.00  0.00    +0.105 A 
ATOM      5  C   UNL     1       1.212  -0.736   0.087  0.00  0.00    +0.066 A 
ATOM      6  C   UNL     1       0.020  -0.054  -0.091  0.00  0.00    +0.125 A 
ATOM      7  F   UNL     1      -1.135  -0.738  -0.240  0.00  0.00    -0.205 F 
ENDROOT
BRANCH   4   8
ATOM      8  S   UNL     1       3.910  -0.902   0.465  0.00  0.00    +0.091 S 
ATOM      9  O   UNL     1       4.561  -0.224   1.530  0.00  0.00    -0.161 OA
ATOM     10  O   UNL     1       3.531  -2.265   0.598  0.00  0.00    -0.161 OA
BRANCH   8  11
ATOM     11  C   UNL     1       4.822  -0.656  -1.083  0.00  0.00    +0.526 C 
ATOM     12  F   UNL     1       5.136   0.700  -1.229  0.00  0.00    -0.150 F 
ATOM     13  F   UNL     1       6.002  -1.407  -1.054  0.00  0.00    -0.150 F 
ATOM     14  F   UNL     1       4.032  -1.070  -2.161  0.00  0.00    -0.150 F 
ENDBRANCH   8  11
ENDBRANCH   4   8
BRANCH   3  15
ATOM     15  C   UNL     1       3.673   2.112   0.381  0.00  0.00    +0.133 C 
BRANCH  15  16
ATOM     16  C   UNL     1       3.632   2.901   1.692  0.00  0.00    +0.103 C 
ATOM     17 BR   UNL     1       5.313   3.897   1.908  0.00  0.00    -0.090 Br
ENDBRANCH  15  16
BRANCH  15  18
ATOM     18  C   UNL     1       3.841   3.042  -0.747  0.00  0.00    +0.071 C 
ATOM     19  N   UNL     1       3.971   3.760  -1.618  0.00  0.00    -0.196 NA
ENDBRANCH  15  18
ENDBRANCH   3  15
TORSDOF 5
