REMARK  Name = ZINC39404328
REMARK  15 active torsions:
REMARK  status: ('A' for Active; 'I' for Inactive)
REMARK    1  A    between atoms: C_1  and  C_2
REMARK    2  A    between atoms: C_2  and  O_3
REMARK    3  A    between atoms: O_3  and  C_4
REMARK    4  A    between atoms: C_7  and  C_10
REMARK    5  A    between atoms: N_11  and  N_12
REMARK    6  A    between atoms: C_15  and  S_19
REMARK    7  A    between atoms: S_19  and  C_20
REMARK    8  A    between atoms: C_20  and  C_21
REMARK    9  A    between atoms: N_23  and  C_24
REMARK   10  A    between atoms: C_26  and  C_39
REMARK   11  A    between atoms: C_28  and  C_38
REMARK   12  A    between atoms: C_30  and  C_33
REMARK   13  A    between atoms: C_33  and  O_35
REMARK   14  A    between atoms: O_35  and  C_36
REMARK   15  A    between atoms: C_36  and  C_37
REMARK                            x       y       z     vdW  Elec       q    Type
REMARK                         _______ _______ _______ _____ _____    ______ ____
ROOT
ATOM      1  N   UNL     1       2.094  -8.029  -3.982  0.00  0.00    -0.206 N 
ATOM      2  C   UNL     1       2.892  -8.397  -5.043  0.00  0.00    +0.231 C 
ATOM      3  N   UNL     1       3.137  -9.630  -5.389  0.00  0.00    -0.324 N 
ATOM      4  C   UNL     1       4.024  -9.530  -6.562  0.00  0.00    +0.283 C 
ATOM      5  N   UNL     1       4.187  -8.080  -6.754  0.00  0.00    -0.148 NA
ATOM      6  N   UNL     1       3.524  -7.519  -5.875  0.00  0.00    -0.116 NA
ATOM      7  H   UNL     1       1.675  -8.709  -3.432  0.00  0.00    +0.177 HD
ATOM      8  H   UNL     1       2.808 -10.438  -4.966  0.00  0.00    +0.165 HD
ENDROOT
BRANCH   1  10
ATOM      9  C   UNL     1       1.137  -6.326  -2.697  0.00  0.00    +0.138 C 
ATOM     10  N   UNL     1       1.889  -6.673  -3.697  0.00  0.00    -0.188 NA
BRANCH   9  14
ATOM     11  C   UNL     1       0.516  -2.216  -1.833  0.00  0.00    +0.121 A 
ATOM     12  C   UNL     1      -0.086  -3.188  -1.044  0.00  0.00    +0.046 A 
ATOM     13  C   UNL     1       0.113  -4.523  -1.321  0.00  0.00    +0.013 A 
ATOM     14  C   UNL     1       0.921  -4.899  -2.397  0.00  0.00    -0.005 A 
ATOM     15  C   UNL     1       1.525  -3.917  -3.188  0.00  0.00    +0.013 A 
ATOM     16  C   UNL     1       1.316  -2.584  -2.907  0.00  0.00    +0.046 A 
BRANCH  11  17
ATOM     17  O   UNL     1       0.318  -0.901  -1.556  0.00  0.00    -0.492 OA
BRANCH  17  19
ATOM     18  C   UNL     1      -0.621   0.927  -0.283  0.00  0.00    +0.048 C 
ATOM     19  C   UNL     1      -0.515  -0.592  -0.437  0.00  0.00    +0.225 C 
ENDBRANCH  17  19
ENDBRANCH  11  17
ENDBRANCH   9  14
ENDBRANCH   1  10
BRANCH   4  20
ATOM     20  S   UNL     1       5.623 -10.316  -6.221  0.00  0.00    -0.102 S 
BRANCH  20  21
ATOM     21  C   UNL     1       6.276  -9.386  -4.807  0.00  0.00    +0.168 C 
BRANCH  21  22
ATOM     22  C   UNL     1       7.620  -9.944  -4.416  0.00  0.00    +0.224 C 
ATOM     23  O   UNL     1       8.091 -10.878  -5.031  0.00  0.00    -0.275 OA
ATOM     24  N   UNL     1       8.299  -9.406  -3.384  0.00  0.00    -0.302 N 
ATOM     25  H   UNL     1       7.922  -8.660  -2.892  0.00  0.00    +0.150 HD
BRANCH  24  26
ATOM     26  C   UNL     1       9.606  -9.949  -3.004  0.00  0.00    +0.149 C 
ATOM     27  C   UNL     1      10.608  -8.811  -2.656  0.00  0.00    +0.126 C 
ATOM     28  C   UNL     1      11.722  -9.406  -1.778  0.00  0.00    +0.029 C 
ATOM     29  C   UNL     1      11.101 -10.257  -0.644  0.00  0.00    +0.161 C 
ATOM     30  S   UNL     1       9.518 -10.828  -1.386  0.00  0.00    -0.122 S 
ATOM     31  C   UNL     1      12.628 -10.290  -2.637  0.00  0.00    +0.010 C 
BRANCH  29  32
ATOM     32  C   UNL     1      11.989 -11.427  -0.307  0.00  0.00    +0.321 C 
ATOM     33  O   UNL     1      12.904 -11.287   0.470  0.00  0.00    -0.250 OA
BRANCH  32  34
ATOM     34  O   UNL     1      11.765 -12.624  -0.870  0.00  0.00    -0.464 OA
BRANCH  34  35
ATOM     35  C   UNL     1      12.646 -13.688  -0.505  0.00  0.00    +0.229 C 
ATOM     36  C   UNL     1      12.236 -14.965  -1.242  0.00  0.00    +0.048 C 
ENDBRANCH  34  35
ENDBRANCH  32  34
ENDBRANCH  29  32
BRANCH  27  37
ATOM     37  C   UNL     1      11.189  -8.266  -3.894  0.00  0.00    +0.069 C 
ATOM     38  N   UNL     1      11.637  -7.845  -4.849  0.00  0.00    -0.196 NA
ENDBRANCH  27  37
ENDBRANCH  24  26
ENDBRANCH  21  22
ENDBRANCH  20  21
ENDBRANCH   4  20
TORSDOF 12
