REMARK  Name = ZINC63908735
REMARK  8 active torsions:
REMARK  status: ('A' for Active; 'I' for Inactive)
REMARK    1  A    between atoms: C_1  and  C_2
REMARK    2  A    between atoms: C_4  and  C_12
REMARK    3  A    between atoms: C_12  and  C_14
REMARK    4  A    between atoms: C_14  and  C_16
REMARK    5  A    between atoms: C_14  and  O_17
REMARK    6  A    between atoms: O_17  and  C_18
REMARK    7  A    between atoms: C_18  and  C_20
REMARK    8  A    between atoms: C_22  and  N_28
REMARK                            x       y       z     vdW  Elec       q    Type
REMARK                         _______ _______ _______ _____ _____    ______ ____
ROOT
ATOM      1  C   UNL     1      -3.750  -1.043  -0.781  0.00  0.00    +0.244 C 
ATOM      2  C   UNL     1      -4.663  -0.245   0.153  0.00  0.00    +0.061 C 
ENDROOT
BRANCH   1   3
ATOM      3  C   UNL     1      -2.428  -0.333  -0.919  0.00  0.00    +0.202 C 
ATOM      4  O   UNL     1      -2.204   0.348  -1.899  0.00  0.00    -0.288 OA
BRANCH   3   7
ATOM      5  C   UNL     1      -0.141   1.664   0.033  0.00  0.00    +0.035 C 
ATOM      6  C   UNL     1      -0.060   0.137   0.098  0.00  0.00    +0.111 C 
ATOM      7  C   UNL     1      -1.451  -0.458   0.091  0.00  0.00    +0.030 C 
ATOM      8  C   UNL     1      -1.564  -1.153   1.283  0.00  0.00    +0.007 A 
ATOM      9  C   UNL     1      -2.608  -1.914   1.858  0.00  0.00    +0.010 A 
ATOM     10  C   UNL     1      -2.442  -2.495   3.067  0.00  0.00    +0.001 A 
ATOM     11  C   UNL     1      -1.251  -2.380   3.801  0.00  0.00    +0.002 A 
ATOM     12  C   UNL     1      -0.193  -1.676   3.342  0.00  0.00    +0.026 A 
ATOM     13  C   UNL     1      -0.291  -1.010   2.032  0.00  0.00    +0.043 A 
ATOM     14  N   UNL     1       0.556  -0.282   1.361  0.00  0.00    -0.377 N 
ATOM     15  H   UNL     1       1.454  -0.053   1.650  0.00  0.00    +0.160 HD
ENDBRANCH   3   7
ENDBRANCH   1   3
BRANCH   1  16
ATOM     16  O   UNL     1      -4.366  -1.158  -2.065  0.00  0.00    -0.449 OA
BRANCH  16  17
ATOM     17  C   UNL     1      -5.164  -2.224  -2.268  0.00  0.00    +0.360 C 
ATOM     18  O   UNL     1      -5.332  -3.034  -1.379  0.00  0.00    -0.243 OA
BRANCH  17  19
ATOM     19  C   UNL     1      -5.834  -2.408  -3.574  0.00  0.00    +0.169 A 
ATOM     20  C   UNL     1      -6.662  -3.509  -3.775  0.00  0.00    +0.095 A 
ATOM     21  C   UNL     1      -7.288  -3.668  -5.012  0.00  0.00    +0.067 A 
ATOM     22  C   UNL     1      -7.056  -2.711  -5.998  0.00  0.00    +0.100 A 
ATOM     23  C   UNL     1      -6.218  -1.642  -5.722  0.00  0.00    +0.150 A 
ATOM     24  N   UNL     1      -5.646  -1.517  -4.542  0.00  0.00    -0.226 NA
ATOM     25 CL   UNL     1      -5.924  -0.447  -6.946  0.00  0.00    -0.060 Cl
ATOM     26 CL   UNL     1      -7.806  -2.857  -7.557  0.00  0.00    -0.078 Cl
ATOM     27 CL   UNL     1      -6.912  -4.667  -2.506  0.00  0.00    -0.079 Cl
BRANCH  21  28
ATOM     28  N   UNL     1      -8.124  -4.756  -5.255  0.00  0.00    -0.356 N 
ATOM     29  H   UNL     1      -8.277  -5.415  -4.560  0.00  0.00    +0.142 HD
ATOM     30  H   UNL     1      -8.553  -4.854  -6.119  0.00  0.00    +0.142 HD
ENDBRANCH  21  28
ENDBRANCH  17  19
ENDBRANCH  16  17
ENDBRANCH   1  16
TORSDOF 6
