REMARK  Name = ZINC36537297
REMARK  11 active torsions:
REMARK  status: ('A' for Active; 'I' for Inactive)
REMARK    1  A    between atoms: C_1  and  C_2
REMARK    2  A    between atoms: C_5  and  S_8
REMARK    3  A    between atoms: S_8  and  C_11
REMARK    4  A    between atoms: C_11  and  N_12
REMARK    5  A    between atoms: C_13  and  C_15
REMARK    6  A    between atoms: C_15  and  C_17
REMARK    7  A    between atoms: C_15  and  N_29
REMARK    8  A    between atoms: C_26  and  O_27
REMARK    9  A    between atoms: O_27  and  C_28
REMARK   10  A    between atoms: N_29  and  C_30
REMARK   11  A    between atoms: C_31  and  C_33
REMARK                            x       y       z     vdW  Elec       q    Type
REMARK                         _______ _______ _______ _____ _____    ______ ____
ROOT
ATOM      1  C   UNL     1       2.973  -4.838   3.581  0.00  0.00    +0.196 C 
ENDROOT
BRANCH   1   2
ATOM      2  C   UNL     1       4.388  -4.391   3.320  0.00  0.00    +0.031 A 
ATOM      3  C   UNL     1       5.254  -4.123   4.393  0.00  0.00    -0.009 A 
ATOM      4  C   UNL     1       4.828  -4.263   5.725  0.00  0.00    +0.009 A 
ATOM      5  C   UNL     1       5.694  -3.996   6.740  0.00  0.00    +0.001 A 
ATOM      6  C   UNL     1       7.000  -3.583   6.480  0.00  0.00    +0.001 A 
ATOM      7  C   UNL     1       7.446  -3.437   5.203  0.00  0.00    +0.008 A 
ATOM      8  C   UNL     1       6.581  -3.704   4.128  0.00  0.00    -0.017 A 
ATOM      9  C   UNL     1       7.009  -3.563   2.796  0.00  0.00    +0.012 A 
ATOM     10  C   UNL     1       6.146  -3.830   1.779  0.00  0.00    +0.046 A 
ATOM     11  C   UNL     1       4.837  -4.249   2.038  0.00  0.00    +0.126 A 
BRANCH  11  12
ATOM     12  O   UNL     1       4.000  -4.513   1.001  0.00  0.00    -0.495 OA
ATOM     13  C   UNL     1       4.553  -4.437  -0.315  0.00  0.00    +0.277 C 
ENDBRANCH  11  12
ENDBRANCH   1   2
BRANCH   1  15
ATOM     14  N   UNL     1       1.701  -4.521   1.484  0.00  0.00    -0.294 N 
ATOM     15  C   UNL     1       2.366  -5.358   2.304  0.00  0.00    +0.239 C 
ATOM     16  O   UNL     1       2.477  -6.531   2.014  0.00  0.00    -0.273 OA
ATOM     17  H   UNL     1       1.657  -3.574   1.689  0.00  0.00    +0.150 HD
BRANCH  14  18
ATOM     18  C   UNL     1       1.044  -5.042   0.282  0.00  0.00    +0.278 C 
BRANCH  18  19
ATOM     19  S   UNL     1      -0.710  -5.344   0.634  0.00  0.00    +0.013 S 
ATOM     20  O   UNL     1      -0.848  -6.053   1.858  0.00  0.00    -0.168 OA
ATOM     21  O   UNL     1      -1.375  -5.790  -0.540  0.00  0.00    -0.168 OA
BRANCH  19  26
ATOM     22  C   UNL     1      -3.036   0.112   1.744  0.00  0.00    +0.044 C 
ATOM     23  C   UNL     1      -2.455  -1.251   1.467  0.00  0.00    -0.050 A 
ATOM     24  C   UNL     1      -2.443  -1.748   0.177  0.00  0.00    +0.005 A 
ATOM     25  C   UNL     1      -1.910  -2.998  -0.077  0.00  0.00    +0.027 A 
ATOM     26  C   UNL     1      -1.388  -3.751   0.958  0.00  0.00    +0.090 A 
ATOM     27  C   UNL     1      -1.399  -3.253   2.248  0.00  0.00    +0.027 A 
ATOM     28  C   UNL     1      -1.928  -2.001   2.501  0.00  0.00    +0.005 A 
ENDBRANCH  19  26
ENDBRANCH  18  19
ENDBRANCH  14  18
ENDBRANCH   1  15
BRANCH   1  29
ATOM     29  N   UNL     1       2.974  -5.900   4.590  0.00  0.00    -0.287 N 
ATOM     30  C   UNL     1       3.837  -7.072   4.418  0.00  0.00    +0.133 C 
ATOM     31  C   UNL     1       2.183  -5.800   5.676  0.00  0.00    +0.237 C 
ATOM     32  O   UNL     1       1.469  -4.830   5.819  0.00  0.00    -0.274 OA
BRANCH  31  33
ATOM     33  C   UNL     1       2.185  -6.894   6.713  0.00  0.00    +0.159 C 
ATOM     34  C   UNL     1       1.284  -8.063   6.259  0.00  0.00    +0.041 C 
ATOM     35  C   UNL     1      -0.062  -7.703   6.928  0.00  0.00    +0.098 C 
ATOM     36  C   UNL     1       0.329  -6.842   8.109  0.00  0.00    +0.214 C 
ATOM     37  O   UNL     1      -0.392  -6.582   9.049  0.00  0.00    -0.276 OA
ATOM     38  N   UNL     1       1.595  -6.406   7.966  0.00  0.00    -0.304 N 
ATOM     39  H   UNL     1       2.058  -5.844   8.606  0.00  0.00    +0.149 HD
ENDBRANCH  31  33
ENDBRANCH   1  29
TORSDOF 8
