REMARK  Name = ZINC17047266
REMARK  6 active torsions:
REMARK  status: ('A' for Active; 'I' for Inactive)
REMARK    1  A    between atoms: C_1  and  N_2
REMARK    2  A    between atoms: N_2  and  C_3
REMARK    3  A    between atoms: N_2  and  C_4
REMARK    4  A    between atoms: C_7  and  C_10
REMARK    5  A    between atoms: C_11  and  C_12
REMARK    6  A    between atoms: C_21  and  O_22
REMARK                            x       y       z     vdW  Elec       q    Type
REMARK                         _______ _______ _______ _____ _____    ______ ____
ROOT
ATOM      1  C   UNL     1      -2.471   0.004   0.005  0.00  0.00    -0.014 A 
ATOM      2  C   UNL     1      -2.519   1.332   0.433  0.00  0.00    +0.028 A 
ATOM      3  C   UNL     1      -3.730   2.007   0.425  0.00  0.00    +0.112 A 
ATOM      4  N   UNL     1      -4.850   1.446   0.039  0.00  0.00    -0.251 NA
ATOM      5  C   UNL     1      -4.909   0.179  -0.382  0.00  0.00    +0.113 A 
ATOM      6  C   UNL     1      -3.733  -0.607  -0.422  0.00  0.00    +0.011 A 
ATOM      7  C   UNL     1      -3.792  -1.933  -0.862  0.00  0.00    +0.011 A 
ATOM      8  C   UNL     1      -4.986  -2.465  -1.252  0.00  0.00    +0.004 A 
ATOM      9  C   UNL     1      -6.151  -1.706  -1.218  0.00  0.00    +0.047 A 
ATOM     10  C   UNL     1      -6.130  -0.398  -0.791  0.00  0.00    +0.143 A 
ENDROOT
BRANCH   1  12
ATOM     11  C   UNL     1      -0.078  -0.160  -0.431  0.00  0.00    +0.008 C 
ATOM     12  C   UNL     1      -1.212  -0.751  -0.010  0.00  0.00    +0.009 C 
BRANCH  11  16
ATOM     13  C   UNL     1      -0.225   3.693  -2.202  0.00  0.00    +0.029 A 
ATOM     14  C   UNL     1       0.850   3.343  -1.391  0.00  0.00    +0.023 A 
ATOM     15  C   UNL     1       0.901   2.094  -0.815  0.00  0.00    +0.010 A 
ATOM     16  C   UNL     1      -0.129   1.176  -1.046  0.00  0.00    -0.025 A 
ATOM     17  C   UNL     1      -1.205   1.530  -1.867  0.00  0.00    +0.010 A 
ATOM     18  C   UNL     1      -1.252   2.783  -2.435  0.00  0.00    +0.023 A 
BRANCH  13  20
ATOM     19  C   UNL     1       0.747   5.957  -2.453  0.00  0.00    +0.129 C 
ATOM     20  N   UNL     1      -0.274   4.959  -2.783  0.00  0.00    -0.336 N 
ATOM     21  C   UNL     1      -1.346   5.292  -3.725  0.00  0.00    +0.129 C 
ENDBRANCH  13  20
ENDBRANCH  11  16
ENDBRANCH   1  12
BRANCH  10  22
ATOM     22  O   UNL     1      -7.275   0.332  -0.763  0.00  0.00    -0.505 OA
ATOM     23  H   UNL     1      -7.456   0.812  -1.583  0.00  0.00    +0.292 HD
ENDBRANCH  10  22
TORSDOF 4
