REMARK  Name = ZINC59466571
REMARK  10 active torsions:
REMARK  status: ('A' for Active; 'I' for Inactive)
REMARK    1  A    between atoms: C_1  and  C_2
REMARK    2  A    between atoms: C_2  and  N_3
REMARK    3  A    between atoms: N_3  and  C_4
REMARK    4  A    between atoms: N_3  and  C_6
REMARK    5  A    between atoms: C_4  and  C_5
REMARK    6  A    between atoms: C_9  and  C_12
REMARK    7  A    between atoms: N_13  and  C_14
REMARK    8  A    between atoms: C_15  and  C_21
REMARK    9  A    between atoms: C_16  and  C_20
REMARK   10  A    between atoms: C_17  and  C_19
REMARK                            x       y       z     vdW  Elec       q    Type
REMARK                         _______ _______ _______ _____ _____    ______ ____
ROOT
ATOM      1  C   UNL     1      -2.238  -1.429  -5.914  0.00  0.00    +0.120 C 
ATOM      2  N   UNL     1      -1.627  -1.856  -6.989  0.00  0.00    -0.247 NA
ENDROOT
BRANCH   2   3
ATOM      3  C   UNL     1      -2.329  -2.084  -8.120  0.00  0.00    +0.114 A 
ATOM      4  C   UNL     1      -1.875  -2.544  -9.365  0.00  0.00    +0.072 A 
ATOM      5  C   UNL     1      -2.821  -2.696 -10.377  0.00  0.00    -0.026 A 
ATOM      6  C   UNL     1      -4.113  -2.401 -10.126  0.00  0.00    -0.008 A 
ATOM      7  S   UNL     1      -4.078  -1.889  -8.417  0.00  0.00    -0.074 S 
ATOM      8  C   UNL     1      -5.296  -2.487 -11.056  0.00  0.00    +0.052 C 
ATOM      9  C   UNL     1      -2.405  -3.184 -11.741  0.00  0.00    +0.045 C 
BRANCH   4  10
ATOM     10  C   UNL     1      -0.460  -2.852  -9.594  0.00  0.00    +0.244 C 
ATOM     11  O   UNL     1      -0.039  -3.974  -9.383  0.00  0.00    -0.270 OA
ATOM     12  N   UNL     1       0.376  -1.892 -10.037  0.00  0.00    -0.325 N 
ATOM     13  H   UNL     1       0.041  -0.997 -10.205  0.00  0.00    +0.145 HD
ATOM     14  H   UNL     1       1.312  -2.095 -10.188  0.00  0.00    +0.145 HD
ENDBRANCH   4  10
ENDBRANCH   2   3
BRANCH   1  18
ATOM     15  C   UNL     1      -0.036  -0.712  -2.368  0.00  0.00    +0.030 A 
ATOM     16  C   UNL     1      -1.411  -0.492  -2.388  0.00  0.00    +0.024 A 
ATOM     17  C   UNL     1      -2.127  -0.723  -3.533  0.00  0.00    +0.011 A 
ATOM     18  C   UNL     1      -1.475  -1.180  -4.685  0.00  0.00    -0.007 A 
ATOM     19  C   UNL     1      -0.092  -1.399  -4.661  0.00  0.00    +0.011 A 
ATOM     20  C   UNL     1       0.618  -1.161  -3.513  0.00  0.00    +0.024 A 
BRANCH  15  21
ATOM     21  N   UNL     1       0.688  -0.476  -1.203  0.00  0.00    -0.330 N 
BRANCH  21  23
ATOM     22  C   UNL     1      -0.019   1.526   0.010  0.00  0.00    +0.024 C 
ATOM     23  C   UNL     1       0.002  -0.004   0.002  0.00  0.00    +0.102 C 
ENDBRANCH  21  23
BRANCH  21  24
ATOM     24  C   UNL     1       2.135  -0.701  -1.182  0.00  0.00    +0.102 C 
ATOM     25  C   UNL     1       2.421  -2.145  -0.763  0.00  0.00    +0.024 C 
ENDBRANCH  21  24
ENDBRANCH  15  21
ENDBRANCH   1  18
TORSDOF 6
