REMARK  Name = ZINC60318909
REMARK  9 active torsions:
REMARK  status: ('A' for Active; 'I' for Inactive)
REMARK    1  A    between atoms: C_4  and  N_21
REMARK    2  A    between atoms: C_5  and  N_7
REMARK    3  A    between atoms: C_8  and  C_10
REMARK    4  A    between atoms: C_10  and  C_11
REMARK    5  A    between atoms: C_11  and  N_12
REMARK    6  A    between atoms: C_13  and  O_15
REMARK    7  A    between atoms: O_15  and  C_16
REMARK    8  A    between atoms: C_16  and  C_17
REMARK    9  A    between atoms: N_21  and  C_22
REMARK                            x       y       z     vdW  Elec       q    Type
REMARK                         _______ _______ _______ _____ _____    ______ ____
ROOT
ATOM      1  C   UNL     1      -0.033   1.336  -0.325  0.00  0.00    +0.002 A 
ATOM      2  C   UNL     1       1.149   2.050  -0.399  0.00  0.00    +0.002 A 
ATOM      3  C   UNL     1       2.363   1.398  -0.287  0.00  0.00    +0.025 A 
ATOM      4  C   UNL     1       2.397   0.024  -0.099  0.00  0.00    +0.049 A 
ATOM      5  C   UNL     1       1.205  -0.696  -0.024  0.00  0.00    +0.054 A 
ATOM      6  C   UNL     1      -0.008  -0.033  -0.137  0.00  0.00    +0.025 A 
ENDROOT
BRANCH   5   7
ATOM      7  N   UNL     1       1.232  -2.084   0.166  0.00  0.00    -0.284 N 
ATOM      8  C   UNL     1       0.290  -2.861  -0.404  0.00  0.00    +0.219 C 
ATOM      9  O   UNL     1      -0.521  -2.373  -1.164  0.00  0.00    -0.275 OA
ATOM     10  H   UNL     1       1.930  -2.486   0.707  0.00  0.00    +0.155 HD
BRANCH   8  11
ATOM     11  C   UNL     1       0.243  -4.336  -0.099  0.00  0.00    +0.115 C 
BRANCH  11  12
ATOM     12  C   UNL     1      -0.912  -4.979  -0.869  0.00  0.00    +0.116 C 
BRANCH  12  13
ATOM     13  N   UNL     1      -0.958  -6.413  -0.571  0.00  0.00    -0.281 N 
ATOM     14  C   UNL     1      -1.900  -7.190  -1.141  0.00  0.00    +0.401 C 
ATOM     15  O   UNL     1      -2.712  -6.701  -1.902  0.00  0.00    -0.226 OA
ATOM     16  H   UNL     1      -0.310  -6.804   0.036  0.00  0.00    +0.152 HD
BRANCH  14  17
ATOM     17  O   UNL     1      -1.942  -8.508  -0.868  0.00  0.00    -0.441 OA
BRANCH  17  18
ATOM     18  C   UNL     1      -2.968  -9.270  -1.508  0.00  0.00    +0.346 C 
BRANCH  18  19
ATOM     19  C   UNL     1      -2.857 -10.735  -1.078  0.00  0.00    +0.424 C 
ATOM     20  F   UNL     1      -3.005 -10.826   0.310  0.00  0.00    -0.167 F 
ATOM     21  F   UNL     1      -3.861 -11.481  -1.704  0.00  0.00    -0.167 F 
ATOM     22  F   UNL     1      -1.604 -11.236  -1.448  0.00  0.00    -0.167 F 
ENDBRANCH  18  19
ENDBRANCH  17  18
ENDBRANCH  14  17
ENDBRANCH  12  13
ENDBRANCH  11  12
ENDBRANCH   8  11
ENDBRANCH   5   7
BRANCH   4  23
ATOM     23  N   UNL     1       3.624  -0.638   0.014  0.00  0.00    -0.337 N 
ATOM     24  H   UNL     1       3.646  -1.598   0.154  0.00  0.00    +0.147 HD
BRANCH  23  25
ATOM     25  C   UNL     1       4.876   0.117  -0.078  0.00  0.00    +0.033 C 
ATOM     26  C   UNL     1       4.925   1.161   1.039  0.00  0.00    +0.029 C 
ATOM     27  C   UNL     1       6.232   1.951   0.942  0.00  0.00    -0.008 C 
ATOM     28  C   UNL     1       7.418   0.994   1.085  0.00  0.00    +0.007 C 
ATOM     29  C   UNL     1       7.368  -0.050  -0.032  0.00  0.00    -0.008 C 
ATOM     30  C   UNL     1       6.061  -0.839   0.065  0.00  0.00    +0.029 C 
ATOM     31  C   UNL     1       7.440   0.652  -1.390  0.00  0.00    +0.007 C 
ATOM     32  C   UNL     1       6.255   1.609  -1.533  0.00  0.00    -0.008 C 
ATOM     33  C   UNL     1       6.304   2.653  -0.415  0.00  0.00    +0.007 C 
ATOM     34  C   UNL     1       4.948   0.820  -1.436  0.00  0.00    +0.029 C 
ENDBRANCH  23  25
ENDBRANCH   4  23
TORSDOF 9
