REMARK  Name = ZINC07028244
REMARK  9 active torsions:
REMARK  status: ('A' for Active; 'I' for Inactive)
REMARK    1  A    between atoms: C_1  and  C_2
REMARK    2  A    between atoms: C_7  and  N_12
REMARK    3  A    between atoms: C_9  and  C_11
REMARK    4  A    between atoms: C_13  and  C_15
REMARK    5  A    between atoms: C_15  and  C_17
REMARK    6  A    between atoms: C_15  and  S_18
REMARK    7  A    between atoms: S_18  and  C_19
REMARK    8  A    between atoms: C_22  and  N_25
REMARK    9  A    between atoms: C_26  and  C_28
REMARK                            x       y       z     vdW  Elec       q    Type
REMARK                         _______ _______ _______ _____ _____    ______ ____
ROOT
ATOM      1  C   UNL     1       5.780   1.675  -2.111  0.00  0.00    +0.134 C 
ATOM      2  C   UNL     1       6.458   1.406  -0.766  0.00  0.00    +0.029 C 
ENDROOT
BRANCH   1   4
ATOM      3  N   UNL     1       3.367   1.815  -1.585  0.00  0.00    -0.311 N 
ATOM      4  C   UNL     1       4.388   1.099  -2.096  0.00  0.00    +0.226 C 
ATOM      5  O   UNL     1       4.186  -0.010  -2.544  0.00  0.00    -0.275 OA
ATOM      6  H   UNL     1       3.529   2.702  -1.227  0.00  0.00    +0.149 HD
BRANCH   3  12
ATOM      7  C   UNL     1      -1.022   1.979   0.684  0.00  0.00    +0.008 C 
ATOM      8  C   UNL     1      -0.211   1.324  -0.435  0.00  0.00    -0.009 C 
ATOM      9  C   UNL     1      -0.889   1.593  -1.780  0.00  0.00    +0.003 C 
ATOM     10  C   UNL     1      -0.078   0.938  -2.900  0.00  0.00    +0.002 C 
ATOM     11  C   UNL     1       1.336   1.524  -2.916  0.00  0.00    +0.022 C 
ATOM     12  C   UNL     1       2.014   1.254  -1.571  0.00  0.00    +0.076 C 
ATOM     13  C   UNL     1       1.202   1.909  -0.451  0.00  0.00    +0.009 C 
ATOM     14  C   UNL     1       1.880   1.640   0.894  0.00  0.00    +0.009 C 
ENDBRANCH   3  12
ENDBRANCH   1   4
BRANCH   1  15
ATOM     15  S   UNL     1       6.742   0.899  -3.439  0.00  0.00    -0.113 S 
BRANCH  15  16
ATOM     16  C   UNL     1       8.248   1.812  -3.464  0.00  0.00    +0.009 A 
ATOM     17  C   UNL     1       8.330   2.998  -4.184  0.00  0.00    +0.016 A 
ATOM     18  C   UNL     1       9.508   3.717  -4.198  0.00  0.00    +0.024 A 
ATOM     19  C   UNL     1      10.616   3.248  -3.503  0.00  0.00    +0.033 A 
ATOM     20  C   UNL     1      10.537   2.060  -2.789  0.00  0.00    +0.024 A 
ATOM     21  C   UNL     1       9.357   1.344  -2.769  0.00  0.00    +0.016 A 
BRANCH  19  22
ATOM     22  N   UNL     1      11.814   3.975  -3.523  0.00  0.00    -0.286 N 
ATOM     23  C   UNL     1      12.995   3.329  -3.475  0.00  0.00    +0.214 C 
ATOM     24  O   UNL     1      13.025   2.117  -3.509  0.00  0.00    -0.276 OA
ATOM     25  C   UNL     1      14.280   4.112  -3.379  0.00  0.00    +0.109 C 
ATOM     26  H   UNL     1      11.793   4.944  -3.571  0.00  0.00    +0.155 HD
ENDBRANCH  19  22
ENDBRANCH  15  16
ENDBRANCH   1  15
TORSDOF 5
