REMARK  Name = ZINC39024950
REMARK  10 active torsions:
REMARK  status: ('A' for Active; 'I' for Inactive)
REMARK    1  A    between atoms: C_1  and  C_2
REMARK    2  A    between atoms: C_2  and  N_3
REMARK    3  A    between atoms: C_16  and  C_18
REMARK    4  A    between atoms: C_19  and  O_37
REMARK    5  A    between atoms: N_23  and  C_27
REMARK    6  A    between atoms: C_24  and  O_26
REMARK    7  A    between atoms: C_27  and  C_28
REMARK    8  A    between atoms: C_28  and  C_29
REMARK    9  A    between atoms: C_32  and  O_35
REMARK   10  A    between atoms: O_35  and  C_36
REMARK                            x       y       z     vdW  Elec       q    Type
REMARK                         _______ _______ _______ _____ _____    ______ ____
ROOT
ATOM      1  C   UNL     1      -0.544  -2.667   0.784  0.00  0.00    +0.057 C 
ATOM      2  C   UNL     1       0.375  -3.550   0.409  0.00  0.00    +0.190 C 
ATOM      3  N   UNL     1       1.169  -4.199   1.342  0.00  0.00    -0.240 N 
ATOM      4  C   UNL     1       1.073  -3.991   2.662  0.00  0.00    +0.311 C 
ATOM      5  O   UNL     1       1.810  -4.603   3.411  0.00  0.00    -0.252 OA
ATOM      6  N   UNL     1       0.185  -3.122   3.184  0.00  0.00    -0.255 N 
ATOM      7  C   UNL     1      -0.696  -2.383   2.264  0.00  0.00    +0.240 C 
ATOM      8  H   UNL     1       1.826  -4.837   1.023  0.00  0.00    +0.159 HD
ENDROOT
BRANCH   1  22
ATOM      9  N   UNL     1      -0.782  -0.683  -0.608  0.00  0.00    -0.290 NA
ATOM     10  C   UNL     1      -0.801   0.270   0.510  0.00  0.00    +0.090 C 
ATOM     11  C   UNL     1      -2.238   0.756   0.744  0.00  0.00    +0.053 C 
ATOM     12  C   UNL     1      -3.136  -0.455   0.798  0.00  0.00    -0.016 A 
ATOM     13  C   UNL     1      -4.489  -0.570   1.293  0.00  0.00    +0.003 A 
ATOM     14  C   UNL     1      -5.377   0.351   1.857  0.00  0.00    +0.010 A 
ATOM     15  C   UNL     1      -6.614  -0.121   2.222  0.00  0.00    +0.001 A 
ATOM     16  C   UNL     1      -6.978  -1.446   2.044  0.00  0.00    +0.002 A 
ATOM     17  C   UNL     1      -6.119  -2.379   1.488  0.00  0.00    +0.026 A 
ATOM     18  C   UNL     1      -4.857  -1.929   1.108  0.00  0.00    +0.047 A 
ATOM     19  N   UNL     1      -3.790  -2.567   0.543  0.00  0.00    -0.356 N 
ATOM     20  C   UNL     1      -2.764  -1.679   0.361  0.00  0.00    +0.042 A 
ATOM     21  H   UNL     1      -3.763  -3.507   0.307  0.00  0.00    +0.166 HD
ATOM     22  C   UNL     1      -1.405  -1.963  -0.234  0.00  0.00    +0.139 C 
BRANCH   9  24
ATOM     23  C   UNL     1       1.108   0.415  -1.711  0.00  0.00    +0.020 C 
ATOM     24  C   UNL     1       0.586  -0.888  -1.103  0.00  0.00    +0.082 C 
ENDBRANCH   9  24
ENDBRANCH   1  22
BRANCH   7  25
ATOM     25  O   UNL     1      -2.047  -2.672   2.630  0.00  0.00    -0.370 OA
ATOM     26  H   UNL     1      -2.242  -2.520   3.564  0.00  0.00    +0.212 HD
ENDBRANCH   7  25
BRANCH   2  27
ATOM     27  O   UNL     1       0.540  -3.822  -0.910  0.00  0.00    -0.495 OA
ATOM     28  H   UNL     1       1.229  -4.476  -1.094  0.00  0.00    +0.293 HD
ENDBRANCH   2  27
BRANCH   6  29
ATOM     29  C   UNL     1       0.101  -2.913   4.631  0.00  0.00    +0.117 C 
BRANCH  29  30
ATOM     30  C   UNL     1       1.049  -1.783   5.039  0.00  0.00    +0.054 C 
BRANCH  30  31
ATOM     31  C   UNL     1       0.963  -1.568   6.528  0.00  0.00    -0.046 A 
ATOM     32  C   UNL     1       0.041  -0.676   7.045  0.00  0.00    +0.007 A 
ATOM     33  C   UNL     1      -0.039  -0.477   8.409  0.00  0.00    +0.046 A 
ATOM     34  C   UNL     1       0.806  -1.173   9.262  0.00  0.00    +0.120 A 
ATOM     35  C   UNL     1       1.730  -2.068   8.741  0.00  0.00    +0.046 A 
ATOM     36  C   UNL     1       1.802  -2.267   7.376  0.00  0.00    +0.007 A 
BRANCH  34  37
ATOM     37  O   UNL     1       0.729  -0.979  10.604  0.00  0.00    -0.495 OA
ATOM     38  C   UNL     1       1.629  -1.729  11.421  0.00  0.00    +0.277 C 
ENDBRANCH  34  37
ENDBRANCH  30  31
ENDBRANCH  29  30
ENDBRANCH   6  29
TORSDOF 8
