REMARK  Name = ZINC51002940
REMARK  3 active torsions:
REMARK  status: ('A' for Active; 'I' for Inactive)
REMARK    1  A    between atoms: C_1  and  N_2
REMARK    2  A    between atoms: C_4  and  C_13
REMARK    3  A    between atoms: C_6  and  C_7
REMARK                            x       y       z     vdW  Elec       q    Type
REMARK                         _______ _______ _______ _____ _____    ______ ____
ROOT
ATOM      1  C   UNL     1      -0.013   1.086   0.008  0.00  0.00    +0.138 C 
ATOM      2  N   UNL     1      -0.721   1.571  -1.179  0.00  0.00    -0.278 N 
ATOM      3  C   UNL     1      -0.132   1.843  -2.393  0.00  0.00    +0.101 C 
ATOM      4  C   UNL     1      -1.271   2.309  -3.280  0.00  0.00    +0.172 C 
ATOM      5  N   UNL     1      -2.453   2.243  -2.407  0.00  0.00    -0.359 N 
ATOM      6  C   UNL     1      -2.072   1.816  -1.244  0.00  0.00    +0.108 C 
ATOM      7  N   UNL     1       1.116   1.727  -2.708  0.00  0.00    -0.388 N 
ATOM      8  H   UNL     1       1.756   1.415  -2.049  0.00  0.00    +0.157 HD
ATOM      9  H   UNL     1       1.413   1.952  -3.604  0.00  0.00    +0.157 HD
ATOM     10  H   UNL     1      -3.360   2.475  -2.659  0.00  0.00    +0.162 HD
ENDROOT
BRANCH   4  11
ATOM     11  C   UNL     1      -1.433   1.386  -4.460  0.00  0.00    -0.017 A 
ATOM     12  C   UNL     1      -2.108   0.188  -4.312  0.00  0.00    +0.009 A 
ATOM     13  C   UNL     1      -2.258  -0.659  -5.393  0.00  0.00    +0.040 A 
ATOM     14  C   UNL     1      -1.733  -0.309  -6.625  0.00  0.00    +0.137 A 
ATOM     15  C   UNL     1      -1.057   0.891  -6.772  0.00  0.00    +0.053 A 
ATOM     16  C   UNL     1      -0.912   1.740  -5.690  0.00  0.00    +0.024 A 
ATOM     17 BR   UNL     1      -0.338   1.372  -8.454  0.00  0.00    -0.047 Br
ATOM     18  F   UNL     1      -1.879  -1.137  -7.683  0.00  0.00    -0.204 F 
ENDBRANCH   4  11
BRANCH   6  19
ATOM     19  C   UNL     1      -2.995   1.616  -0.104  0.00  0.00    +0.013 A 
ATOM     20  C   UNL     1      -2.723   0.640   0.855  0.00  0.00    +0.011 A 
ATOM     21  C   UNL     1      -3.587   0.460   1.915  0.00  0.00    +0.001 A 
ATOM     22  C   UNL     1      -4.721   1.244   2.029  0.00  0.00    +0.000 A 
ATOM     23  C   UNL     1      -4.996   2.213   1.081  0.00  0.00    +0.001 A 
ATOM     24  C   UNL     1      -4.137   2.407   0.018  0.00  0.00    +0.011 A 
ENDBRANCH   6  19
TORSDOF 2
