REMARK  Name = ZINC38677943
REMARK  6 active torsions:
REMARK  status: ('A' for Active; 'I' for Inactive)
REMARK    1  A    between atoms: C_3  and  C_8
REMARK    2  A    between atoms: C_13  and  O_22
REMARK    3  A    between atoms: C_17  and  N_21
REMARK    4  A    between atoms: C_18  and  C_19
REMARK    5  A    between atoms: O_22  and  C_23
REMARK    6  A    between atoms: C_23  and  C_25
REMARK                            x       y       z     vdW  Elec       q    Type
REMARK                         _______ _______ _______ _____ _____    ______ ____
ROOT
ATOM      1  C   UNL     1       3.618   2.197  -0.058  0.00  0.00    +0.098 C 
ATOM      2  C   UNL     1       4.410   1.853  -1.291  0.00  0.00    +0.008 A 
ATOM      3  C   UNL     1       3.986   2.318  -2.524  0.00  0.00    +0.012 A 
ATOM      4  C   UNL     1       4.700   2.013  -3.665  0.00  0.00    +0.047 A 
ATOM      5  C   UNL     1       5.848   1.237  -3.579  0.00  0.00    +0.135 A 
ATOM      6  C   UNL     1       6.275   0.770  -2.347  0.00  0.00    +0.093 A 
ATOM      7  C   UNL     1       5.555   1.078  -1.199  0.00  0.00    +0.138 A 
ATOM      8  O   UNL     1       5.987   0.613  -0.001  0.00  0.00    -0.441 OA
ATOM      9  C   UNL     1       5.561   1.192   1.135  0.00  0.00    +0.199 C 
ATOM     10  C   UNL     1       4.446   1.953   1.173  0.00  0.00    +0.098 C 
ENDROOT
BRANCH   1  13
ATOM     11  C   UNL     1      -0.006   1.142   0.040  0.00  0.00    +0.003 A 
ATOM     12  C   UNL     1       1.130   1.928  -0.009  0.00  0.00    +0.005 A 
ATOM     13  C   UNL     1       2.380   1.339  -0.004  0.00  0.00    -0.032 A 
ATOM     14  C   UNL     1       2.496  -0.037   0.049  0.00  0.00    +0.043 A 
ATOM     15  C   UNL     1       1.359  -0.826   0.098  0.00  0.00    +0.124 A 
ATOM     16  C   UNL     1       0.107  -0.234   0.094  0.00  0.00    +0.038 A 
ATOM     17  F   UNL     1       1.470  -2.171   0.150  0.00  0.00    -0.205 F 
ENDBRANCH   1  13
BRANCH   9  18
ATOM     18  N   UNL     1       6.280   1.002   2.288  0.00  0.00    -0.328 N 
ATOM     19  H   UNL     1       7.083   0.457   2.276  0.00  0.00    +0.145 HD
ATOM     20  H   UNL     1       5.986   1.414   3.116  0.00  0.00    +0.145 HD
ENDBRANCH   9  18
BRANCH  10  21
ATOM     21  C   UNL     1       4.046   2.542   2.415  0.00  0.00    +0.101 C 
ATOM     22  N   UNL     1       3.729   3.009   3.401  0.00  0.00    -0.191 NA
ENDBRANCH  10  21
BRANCH   5  23
ATOM     23  O   UNL     1       6.552   0.936  -4.702  0.00  0.00    -0.422 OA
BRANCH  23  24
ATOM     24  C   UNL     1       7.215   1.934  -5.320  0.00  0.00    +0.346 C 
ATOM     25  O   UNL     1       7.259   3.038  -4.815  0.00  0.00    -0.244 OA
BRANCH  24  26
ATOM     26  C   UNL     1       7.888   1.685  -6.609  0.00  0.00    +0.078 A 
ATOM     27  C   UNL     1       7.834   0.418  -7.196  0.00  0.00    +0.018 A 
ATOM     28  C   UNL     1       8.465   0.191  -8.400  0.00  0.00    +0.021 A 
ATOM     29  C   UNL     1       9.151   1.217  -9.031  0.00  0.00    +0.042 A 
ATOM     30  C   UNL     1       9.209   2.475  -8.456  0.00  0.00    +0.040 A 
ATOM     31  C   UNL     1       8.576   2.717  -7.253  0.00  0.00    +0.056 A 
ATOM     32 CL   UNL     1       8.643   4.297  -6.537  0.00  0.00    -0.083 Cl
ATOM     33 CL   UNL     1       9.943   0.922 -10.547  0.00  0.00    -0.083 Cl
ENDBRANCH  24  26
ENDBRANCH  23  24
ENDBRANCH   5  23
TORSDOF 6
