REMARK  Name = ZINC18152749
REMARK  7 active torsions:
REMARK  status: ('A' for Active; 'I' for Inactive)
REMARK    1  A    between atoms: C_1  and  C_2
REMARK    2  A    between atoms: C_2  and  C_36
REMARK    3  A    between atoms: N_5  and  C_9
REMARK    4  A    between atoms: C_9  and  C_10
REMARK    5  A    between atoms: N_25  and  C_28
REMARK    6  A    between atoms: C_31  and  O_34
REMARK    7  A    between atoms: O_34  and  C_35
REMARK                            x       y       z     vdW  Elec       q    Type
REMARK                         _______ _______ _______ _____ _____    ______ ____
ROOT
ATOM      1  C   UNL     1      -0.019   1.526   0.010  0.00  0.00    +0.017 C 
ATOM      2  C   UNL     1       0.002  -0.004   0.002  0.00  0.00    +0.012 C 
ATOM      3  C   UNL     1       0.553  -0.449  -1.296  0.00  0.00    +0.031 A 
ATOM      4  C   UNL     1       1.778  -0.924  -1.591  0.00  0.00    +0.091 A 
ATOM      5  N   UNL     1       1.996  -1.210  -2.916  0.00  0.00    -0.288 N 
ATOM      6  C   UNL     1       1.003  -1.046  -3.810  0.00  0.00    +0.292 A 
ATOM      7  O   UNL     1       1.023  -1.258  -5.009  0.00  0.00    -0.259 OA
ATOM      8  S   UNL     1      -0.271  -0.478  -2.872  0.00  0.00    -0.030 S 
ATOM      9  S   UNL     1       2.973  -1.174  -0.302  0.00  0.00    -0.093 S 
ATOM     10  C   UNL     1       2.270  -0.351   1.119  0.00  0.00    +0.152 C 
ATOM     11  C   UNL     1       0.746  -0.476   1.249  0.00  0.00    +0.109 C 
ATOM     12  C   UNL     1       0.532   0.683   2.249  0.00  0.00    +0.232 C 
ATOM     13  O   UNL     1      -0.334   0.760   3.094  0.00  0.00    -0.274 OA
ATOM     14  N   UNL     1       1.496   1.593   1.998  0.00  0.00    -0.209 N 
ATOM     15  C   UNL     1       2.484   1.130   1.202  0.00  0.00    +0.240 C 
ATOM     16  O   UNL     1       3.363   1.778   0.675  0.00  0.00    -0.274 OA
ATOM     17  C   UNL     1      -1.443  -0.497   0.095  0.00  0.00    +0.017 C 
ENDROOT
BRANCH  14  18
ATOM     18  C   UNL     1       1.467   2.901   2.508  0.00  0.00    +0.044 A 
ATOM     19  C   UNL     1       0.414   3.308   3.315  0.00  0.00    +0.027 A 
ATOM     20  C   UNL     1       0.386   4.595   3.816  0.00  0.00    +0.047 A 
ATOM     21  C   UNL     1       1.410   5.480   3.513  0.00  0.00    +0.120 A 
ATOM     22  C   UNL     1       2.463   5.073   2.705  0.00  0.00    +0.047 A 
ATOM     23  C   UNL     1       2.494   3.785   2.209  0.00  0.00    +0.027 A 
BRANCH  21  24
ATOM     24  O   UNL     1       1.382   6.747   4.006  0.00  0.00    -0.495 OA
ATOM     25  C   UNL     1       2.470   7.604   3.654  0.00  0.00    +0.277 C 
ENDBRANCH  21  24
ENDBRANCH  14  18
BRANCH   5  26
ATOM     26  C   UNL     1       3.308  -1.691  -3.357  0.00  0.00    +0.222 C 
BRANCH  26  27
ATOM     27  C   UNL     1       3.340  -3.196  -3.288  0.00  0.00    +0.235 C 
ATOM     28  O   UNL     1       2.363  -3.807  -2.908  0.00  0.00    -0.274 OA
ATOM     29  N   UNL     1       4.454  -3.864  -3.648  0.00  0.00    -0.300 N 
ATOM     30  C   UNL     1       5.647  -3.138  -4.104  0.00  0.00    +0.108 C 
ATOM     31  C   UNL     1       6.848  -3.588  -3.267  0.00  0.00    +0.019 C 
ATOM     32  C   UNL     1       6.973  -5.112  -3.339  0.00  0.00    +0.003 C 
ATOM     33  C   UNL     1       5.712  -5.757  -2.760  0.00  0.00    +0.019 C 
ATOM     34  C   UNL     1       4.500  -5.331  -3.586  0.00  0.00    +0.108 C 
ENDBRANCH  26  27
ENDBRANCH   5  26
TORSDOF 4
