REMARK  Name = ZINC04651698
REMARK  12 active torsions:
REMARK  status: ('A' for Active; 'I' for Inactive)
REMARK    1  A    between atoms: C_1  and  C_2
REMARK    2  A    between atoms: C_5  and  C_7
REMARK    3  A    between atoms: C_7  and  C_25
REMARK    4  A    between atoms: N_8  and  N_9
REMARK    5  A    between atoms: C_10  and  C_12
REMARK    6  A    between atoms: C_14  and  C_22
REMARK    7  A    between atoms: C_16  and  C_19
REMARK    8  A    between atoms: C_17  and  O_18
REMARK    9  A    between atoms: C_19  and  C_20
REMARK   10  A    between atoms: C_19  and  C_21
REMARK   11  A    between atoms: C_22  and  C_23
REMARK   12  A    between atoms: C_22  and  C_24
REMARK                            x       y       z     vdW  Elec       q    Type
REMARK                         _______ _______ _______ _____ _____    ______ ____
ROOT
ATOM      1  C   UNL     1       0.002  -0.004   0.002  0.00  0.00    +0.080 A 
ATOM      2  C   UNL     1       1.219  -0.690  -0.013  0.00  0.00    +0.020 A 
ATOM      3  C   UNL     1       1.231  -2.068  -0.021  0.00  0.00    -0.044 A 
ATOM      4  C   UNL     1       0.041  -2.777  -0.013  0.00  0.00    +0.011 A 
ATOM      5  C   UNL     1      -1.169  -2.112   0.001  0.00  0.00    -0.002 A 
ATOM      6  C   UNL     1      -1.200  -0.725   0.015  0.00  0.00    +0.132 A 
ENDROOT
BRANCH   1   8
ATOM      7  N   UNL     1       1.140   2.160   0.003  0.00  0.00    -0.203 N 
ATOM      8  C   UNL     1      -0.018   1.471   0.010  0.00  0.00    +0.267 C 
ATOM      9  O   UNL     1      -1.080   2.064   0.018  0.00  0.00    -0.268 OA
ATOM     10  H   UNL     1       1.986   1.687  -0.008  0.00  0.00    +0.178 HD
BRANCH   7  12
ATOM     11  C   UNL     1       2.239   4.227   0.003  0.00  0.00    +0.070 C 
ATOM     12  N   UNL     1       1.121   3.561   0.011  0.00  0.00    -0.184 NA
ATOM     13  C   UNL     1       3.554   3.491  -0.013  0.00  0.00    +0.068 C 
BRANCH  11  18
ATOM     14  C   UNL     1       3.154   9.777   0.024  0.00  0.00    +0.051 C 
ATOM     15  C   UNL     1       2.652   8.357   0.021  0.00  0.00    -0.013 A 
ATOM     16  C   UNL     1       1.370   7.906   0.032  0.00  0.00    +0.011 A 
ATOM     17  C   UNL     1       1.133   6.551   0.021  0.00  0.00    +0.017 A 
ATOM     18  C   UNL     1       2.219   5.693   0.011  0.00  0.00    +0.035 A 
ATOM     19  S   UNL     1       3.589   6.838   0.004  0.00  0.00    -0.092 S 
ENDBRANCH  11  18
ENDBRANCH   7  12
ENDBRANCH   1   8
BRANCH   5  20
ATOM     20  C   UNL     1      -2.458  -2.893   0.009  0.00  0.00    +0.016 C 
ATOM     21  C   UNL     1      -2.531  -3.768  -1.244  0.00  0.00    +0.012 C 
ATOM     22  C   UNL     1      -2.508  -3.781   1.254  0.00  0.00    +0.012 C 
ENDBRANCH   5  20
BRANCH   3  23
ATOM     23  C   UNL     1       2.544  -2.807  -0.038  0.00  0.00    +0.013 C 
ATOM     24  C   UNL     1       3.330  -2.421  -1.293  0.00  0.00    +0.012 C 
ATOM     25  C   UNL     1       3.355  -2.435   1.205  0.00  0.00    +0.012 C 
ENDBRANCH   3  23
BRANCH   6  26
ATOM     26  O   UNL     1      -2.387  -0.070   0.036  0.00  0.00    -0.506 OA
ATOM     27  H   UNL     1      -2.745   0.125  -0.841  0.00  0.00    +0.292 HD
ENDBRANCH   6  26
TORSDOF 6
