REMARK  Name = ZINC67406471
REMARK  11 active torsions:
REMARK  status: ('A' for Active; 'I' for Inactive)
REMARK    1  A    between atoms: C_1  and  C_2
REMARK    2  A    between atoms: C_2  and  N_3
REMARK    3  A    between atoms: N_3  and  C_4
REMARK    4  A    between atoms: C_4  and  C_5
REMARK    5  A    between atoms: C_8  and  C_11
REMARK    6  A    between atoms: C_11  and  N_12
REMARK    7  A    between atoms: N_12  and  C_13
REMARK    8  A    between atoms: N_12  and  C_14
REMARK    9  A    between atoms: N_17  and  C_18
REMARK   10  A    between atoms: C_18  and  C_19
REMARK   11  A    between atoms: C_23  and  C_28
REMARK                            x       y       z     vdW  Elec       q    Type
REMARK                         _______ _______ _______ _____ _____    ______ ____
ROOT
ATOM      1  N   UNL     1      -1.372  -0.511   0.012  0.00  0.00    -0.282 N 
ATOM      2  C   UNL     1      -1.993  -0.751   1.184  0.00  0.00    +0.303 C 
ATOM      3  O   UNL     1      -3.134  -1.171   1.193  0.00  0.00    -0.253 OA
ATOM      4  N   UNL     1      -1.350  -0.524   2.347  0.00  0.00    -0.294 N 
ATOM      5  H   UNL     1      -0.440  -0.188   2.340  0.00  0.00    +0.151 HD
ENDROOT
BRANCH   1   7
ATOM      6  C   UNL     1      -0.019   1.526   0.010  0.00  0.00    +0.024 C 
ATOM      7  C   UNL     1       0.002  -0.004   0.002  0.00  0.00    +0.106 C 
ENDBRANCH   1   7
BRANCH   1   8
ATOM      8  C   UNL     1      -2.072  -0.758  -1.251  0.00  0.00    +0.144 C 
BRANCH   8   9
ATOM      9  C   UNL     1      -1.820  -2.175  -1.696  0.00  0.00    -0.030 A 
ATOM     10  C   UNL     1      -0.734  -2.464  -2.502  0.00  0.00    +0.005 A 
ATOM     11  C   UNL     1      -0.503  -3.765  -2.910  0.00  0.00    +0.002 A 
ATOM     12  C   UNL     1      -1.357  -4.776  -2.512  0.00  0.00    -0.064 A 
ATOM     13  C   UNL     1      -2.442  -4.487  -1.706  0.00  0.00    +0.002 A 
ATOM     14  C   UNL     1      -2.671  -3.188  -1.294  0.00  0.00    +0.005 A 
BRANCH  12  15
ATOM     15  C   UNL     1      -1.106  -6.194  -2.958  0.00  0.00    -0.044 C 
BRANCH  15  16
ATOM     16  N   UNL     1      -0.245  -6.870  -1.978  0.00  0.00    +0.379 N 
ATOM     17  C   UNL     1      -0.098  -8.284  -2.349  0.00  0.00    -0.096 C 
ATOM     18  C   UNL     1       1.076  -6.228  -1.961  0.00  0.00    -0.096 C 
ATOM     19  H   UNL     1      -0.663  -6.804  -1.062  0.00  0.00    -0.082 HD
ENDBRANCH  15  16
ENDBRANCH  12  15
ENDBRANCH   8   9
ENDBRANCH   1   8
BRANCH   4  20
ATOM     20  C   UNL     1      -2.025  -0.784   3.620  0.00  0.00    +0.160 C 
BRANCH  20  21
ATOM     21  C   UNL     1      -1.095  -0.451   4.759  0.00  0.00    +0.051 A 
ATOM     22  C   UNL     1      -0.295  -1.327   5.404  0.00  0.00    +0.115 A 
ATOM     23  N   UNL     1       0.382  -0.625   6.364  0.00  0.00    -0.308 N 
ATOM     24  C   UNL     1       1.309  -0.993   7.296  0.00  0.00    +0.096 A 
ATOM     25  C   UNL     1       1.831  -0.081   8.143  0.00  0.00    -0.034 A 
ATOM     26  C   UNL     1       1.426   1.263   8.076  0.00  0.00    +0.008 A 
ATOM     27  C   UNL     1       0.503   1.643   7.152  0.00  0.00    +0.045 A 
ATOM     28  C   UNL     1      -0.033   0.678   6.274  0.00  0.00    +0.115 A 
ATOM     29  N   UNL     1      -0.922   0.760   5.294  0.00  0.00    -0.342 N 
ATOM     30  C   UNL     1       2.853  -0.506   9.165  0.00  0.00    +0.045 C 
ATOM     31  H   UNL     1      -1.375   1.569   5.012  0.00  0.00    +0.167 HD
ENDBRANCH  20  21
ENDBRANCH   4  20
TORSDOF 7
