REMARK  Name = ZINC06551673
REMARK  5 active torsions:
REMARK  status: ('A' for Active; 'I' for Inactive)
REMARK    1  A    between atoms: C_5  and  N_7
REMARK    2  A    between atoms: C_12  and  C_13
REMARK    3  A    between atoms: C_12  and  N_51
REMARK    4  A    between atoms: N_15  and  C_16
REMARK    5  A    between atoms: C_17  and  C_24
REMARK                            x       y       z     vdW  Elec       q    Type
REMARK                         _______ _______ _______ _____ _____    ______ ____
ROOT
ATOM      1  C   UNL     1      -0.014   1.209   0.009  0.00  0.00    +0.201 C 
ATOM      2  O   UNL     1       0.002  -0.004   0.002  0.00  0.00    -0.278 OA
ATOM      3  N   UNL     1      -1.191   1.867   0.018  0.00  0.00    -0.281 N 
ATOM      4  H   UNL     1      -1.204   2.836   0.023  0.00  0.00    +0.155 HD
ENDROOT
BRANCH   3   5
ATOM      5  C   UNL     1      -2.382   1.157   0.020  0.00  0.00    +0.084 A 
ATOM      6  C   UNL     1      -3.676   1.649   0.034  0.00  0.00    +0.068 A 
ATOM      7  C   UNL     1      -4.769   0.677   0.029  0.00  0.00    -0.023 A 
ATOM      8  C   UNL     1      -4.388  -0.613   0.019  0.00  0.00    -0.004 A 
ATOM      9  S   UNL     1      -2.612  -0.558   0.012  0.00  0.00    -0.077 S 
ATOM     10  C   UNL     1      -5.565  -1.549   0.017  0.00  0.00    +0.043 C 
ATOM     11  C   UNL     1      -6.761  -0.670  -0.411  0.00  0.00    +0.010 C 
ATOM     12  C   UNL     1      -6.298   0.730   0.038  0.00  0.00    +0.037 C 
BRANCH   6  13
ATOM     13  C   UNL     1      -3.941   3.091   0.050  0.00  0.00    +0.244 C 
ATOM     14  O   UNL     1      -4.059   3.699  -0.997  0.00  0.00    -0.270 OA
ATOM     15  N   UNL     1      -4.053   3.742   1.225  0.00  0.00    -0.325 N 
ATOM     16  H   UNL     1      -3.959   3.257   2.059  0.00  0.00    +0.145 HD
ATOM     17  H   UNL     1      -4.229   4.696   1.236  0.00  0.00    +0.145 HD
ENDBRANCH   6  13
ENDBRANCH   3   5
BRANCH   1  18
ATOM     18  C   UNL     1       1.280   1.980   0.001  0.00  0.00    +0.019 C 
BRANCH  18  24
ATOM     19  N   UNL     1       4.877  -0.045   0.901  0.00  0.00    -0.331 N 
ATOM     20  C   UNL     1       4.814   0.724  -0.350  0.00  0.00    +0.086 C 
ATOM     21  C   UNL     1       3.676   1.744  -0.262  0.00  0.00    -0.059 C 
ATOM     22  C   UNL     1       2.473   0.271   1.235  0.00  0.00    -0.059 C 
ATOM     23  C   UNL     1       3.611  -0.748   1.147  0.00  0.00    +0.086 C 
ATOM     24  N   UNL     1       2.406   1.022  -0.036  0.00  0.00    +0.387 N 
ATOM     25  H   UNL     1       2.256   0.361  -0.807  0.00  0.00    -0.081 HD
BRANCH  19  30
ATOM     26  C   UNL     1       7.087  -2.808  -0.101  0.00  0.00    +0.002 A 
ATOM     27  C   UNL     1       8.079  -2.710   0.856  0.00  0.00    +0.003 A 
ATOM     28  C   UNL     1       8.013  -1.730   1.829  0.00  0.00    +0.040 A 
ATOM     29  C   UNL     1       6.952  -0.844   1.848  0.00  0.00    +0.144 A 
ATOM     30  C   UNL     1       5.952  -0.939   0.886  0.00  0.00    +0.065 A 
ATOM     31  C   UNL     1       6.021  -1.928  -0.086  0.00  0.00    +0.026 A 
ATOM     32  F   UNL     1       6.886   0.113   2.799  0.00  0.00    -0.204 F 
ENDBRANCH  19  30
ENDBRANCH  18  24
ENDBRANCH   1  18
TORSDOF 5
