REMARK  Name = ZINC39675382
REMARK  9 active torsions:
REMARK  status: ('A' for Active; 'I' for Inactive)
REMARK    1  A    between atoms: C_1  and  C_2
REMARK    2  A    between atoms: C_2  and  C_4
REMARK    3  A    between atoms: C_2  and  N_14
REMARK    4  A    between atoms: C_4  and  C_5
REMARK    5  A    between atoms: C_5  and  C_6
REMARK    6  A    between atoms: C_9  and  O_12
REMARK    7  A    between atoms: O_12  and  C_13
REMARK    8  A    between atoms: C_15  and  C_17
REMARK    9  A    between atoms: C_28  and  C_30
REMARK                            x       y       z     vdW  Elec       q    Type
REMARK                         _______ _______ _______ _____ _____    ______ ____
ROOT
ATOM      1  C   UNL     1       0.346  -1.563   3.234  0.00  0.00    +0.100 C 
ATOM      2  C   UNL     1       1.074  -2.926   3.219  0.00  0.00    +0.121 C 
ATOM      3  N   UNL     1       0.895  -3.461   4.589  0.00  0.00    -0.296 N 
ATOM      4  C   UNL     1      -0.495  -3.093   4.950  0.00  0.00    +0.115 C 
ATOM      5  C   UNL     1      -0.683  -1.677   4.371  0.00  0.00    -0.004 C 
ATOM      6  C   UNL     1      -0.405  -0.627   5.443  0.00  0.00    -0.010 C 
ATOM      7  C   UNL     1      -1.475  -0.724   6.534  0.00  0.00    -0.082 C 
ATOM      8  N   UNL     1      -2.801  -0.509   5.943  0.00  0.00    +0.379 N 
ATOM      9  C   UNL     1      -3.099  -1.576   4.979  0.00  0.00    -0.082 C 
ATOM     10  C   UNL     1      -2.098  -1.516   3.822  0.00  0.00    -0.010 C 
ATOM     11  C   UNL     1       1.794  -4.130   5.338  0.00  0.00    +0.248 C 
ATOM     12  O   UNL     1       2.937  -4.260   4.945  0.00  0.00    -0.270 OA
ATOM     13  H   UNL     1      -3.498  -0.512   6.672  0.00  0.00    -0.086 HD
ATOM     14  H   UNL     1      -2.816   0.383   5.471  0.00  0.00    -0.086 HD
ENDROOT
BRANCH  11  15
ATOM     15  C   UNL     1       1.389  -4.707   6.638  0.00  0.00    +0.055 A 
ATOM     16  C   UNL     1       0.039  -4.950   6.920  0.00  0.00    +0.016 A 
ATOM     17  C   UNL     1      -0.286  -5.492   8.150  0.00  0.00    +0.020 A 
ATOM     18  C   UNL     1       0.722  -5.772   9.055  0.00  0.00    +0.111 A 
ATOM     19  N   UNL     1       1.986  -5.531   8.763  0.00  0.00    -0.263 NA
ATOM     20  C   UNL     1       2.346  -5.022   7.603  0.00  0.00    +0.123 A 
ENDBRANCH  11  15
BRANCH   1  22
ATOM     21  N   UNL     1      -0.538  -0.067   1.473  0.00  0.00    -0.312 N 
ATOM     22  C   UNL     1      -0.350  -1.325   1.918  0.00  0.00    +0.218 C 
ATOM     23  O   UNL     1      -0.740  -2.266   1.260  0.00  0.00    -0.275 OA
ATOM     24  H   UNL     1      -0.226   0.686   2.000  0.00  0.00    +0.149 HD
BRANCH  21  26
ATOM     25  C   UNL     1      -2.729   0.172   0.412  0.00  0.00    +0.028 C 
ATOM     26  C   UNL     1      -1.214   0.165   0.195  0.00  0.00    +0.070 C 
BRANCH  26  27
ATOM     27  C   UNL     1      -0.775   1.514  -0.378  0.00  0.00    +0.026 C 
BRANCH  27  28
ATOM     28  C   UNL     1       0.717   1.464  -0.712  0.00  0.00    +0.037 C 
BRANCH  28  29
ATOM     29  C   UNL     1       1.149   2.793  -1.276  0.00  0.00    -0.047 A 
ATOM     30  C   UNL     1       1.082   3.020  -2.639  0.00  0.00    +0.007 A 
ATOM     31  C   UNL     1       1.478   4.237  -3.158  0.00  0.00    +0.046 A 
ATOM     32  C   UNL     1       1.944   5.233  -2.312  0.00  0.00    +0.120 A 
ATOM     33  C   UNL     1       2.010   5.003  -0.945  0.00  0.00    +0.046 A 
ATOM     34  C   UNL     1       1.608   3.786  -0.430  0.00  0.00    +0.007 A 
BRANCH  32  35
ATOM     35  O   UNL     1       2.335   6.431  -2.820  0.00  0.00    -0.495 OA
ATOM     36  C   UNL     1       2.803   7.409  -1.890  0.00  0.00    +0.277 C 
ENDBRANCH  32  35
ENDBRANCH  28  29
ENDBRANCH  27  28
ENDBRANCH  26  27
ENDBRANCH  21  26
ENDBRANCH   1  22
TORSDOF 7
