REMARK  Name = ZINC38984223
REMARK  5 active torsions:
REMARK  status: ('A' for Active; 'I' for Inactive)
REMARK    1  A    between atoms: C_1  and  C_2
REMARK    2  A    between atoms: C_5  and  N_9
REMARK    3  A    between atoms: N_9  and  C_10
REMARK    4  A    between atoms: N_13  and  S_14
REMARK    5  A    between atoms: S_14  and  C_17
REMARK                            x       y       z     vdW  Elec       q    Type
REMARK                         _______ _______ _______ _____ _____    ______ ____
ROOT
ATOM      1  C   UNL     1       0.185  -4.907   1.237  0.00  0.00    +0.237 C 
ATOM      2  C   UNL     1       1.357  -5.853   1.100  0.00  0.00    +0.192 C 
ATOM      3  N   UNL     1       2.543  -5.399   0.821  0.00  0.00    -0.110 NA
ATOM      4  N   UNL     1       1.154  -7.170   1.271  0.00  0.00    -0.226 NA
ATOM      5  C   UNL     1      -0.037  -7.654   1.555  0.00  0.00    +0.089 A 
ATOM      6  C   UNL     1      -0.215  -9.050   1.729  0.00  0.00    +0.030 A 
ATOM      7  C   UNL     1      -1.435  -9.552   2.019  0.00  0.00    +0.002 A 
ATOM      8  C   UNL     1      -2.575  -8.743   2.163  0.00  0.00    +0.002 A 
ATOM      9  C   UNL     1      -2.517  -7.401   2.017  0.00  0.00    +0.027 A 
ATOM     10  C   UNL     1      -1.224  -6.776   1.701  0.00  0.00    +0.063 A 
ATOM     11  N   UNL     1      -1.130  -5.484   1.553  0.00  0.00    -0.359 N 
ATOM     12  H   UNL     1      -1.911  -4.916   1.651  0.00  0.00    +0.162 HD
ENDROOT
BRANCH   3  13
ATOM     13  S   UNL     1       3.817  -6.447   0.675  0.00  0.00    +0.103 S 
ATOM     14  O   UNL     1       4.033  -7.006   1.963  0.00  0.00    -0.146 OA
ATOM     15  O   UNL     1       3.554  -7.248  -0.469  0.00  0.00    -0.146 OA
BRANCH  13  16
ATOM     16  C   UNL     1       5.243  -5.483   0.298  0.00  0.00    +0.141 A 
ATOM     17  C   UNL     1       6.272  -5.427   1.176  0.00  0.00    +0.031 A 
ATOM     18  C   UNL     1       7.416  -4.675   0.911  0.00  0.00    +0.004 A 
ATOM     19  C   UNL     1       7.548  -3.968  -0.236  0.00  0.00    +0.031 A 
ATOM     20  C   UNL     1       6.508  -3.980  -1.204  0.00  0.00    +0.102 A 
ATOM     21  C   UNL     1       5.314  -4.771  -0.930  0.00  0.00    +0.127 A 
ATOM     22  N   UNL     1       4.409  -4.712  -1.908  0.00  0.00    -0.189 NA
ATOM     23  S   UNL     1       5.048  -3.755  -3.033  0.00  0.00    +0.117 S 
ATOM     24  N   UNL     1       6.461  -3.351  -2.380  0.00  0.00    -0.191 NA
ENDBRANCH  13  16
ENDBRANCH   3  13
BRANCH   1  25
ATOM     25  N   UNL     1       0.059  -4.168  -0.022  0.00  0.00    -0.318 N 
ATOM     26  H   UNL     1       0.023  -4.648  -0.864  0.00  0.00    +0.148 HD
BRANCH  25  31
ATOM     27  C   UNL     1      -0.226   1.496   0.033  0.00  0.00    +0.045 C 
ATOM     28  C   UNL     1      -0.150  -0.009   0.018  0.00  0.00    -0.032 A 
ATOM     29  C   UNL     1      -0.200  -0.714   1.207  0.00  0.00    +0.006 A 
ATOM     30  C   UNL     1      -0.131  -2.093   1.197  0.00  0.00    +0.023 A 
ATOM     31  C   UNL     1      -0.012  -2.773  -0.009  0.00  0.00    +0.030 A 
ATOM     32  C   UNL     1       0.037  -2.063  -1.202  0.00  0.00    +0.043 A 
ATOM     33  C   UNL     1      -0.037  -0.683  -1.185  0.00  0.00    +0.046 A 
ATOM     34 CL   UNL     1       0.018   0.206  -2.675  0.00  0.00    -0.083 Cl
ENDBRANCH  25  31
ENDBRANCH   1  25
TORSDOF 4
