REMARK  Name = ZINC63633448
REMARK  7 active torsions:
REMARK  status: ('A' for Active; 'I' for Inactive)
REMARK    1  A    between atoms: C_1  and  C_2
REMARK    2  A    between atoms: C_8  and  C_28
REMARK    3  A    between atoms: N_16  and  C_17
REMARK    4  A    between atoms: C_17  and  C_18
REMARK    5  A    between atoms: C_18  and  C_19
REMARK    6  A    between atoms: C_33  and  O_34
REMARK    7  A    between atoms: O_34  and  C_35
REMARK                            x       y       z     vdW  Elec       q    Type
REMARK                         _______ _______ _______ _____ _____    ______ ____
ROOT
ATOM      1  C   UNL     1      -0.560   1.430   0.196  0.00  0.00    +0.024 C 
ATOM      2  C   UNL     1      -0.392  -0.090   0.143  0.00  0.00    +0.062 C 
ATOM      3  C   UNL     1       0.334  -0.485  -1.149  0.00  0.00    +0.114 C 
ATOM      4  C   UNL     1       0.552  -1.977  -1.117  0.00  0.00    +0.221 C 
ATOM      5  O   UNL     1       0.685  -2.586  -2.157  0.00  0.00    -0.275 OA
ATOM      6  N   UNL     1       0.600  -2.638   0.048  0.00  0.00    -0.243 N 
ATOM      7  C   UNL     1       0.677  -4.110   0.043  0.00  0.00    +0.234 C 
ATOM      8  N   UNL     1      -0.248  -4.642   1.042  0.00  0.00    -0.228 NA
ATOM      9  C   UNL     1      -0.784  -3.926   1.975  0.00  0.00    +0.180 C 
ATOM     10  N   UNL     1      -0.556  -2.575   2.103  0.00  0.00    -0.286 N 
ATOM     11  C   UNL     1       0.564  -1.981   1.354  0.00  0.00    +0.239 C 
ATOM     12  N   UNL     1       0.416  -0.537   1.282  0.00  0.00    -0.280 NA
ATOM     13  N   UNL     1      -1.618  -4.540   2.879  0.00  0.00    -0.317 N 
ATOM     14  H   UNL     1      -1.119  -2.028   2.673  0.00  0.00    +0.152 HD
ATOM     15  H   UNL     1      -2.031  -4.023   3.588  0.00  0.00    +0.149 HD
ATOM     16  H   UNL     1       1.317  -0.082   1.287  0.00  0.00    +0.125 HD
ENDROOT
BRANCH   7  17
ATOM     17  C   UNL     1       0.301  -4.630  -1.321  0.00  0.00    +0.036 A 
ATOM     18  C   UNL     1       1.285  -4.928  -2.243  0.00  0.00    +0.011 A 
ATOM     19  C   UNL     1       0.941  -5.404  -3.494  0.00  0.00    +0.001 A 
ATOM     20  C   UNL     1      -0.390  -5.583  -3.826  0.00  0.00    +0.004 A 
ATOM     21  C   UNL     1      -1.378  -5.287  -2.908  0.00  0.00    +0.046 A 
ATOM     22  C   UNL     1      -1.034  -4.814  -1.649  0.00  0.00    +0.127 A 
BRANCH  22  23
ATOM     23  O   UNL     1      -2.005  -4.527  -0.742  0.00  0.00    -0.495 OA
ATOM     24  C   UNL     1      -3.357  -4.741  -1.149  0.00  0.00    +0.277 C 
ENDBRANCH  22  23
ENDBRANCH   7  17
BRANCH  13  25
ATOM     25  C   UNL     1      -1.883  -5.977   2.771  0.00  0.00    +0.108 C 
BRANCH  25  26
ATOM     26  C   UNL     1      -2.835  -6.405   3.890  0.00  0.00    +0.052 C 
BRANCH  26  27
ATOM     27  C   UNL     1      -3.107  -7.883   3.780  0.00  0.00    -0.040 C 
ATOM     28  C   UNL     1      -2.472  -8.879   4.439  0.00  0.00    -0.001 A 
ATOM     29  C   UNL     1      -1.378  -8.884   5.417  0.00  0.00    +0.010 A 
ATOM     30  C   UNL     1      -0.945 -10.066   5.911  0.00  0.00    +0.001 A 
ATOM     31  C   UNL     1      -1.512 -11.284   5.513  0.00  0.00    +0.002 A 
ATOM     32  C   UNL     1      -2.520 -11.360   4.618  0.00  0.00    +0.026 A 
ATOM     33  C   UNL     1      -3.055 -10.178   4.035  0.00  0.00    +0.043 A 
ATOM     34  N   UNL     1      -4.013  -9.993   3.160  0.00  0.00    -0.380 N 
ATOM     35  C   UNL     1      -4.151  -8.553   2.914  0.00  0.00    +0.144 C 
ATOM     36  H   UNL     1      -4.545 -10.691   2.747  0.00  0.00    +0.160 HD
ENDBRANCH  26  27
ENDBRANCH  25  26
ENDBRANCH  13  25
TORSDOF 5
