REMARK  Name = ZINC03325512
REMARK  6 active torsions:
REMARK  status: ('A' for Active; 'I' for Inactive)
REMARK    1  A    between atoms: C_1  and  C_2
REMARK    2  A    between atoms: C_2  and  C_4
REMARK    3  A    between atoms: C_2  and  N_47
REMARK    4  A    between atoms: N_6  and  C_7
REMARK    5  A    between atoms: N_18  and  C_21
REMARK    6  A    between atoms: C_26  and  O_27
REMARK                            x       y       z     vdW  Elec       q    Type
REMARK                         _______ _______ _______ _____ _____    ______ ____
ROOT
ATOM      1  C   UNL     1       4.613  -0.578   0.914  0.00  0.00    -0.004 C 
ATOM      2  C   UNL     1       3.522  -0.930  -0.100  0.00  0.00    +0.017 C 
ENDROOT
BRANCH   2   8
ATOM      3  C   UNL     1       2.491  -2.777   1.079  0.00  0.00    -0.059 C 
ATOM      4  C   UNL     1       2.207  -4.280   1.013  0.00  0.00    +0.086 C 
ATOM      5  N   UNL     1       3.479  -5.015   0.977  0.00  0.00    -0.331 N 
ATOM      6  C   UNL     1       4.280  -4.618  -0.190  0.00  0.00    +0.086 C 
ATOM      7  C   UNL     1       4.564  -3.116  -0.124  0.00  0.00    -0.059 C 
ATOM      8  N   UNL     1       3.278  -2.388  -0.110  0.00  0.00    +0.389 N 
ATOM      9  H   UNL     1       2.748  -2.631  -0.955  0.00  0.00    -0.081 HD
BRANCH   5  10
ATOM     10  C   UNL     1       3.260  -6.397   0.988  0.00  0.00    +0.072 A 
ATOM     11  C   UNL     1       1.978  -6.899   0.825  0.00  0.00    +0.027 A 
ATOM     12  C   UNL     1       1.764  -8.265   0.832  0.00  0.00    +0.002 A 
ATOM     13  C   UNL     1       2.826  -9.133   1.012  0.00  0.00    +0.004 A 
ATOM     14  C   UNL     1       4.106  -8.639   1.180  0.00  0.00    +0.047 A 
ATOM     15  C   UNL     1       4.329  -7.272   1.170  0.00  0.00    +0.138 A 
BRANCH  15  16
ATOM     16  O   UNL     1       5.588  -6.785   1.337  0.00  0.00    -0.505 OA
ATOM     17  H   UNL     1       5.853  -6.689   2.261  0.00  0.00    +0.292 HD
ENDBRANCH  15  16
ENDBRANCH   5  10
ENDBRANCH   2   8
BRANCH   2  18
ATOM     18  C   UNL     1       3.959  -0.502  -1.477  0.00  0.00    +0.203 C 
ATOM     19  O   UNL     1       4.153  -1.335  -2.337  0.00  0.00    -0.277 OA
ATOM     20  N   UNL     1       4.135   0.805  -1.753  0.00  0.00    -0.284 N 
ATOM     21  H   UNL     1       4.037   1.467  -1.050  0.00  0.00    +0.155 HD
BRANCH  20  22
ATOM     22  C   UNL     1       4.460   1.210  -3.055  0.00  0.00    +0.072 A 
ATOM     23  C   UNL     1       5.208   0.376  -3.875  0.00  0.00    +0.029 A 
ATOM     24  C   UNL     1       5.532   0.778  -5.156  0.00  0.00    +0.043 A 
ATOM     25  C   UNL     1       5.104   2.007  -5.628  0.00  0.00    +0.161 A 
ATOM     26  C   UNL     1       4.357   2.842  -4.813  0.00  0.00    +0.195 A 
ATOM     27  C   UNL     1       4.034   2.446  -3.526  0.00  0.00    +0.182 A 
ATOM     28  F   UNL     1       3.305   3.259  -2.730  0.00  0.00    -0.200 F 
ATOM     29  F   UNL     1       3.944   4.044  -5.273  0.00  0.00    -0.199 F 
ATOM     30  F   UNL     1       5.419   2.394  -6.884  0.00  0.00    -0.202 F 
ENDBRANCH  20  22
ENDBRANCH   2  18
TORSDOF 5
