REMARK  Name = ZINC27314301
REMARK  6 active torsions:
REMARK  status: ('A' for Active; 'I' for Inactive)
REMARK    1  A    between atoms: C_1  and  C_2
REMARK    2  A    between atoms: C_2  and  C_33
REMARK    3  A    between atoms: C_7  and  C_15
REMARK    4  A    between atoms: C_8  and  N_11
REMARK    5  A    between atoms: C_15  and  S_16
REMARK    6  A    between atoms: S_16  and  N_19
REMARK                            x       y       z     vdW  Elec       q    Type
REMARK                         _______ _______ _______ _____ _____    ______ ____
ROOT
ATOM      1  C   UNL     1      -0.174   1.395  -0.109  0.00  0.00    +0.194 C 
ENDROOT
BRANCH   1   7
ATOM      2  C   UNL     1       0.028  -0.629  -2.554  0.00  0.00    +0.012 C 
ATOM      3  C   UNL     1       0.739  -0.813  -1.211  0.00  0.00    -0.023 C 
ATOM      4  C   UNL     1       0.601  -2.280  -0.669  0.00  0.00    -0.003 C 
ATOM      5  C   UNL     1      -0.943  -2.370  -0.471  0.00  0.00    +0.005 C 
ATOM      6  C   UNL     1      -1.376  -0.930  -0.038  0.00  0.00    +0.011 C 
ATOM      7  C   UNL     1      -0.040  -0.127  -0.034  0.00  0.00    +0.015 C 
ATOM      8  C   UNL     1       0.745  -0.682   1.193  0.00  0.00    +0.083 C 
ATOM      9  C   UNL     1       1.170  -2.108   0.773  0.00  0.00    +0.027 C 
ATOM     10  C   UNL     1       2.199  -0.360  -1.275  0.00  0.00    +0.012 C 
BRANCH   8  11
ATOM     11  N   UNL     1      -0.122  -0.734   2.373  0.00  0.00    -0.296 N 
ATOM     12  C   UNL     1       0.416  -0.897   3.598  0.00  0.00    +0.297 C 
ATOM     13  O   UNL     1       1.621  -1.000   3.724  0.00  0.00    -0.253 OA
ATOM     14  N   UNL     1      -0.381  -0.945   4.683  0.00  0.00    -0.313 N 
ATOM     15  H   UNL     1      -1.212  -0.641   2.259  0.00  0.00    +0.151 HD
ATOM     16  H   UNL     1       0.058  -1.077   5.683  0.00  0.00    +0.146 HD
ATOM     17  H   UNL     1      -1.472  -0.851   4.569  0.00  0.00    +0.146 HD
ENDBRANCH   8  11
ENDBRANCH   1   7
BRANCH   1  18
ATOM     18  S   UNL     1      -1.072   1.996   1.348  0.00  0.00    +0.032 S 
ATOM     19  O   UNL     1      -2.423   1.560   1.304  0.00  0.00    -0.158 OA
ATOM     20  O   UNL     1      -0.287   1.808   2.518  0.00  0.00    -0.158 OA
BRANCH  18  21
ATOM     21  N   UNL     1      -1.151   3.639   1.152  0.00  0.00    -0.181 NA
ATOM     22  C   UNL     1      -0.096   4.508   1.691  0.00  0.00    +0.110 C 
ATOM     23  C   UNL     1      -0.735   5.575   2.577  0.00  0.00    +0.028 C 
ATOM     24  C   UNL     1      -1.825   6.301   1.793  0.00  0.00    -0.001 C 
ATOM     25  C   UNL     1      -1.210   7.003   0.568  0.00  0.00    +0.016 C 
ATOM     26  C   UNL     1      -2.067   8.283   0.459  0.00  0.00    +0.036 C 
ATOM     27  C   UNL     1      -2.570   8.545   1.863  0.00  0.00    -0.044 A 
ATOM     28  C   UNL     1      -2.429   7.403   2.631  0.00  0.00    -0.038 A 
ATOM     29  C   UNL     1      -2.827   7.413   3.957  0.00  0.00    +0.004 A 
ATOM     30  C   UNL     1      -3.363   8.557   4.514  0.00  0.00    +0.000 A 
ATOM     31  C   UNL     1      -3.504   9.698   3.747  0.00  0.00    +0.000 A 
ATOM     32  C   UNL     1      -3.108   9.691   2.424  0.00  0.00    +0.004 A 
ATOM     33  C   UNL     1      -2.906   5.323   1.344  0.00  0.00    +0.028 C 
ATOM     34  C   UNL     1      -2.280   4.253   0.442  0.00  0.00    +0.110 C 
ENDBRANCH  18  21
ENDBRANCH   1  18
TORSDOF 4
