REMARK  Name = ZINC09614656
REMARK  7 active torsions:
REMARK  status: ('A' for Active; 'I' for Inactive)
REMARK    1  A    between atoms: C_1  and  C_2
REMARK    2  A    between atoms: C_7  and  C_8
REMARK    3  A    between atoms: C_8  and  C_9
REMARK    4  A    between atoms: C_10  and  C_35
REMARK    5  A    between atoms: C_22  and  C_23
REMARK    6  A    between atoms: C_22  and  C_29
REMARK    7  A    between atoms: C_22  and  N_67
REMARK                            x       y       z     vdW  Elec       q    Type
REMARK                         _______ _______ _______ _____ _____    ______ ____
ROOT
ATOM      1  C   UNL     1      -5.469   8.920  -4.974  0.00  0.00    +0.042 A 
ATOM      2  C   UNL     1      -5.576   9.350  -3.684  0.00  0.00    +0.050 A 
ATOM      3  N   UNL     1      -4.654   9.007  -2.787  0.00  0.00    -0.221 NA
ATOM      4  C   UNL     1      -3.625   8.252  -3.116  0.00  0.00    +0.198 A 
ATOM      5  N   UNL     1      -3.462   7.800  -4.388  0.00  0.00    -0.295 N 
ATOM      6  H   UNL     1      -2.697   7.249  -4.615  0.00  0.00    +0.172 HD
ATOM      7  C   UNL     1      -4.373   8.115  -5.334  0.00  0.00    +0.256 A 
ATOM      8  O   UNL     1      -4.246   7.714  -6.479  0.00  0.00    -0.267 OA
ATOM      9  N   UNL     1      -2.700   7.923  -2.162  0.00  0.00    -0.305 N 
ATOM     10  C   UNL     1      -2.986   8.607  -0.893  0.00  0.00    +0.089 C 
ATOM     11  C   UNL     1      -1.888   8.276   0.121  0.00  0.00    -0.058 C 
ATOM     12  C   UNL     1      -1.539   6.137  -0.956  0.00  0.00    -0.058 C 
ATOM     13  C   UNL     1      -2.637   6.468  -1.969  0.00  0.00    +0.089 C 
ATOM     14  C   UNL     1      -6.741  10.214  -3.273  0.00  0.00    +0.066 C 
ATOM     15  N   UNL     1      -1.851   6.812   0.322  0.00  0.00    +0.389 N 
ATOM     16  H   UNL     1      -2.771   6.497   0.650  0.00  0.00    -0.080 HD
ENDROOT
BRANCH   1  17
ATOM     17  C   UNL     1      -6.506   9.303  -5.998  0.00  0.00    +0.077 C 
BRANCH  17  24
ATOM     18  C   UNL     1      -8.268  10.575  -7.902  0.00  0.00    +0.044 C 
ATOM     19  C   UNL     1      -6.898  11.147  -7.644  0.00  0.00    -0.047 A 
ATOM     20  C   UNL     1      -6.484  12.281  -8.318  0.00  0.00    +0.003 A 
ATOM     21  C   UNL     1      -5.228  12.806  -8.081  0.00  0.00    +0.000 A 
ATOM     22  C   UNL     1      -4.385  12.197  -7.170  0.00  0.00    +0.000 A 
ATOM     23  C   UNL     1      -4.801  11.067  -6.492  0.00  0.00    +0.004 A 
ATOM     24  C   UNL     1      -6.055  10.539  -6.733  0.00  0.00    -0.040 A 
ENDBRANCH  17  24
ENDBRANCH   1  17
BRANCH  15  25
ATOM     25  C   UNL     1      -0.833   6.468   1.337  0.00  0.00    -0.007 C 
BRANCH  25  26
ATOM     26  C   UNL     1      -0.797   4.971   1.506  0.00  0.00    -0.057 A 
ATOM     27  C   UNL     1       0.412   4.324   1.683  0.00  0.00    +0.002 A 
ATOM     28  C   UNL     1       0.446   2.951   1.838  0.00  0.00    +0.000 A 
ATOM     29  C   UNL     1      -0.730   2.224   1.817  0.00  0.00    +0.000 A 
ATOM     30  C   UNL     1      -1.939   2.870   1.635  0.00  0.00    +0.000 A 
ATOM     31  C   UNL     1      -1.972   4.244   1.485  0.00  0.00    +0.002 A 
ENDBRANCH  25  26
BRANCH  25  32
ATOM     32  C   UNL     1      -1.211   7.112   2.646  0.00  0.00    -0.057 A 
ATOM     33  C   UNL     1      -2.537   7.164   3.034  0.00  0.00    +0.002 A 
ATOM     34  C   UNL     1      -2.882   7.750   4.237  0.00  0.00    +0.000 A 
ATOM     35  C   UNL     1      -1.904   8.294   5.047  0.00  0.00    +0.000 A 
ATOM     36  C   UNL     1      -0.578   8.248   4.657  0.00  0.00    +0.000 A 
ATOM     37  C   UNL     1      -0.232   7.657   3.456  0.00  0.00    +0.002 A 
ENDBRANCH  25  32
ENDBRANCH  15  25
TORSDOF 5
