REMARK  Name = ZINC12524694
REMARK  5 active torsions:
REMARK  status: ('A' for Active; 'I' for Inactive)
REMARK    1  A    between atoms: C_4  and  C_7
REMARK    2  A    between atoms: C_7  and  N_8
REMARK    3  A    between atoms: C_10  and  C_17
REMARK    4  A    between atoms: N_18  and  N_19
REMARK    5  A    between atoms: C_22  and  C_25
REMARK                            x       y       z     vdW  Elec       q    Type
REMARK                         _______ _______ _______ _____ _____    ______ ____
ROOT
ATOM      1  N   UNL     1       2.159   4.118   0.003  0.00  0.00    -0.342 N 
ATOM      2  C   UNL     1       1.615   5.370   0.015  0.00  0.00    +0.096 A 
ATOM      3  C   UNL     1       0.259   5.280   0.027  0.00  0.00    +0.020 A 
ATOM      4  C   UNL     1      -0.069   3.843   0.022  0.00  0.00    +0.009 A 
ATOM      5  C   UNL     1       1.162   3.165   0.007  0.00  0.00    +0.050 A 
ATOM      6  C   UNL     1       1.175   1.774   0.000  0.00  0.00    +0.026 A 
ATOM      7  C   UNL     1      -0.013   1.076   0.008  0.00  0.00    +0.002 A 
ATOM      8  C   UNL     1      -1.227   1.746   0.017  0.00  0.00    +0.001 A 
ATOM      9  C   UNL     1      -1.261   3.123   0.029  0.00  0.00    +0.010 A 
ENDROOT
BRANCH   3  10
ATOM     10  C   UNL     1      -0.698   6.400   0.042  0.00  0.00    +0.140 C 
ATOM     11  N   UNL     1      -1.975   6.164   0.052  0.00  0.00    -0.188 NA
BRANCH  11  12
ATOM     12  N   UNL     1      -2.884   7.229   0.067  0.00  0.00    -0.215 N 
ATOM     13  C   UNL     1      -4.245   6.977   0.077  0.00  0.00    +0.178 A 
ATOM     14  N   UNL     1      -5.252   7.832   0.091  0.00  0.00    -0.223 NA
ATOM     15  C   UNL     1      -6.514   7.408   0.100  0.00  0.00    +0.087 A 
ATOM     16  C   UNL     1      -6.768   6.064   0.094  0.00  0.00    +0.077 A 
ATOM     17  S   UNL     1      -5.104   5.410   0.068  0.00  0.00    -0.059 S 
ATOM     18  H   UNL     1      -2.560   8.143   0.069  0.00  0.00    +0.176 HD
BRANCH  15  19
ATOM     19  C   UNL     1      -7.629   8.380   0.115  0.00  0.00    +0.038 A 
ATOM     20  C   UNL     1      -7.581   9.748   0.129  0.00  0.00    +0.017 A 
ATOM     21  C   UNL     1      -8.767  10.452   0.137  0.00  0.00    +0.008 A 
ATOM     22  C   UNL     1      -9.940   9.771   0.143  0.00  0.00    +0.046 A 
ATOM     23  S   UNL     1      -9.388   8.073   0.129  0.00  0.00    -0.095 S 
ENDBRANCH  15  19
ENDBRANCH  11  12
ENDBRANCH   3  10
BRANCH   1  24
ATOM     24  C   UNL     1       3.595   3.828  -0.012  0.00  0.00    +0.157 C 
BRANCH  24  28
ATOM     25  C   UNL     1       4.883   3.225  -4.040  0.00  0.00    +0.000 A 
ATOM     26  C   UNL     1       4.909   4.493  -3.488  0.00  0.00    +0.000 A 
ATOM     27  C   UNL     1       4.492   4.688  -2.185  0.00  0.00    +0.005 A 
ATOM     28  C   UNL     1       4.049   3.616  -1.433  0.00  0.00    -0.028 A 
ATOM     29  C   UNL     1       4.028   2.348  -1.983  0.00  0.00    +0.005 A 
ATOM     30  C   UNL     1       4.440   2.153  -3.288  0.00  0.00    +0.000 A 
ENDBRANCH  24  28
ENDBRANCH   1  24
TORSDOF 5
