REMARK  Name = ZINC18243895
REMARK  3 active torsions:
REMARK  status: ('A' for Active; 'I' for Inactive)
REMARK    1  A    between atoms: C_1  and  C_2
REMARK    2  A    between atoms: C_5  and  N_8
REMARK    3  A    between atoms: C_15  and  C_22
REMARK                            x       y       z     vdW  Elec       q    Type
REMARK                         _______ _______ _______ _____ _____    ______ ____
ROOT
ATOM      1  N   UNL     1       0.130  -4.417  -0.959  0.00  0.00    -0.210 N 
ATOM      2  C   UNL     1       0.113  -5.379  -1.921  0.00  0.00    +0.230 C 
ATOM      3  O   UNL     1       0.313  -5.228  -3.107  0.00  0.00    -0.275 OA
ATOM      4  C   UNL     1      -0.203  -6.660  -1.217  0.00  0.00    +0.088 C 
ATOM      5  C   UNL     1       0.390  -7.955  -1.718  0.00  0.00    +0.014 C 
ATOM      6  C   UNL     1      -0.079  -9.060  -0.753  0.00  0.00    +0.009 C 
ATOM      7  C   UNL     1       0.306  -8.761   0.692  0.00  0.00    +0.020 C 
ATOM      8  C   UNL     1      -0.168  -7.362   1.135  0.00  0.00    +0.021 C 
ATOM      9  C   UNL     1       0.446  -6.376   0.170  0.00  0.00    +0.088 C 
ATOM     10  C   UNL     1       0.147  -4.918   0.306  0.00  0.00    +0.230 C 
ATOM     11  O   UNL     1      -0.044  -4.306   1.335  0.00  0.00    -0.275 OA
ENDROOT
BRANCH   1  16
ATOM     12  C   UNL     1       0.153   1.141  -2.109  0.00  0.00    +0.044 C 
ATOM     13  C   UNL     1       0.147  -0.335  -1.804  0.00  0.00    -0.050 A 
ATOM     14  C   UNL     1       0.124  -1.253  -2.837  0.00  0.00    +0.005 A 
ATOM     15  C   UNL     1       0.118  -2.607  -2.560  0.00  0.00    +0.024 A 
ATOM     16  C   UNL     1       0.136  -3.044  -1.243  0.00  0.00    +0.044 A 
ATOM     17  C   UNL     1       0.160  -2.120  -0.208  0.00  0.00    +0.024 A 
ATOM     18  C   UNL     1       0.170  -0.768  -0.491  0.00  0.00    +0.005 A 
ENDBRANCH   1  16
BRANCH   7  19
ATOM     19  C   UNL     1       1.805  -8.834   0.825  0.00  0.00    -0.044 A 
ATOM     20  C   UNL     1       2.440  -8.172   1.859  0.00  0.00    +0.004 A 
ATOM     21  C   UNL     1       3.815  -8.239   1.981  0.00  0.00    +0.000 A 
ATOM     22  C   UNL     1       4.555  -8.969   1.071  0.00  0.00    +0.000 A 
ATOM     23  C   UNL     1       3.920  -9.633   0.037  0.00  0.00    +0.000 A 
ATOM     24  C   UNL     1       2.545  -9.569  -0.083  0.00  0.00    +0.004 A 
ENDBRANCH   7  19
TORSDOF 2
