REMARK  Name = ZINC39873236
REMARK  7 active torsions:
REMARK  status: ('A' for Active; 'I' for Inactive)
REMARK    1  A    between atoms: C_1  and  O_2
REMARK    2  A    between atoms: O_2  and  C_3
REMARK    3  A    between atoms: C_6  and  N_10
REMARK    4  A    between atoms: C_11  and  C_26
REMARK    5  A    between atoms: C_29  and  O_32
REMARK    6  A    between atoms: O_32  and  C_33
REMARK    7  A    between atoms: C_33  and  C_34
REMARK                            x       y       z     vdW  Elec       q    Type
REMARK                         _______ _______ _______ _____ _____    ______ ____
ROOT
ATOM      1  N   UNL     1       2.541  -2.502   4.231  0.00  0.00    -0.253 N 
ATOM      2  C   UNL     1       2.688  -3.955   4.415  0.00  0.00    +0.150 C 
ATOM      3  C   UNL     1       3.439  -4.129   5.694  0.00  0.00    +0.072 A 
ATOM      4  C   UNL     1       3.874  -5.337   6.403  0.00  0.00    +0.199 A 
ATOM      5  O   UNL     1       3.815  -6.453   5.918  0.00  0.00    -0.287 OA
ATOM      6  C   UNL     1       4.395  -5.070   7.768  0.00  0.00    +0.064 A 
ATOM      7  C   UNL     1       4.661  -6.125   8.640  0.00  0.00    +0.015 A 
ATOM      8  C   UNL     1       5.135  -5.862   9.896  0.00  0.00    +0.001 A 
ATOM      9  C   UNL     1       5.351  -4.553  10.302  0.00  0.00    +0.004 A 
ATOM     10  C   UNL     1       5.095  -3.500   9.453  0.00  0.00    +0.047 A 
ATOM     11  C   UNL     1       4.613  -3.741   8.166  0.00  0.00    +0.139 A 
ATOM     12  O   UNL     1       4.378  -2.692   7.345  0.00  0.00    -0.450 OA
ATOM     13  C   UNL     1       3.703  -2.885   6.195  0.00  0.00    +0.199 A 
ATOM     14  C   UNL     1       3.139  -1.886   5.270  0.00  0.00    +0.287 C 
ATOM     15  O   UNL     1       3.202  -0.683   5.424  0.00  0.00    -0.266 OA
ENDROOT
BRANCH   1  19
ATOM     16  C   UNL     1       0.626  -0.619   1.042  0.00  0.00    +0.138 A 
ATOM     17  C   UNL     1       1.202   0.139   2.051  0.00  0.00    +0.049 A 
ATOM     18  C   UNL     1       1.836  -0.484   3.107  0.00  0.00    +0.027 A 
ATOM     19  C   UNL     1       1.898  -1.871   3.160  0.00  0.00    +0.039 A 
ATOM     20  C   UNL     1       1.321  -2.630   2.150  0.00  0.00    +0.047 A 
ATOM     21  C   UNL     1       0.682  -2.005   1.097  0.00  0.00    +0.084 A 
ATOM     22 CL   UNL     1      -0.045  -2.953  -0.163  0.00  0.00    -0.080 Cl
BRANCH  16  24
ATOM     23  C   UNL     1      -0.017   1.425   0.010  0.00  0.00    +0.277 C 
ATOM     24  O   UNL     1       0.002  -0.004   0.002  0.00  0.00    -0.494 OA
ENDBRANCH  16  24
ENDBRANCH   1  19
BRANCH   2  25
ATOM     25  C   UNL     1       1.333  -4.607   4.513  0.00  0.00    -0.022 A 
ATOM     26  C   UNL     1       0.318  -3.986   5.216  0.00  0.00    +0.009 A 
ATOM     27  C   UNL     1      -0.925  -4.582   5.308  0.00  0.00    +0.046 A 
ATOM     28  C   UNL     1      -1.154  -5.804   4.693  0.00  0.00    +0.121 A 
ATOM     29  C   UNL     1      -0.134  -6.425   3.987  0.00  0.00    +0.046 A 
ATOM     30  C   UNL     1       1.106  -5.823   3.894  0.00  0.00    +0.009 A 
BRANCH  28  31
ATOM     31  O   UNL     1      -2.376  -6.392   4.782  0.00  0.00    -0.483 OA
BRANCH  31  32
ATOM     32  C   UNL     1      -2.540  -7.650   4.124  0.00  0.00    +0.324 C 
BRANCH  32  33
ATOM     33  C   UNL     1      -3.948  -8.145   4.331  0.00  0.00    +0.248 C 
ATOM     34  O   UNL     1      -4.734  -7.486   4.977  0.00  0.00    -0.272 OA
ATOM     35  N   UNL     1      -4.334  -9.321   3.797  0.00  0.00    -0.327 N 
ATOM     36  H   UNL     1      -3.706  -9.848   3.280  0.00  0.00    +0.145 HD
ATOM     37  H   UNL     1      -5.241  -9.640   3.930  0.00  0.00    +0.145 HD
ENDBRANCH  32  33
ENDBRANCH  31  32
ENDBRANCH  28  31
ENDBRANCH   2  25
TORSDOF 6
