REMARK  Name = ZINC12409337
REMARK  5 active torsions:
REMARK  status: ('A' for Active; 'I' for Inactive)
REMARK    1  A    between atoms: C_1  and  O_2
REMARK    2  A    between atoms: O_2  and  C_3
REMARK    3  A    between atoms: C_6  and  C_9
REMARK    4  A    between atoms: C_14  and  C_23
REMARK    5  A    between atoms: C_27  and  O_29
REMARK                            x       y       z     vdW  Elec       q    Type
REMARK                         _______ _______ _______ _____ _____    ______ ____
ROOT
ATOM      1  C   UNL     1      -0.170   1.810   0.987  0.00  0.00    +0.032 C 
ATOM      2  C   UNL     1      -1.569   1.195   1.069  0.00  0.00    +0.059 C 
ATOM      3  C   UNL     1      -2.429   1.720  -0.069  0.00  0.00    +0.019 C 
ATOM      4  C   UNL     1      -1.900   1.968  -1.275  0.00  0.00    +0.037 C 
ATOM      5  C   UNL     1      -2.562   2.416  -2.562  0.00  0.00    +0.137 C 
ATOM      6  N   UNL     1      -3.924   2.900  -2.425  0.00  0.00    -0.313 N 
ATOM      7  C   UNL     1      -4.899   2.054  -1.900  0.00  0.00    +0.205 A 
ATOM      8  C   UNL     1      -4.782   1.494  -0.561  0.00  0.00    +0.208 A 
ATOM      9  N   UNL     1      -5.759   0.669  -0.363  0.00  0.00    -0.032 NA
ATOM     10  O   UNL     1      -6.573   0.691  -1.528  0.00  0.00    -0.239 OA
ATOM     11  N   UNL     1      -5.974   1.589  -2.454  0.00  0.00    -0.032 NA
ATOM     12  N   UNL     1      -3.741   1.889   0.267  0.00  0.00    -0.297 N 
ATOM     13  C   UNL     1      -0.498   1.794  -1.456  0.00  0.00    +0.163 C 
ATOM     14  O   UNL     1      -0.032   1.987  -2.562  0.00  0.00    -0.292 OA
ATOM     15  C   UNL     1       0.430   1.386  -0.358  0.00  0.00    +0.088 C 
ATOM     16  H   UNL     1      -4.152   3.804  -2.695  0.00  0.00    +0.149 HD
ATOM     17  H   UNL     1      -3.954   2.302   1.118  0.00  0.00    +0.153 HD
ENDROOT
BRANCH   1  21
ATOM     18  C   UNL     1       2.259   0.355   4.188  0.00  0.00    +0.120 A 
ATOM     19  C   UNL     1       2.050   1.719   4.039  0.00  0.00    +0.046 A 
ATOM     20  C   UNL     1       1.264   2.186   3.003  0.00  0.00    +0.007 A 
ATOM     21  C   UNL     1       0.686   1.297   2.116  0.00  0.00    -0.043 A 
ATOM     22  C   UNL     1       0.889  -0.063   2.266  0.00  0.00    +0.007 A 
ATOM     23  C   UNL     1       1.678  -0.535   3.297  0.00  0.00    +0.046 A 
BRANCH  18  25
ATOM     24  C   UNL     1       3.203  -1.523   5.298  0.00  0.00    +0.277 C 
ATOM     25  O   UNL     1       3.031  -0.107   5.206  0.00  0.00    -0.495 OA
ENDBRANCH  18  25
ENDBRANCH   1  21
BRANCH   5  26
ATOM     26  C   UNL     1      -2.567   1.254  -3.521  0.00  0.00    -0.019 A 
ATOM     27  C   UNL     1      -1.846   1.327  -4.699  0.00  0.00    +0.006 A 
ATOM     28  C   UNL     1      -1.845   0.261  -5.579  0.00  0.00    +0.004 A 
ATOM     29  C   UNL     1      -2.573  -0.877  -5.289  0.00  0.00    +0.045 A 
ATOM     30  C   UNL     1      -3.301  -0.951  -4.110  0.00  0.00    +0.117 A 
ATOM     31  C   UNL     1      -3.297   0.119  -3.226  0.00  0.00    +0.051 A 
BRANCH  30  32
ATOM     32  O   UNL     1      -4.018  -2.069  -3.822  0.00  0.00    -0.507 OA
ATOM     33  H   UNL     1      -4.927  -2.049  -4.151  0.00  0.00    +0.292 HD
ENDBRANCH  30  32
ENDBRANCH   5  26
TORSDOF 4
