REMARK  Name = ZINC63431694
REMARK  9 active torsions:
REMARK  status: ('A' for Active; 'I' for Inactive)
REMARK    1  A    between atoms: C_1  and  N_2
REMARK    2  A    between atoms: N_2  and  C_3
REMARK    3  A    between atoms: N_2  and  S_4
REMARK    4  A    between atoms: S_4  and  C_7
REMARK    5  A    between atoms: C_11  and  C_13
REMARK    6  A    between atoms: C_15  and  C_25
REMARK    7  A    between atoms: N_17  and  C_19
REMARK    8  A    between atoms: C_26  and  C_27
REMARK    9  A    between atoms: C_26  and  C_29
REMARK                            x       y       z     vdW  Elec       q    Type
REMARK                         _______ _______ _______ _____ _____    ______ ____
ROOT
ATOM      1  C   UNL     1       4.598  -3.824  -2.056  0.00  0.00    +0.134 C 
ATOM      2  C   UNL     1       5.661  -3.592  -1.003  0.00  0.00    -0.008 C 
ATOM      3  C   UNL     1       6.850  -3.728  -1.629  0.00  0.00    +0.099 C 
ATOM      4  N   UNL     1       6.685  -4.017  -2.951  0.00  0.00    -0.242 N 
ATOM      5  N   UNL     1       5.362  -4.095  -3.290  0.00  0.00    -0.224 NA
ATOM      6  H   UNL     1       5.133  -3.427  -4.011  0.00  0.00    +0.146 HD
ENDROOT
BRANCH   1  11
ATOM      7  C   UNL     1       1.857  -1.498  -3.209  0.00  0.00    +0.106 A 
ATOM      8  C   UNL     1       2.178  -0.337  -2.531  0.00  0.00    +0.028 A 
ATOM      9  C   UNL     1       3.282  -0.303  -1.701  0.00  0.00    +0.002 A 
ATOM     10  C   UNL     1       4.065  -1.432  -1.547  0.00  0.00    +0.005 A 
ATOM     11  C   UNL     1       3.744  -2.594  -2.224  0.00  0.00    -0.023 A 
ATOM     12  C   UNL     1       2.637  -2.628  -3.051  0.00  0.00    +0.034 A 
BRANCH   7  13
ATOM     13  S   UNL     1       0.449  -1.540  -4.268  0.00  0.00    +0.060 S 
ATOM     14  O   UNL     1       0.600  -2.684  -5.098  0.00  0.00    -0.153 OA
ATOM     15  O   UNL     1       0.299  -0.230  -4.796  0.00  0.00    -0.153 OA
BRANCH  13  17
ATOM     16  C   UNL     1      -1.637  -0.694  -2.769  0.00  0.00    +0.131 C 
ATOM     17  N   UNL     1      -0.874  -1.821  -3.312  0.00  0.00    -0.183 NA
ATOM     18  C   UNL     1      -1.282  -3.195  -3.010  0.00  0.00    +0.131 C 
ENDBRANCH  13  17
ENDBRANCH   7  13
ENDBRANCH   1  11
BRANCH   4  19
ATOM     19  C   UNL     1       7.737  -4.212  -3.849  0.00  0.00    +0.049 A 
ATOM     20  C   UNL     1       7.471  -4.497  -5.182  0.00  0.00    +0.025 A 
ATOM     21  C   UNL     1       8.513  -4.689  -6.067  0.00  0.00    +0.002 A 
ATOM     22  C   UNL     1       9.821  -4.599  -5.627  0.00  0.00    +0.000 A 
ATOM     23  C   UNL     1      10.090  -4.315  -4.301  0.00  0.00    +0.002 A 
ATOM     24  C   UNL     1       9.052  -4.115  -3.412  0.00  0.00    +0.025 A 
ENDBRANCH   4  19
BRANCH   2  25
ATOM     25  C   UNL     1       5.452  -3.294   0.359  0.00  0.00    +0.025 C 
ATOM     26  C   UNL     1       4.194  -3.313   0.873  0.00  0.00    +0.072 C 
BRANCH  26  27
ATOM     27  C   UNL     1       3.949  -2.837   2.282  0.00  0.00    +0.216 C 
ATOM     28  N   UNL     1       2.949  -1.762   2.284  0.00  0.00    -0.359 N 
ATOM     29  C   UNL     1       1.940  -2.168   2.998  0.00  0.00    +0.060 A 
ATOM     30  C   UNL     1       0.659  -1.547   3.361  0.00  0.00    +0.027 A 
ATOM     31  C   UNL     1      -0.213  -2.224   4.134  0.00  0.00    +0.002 A 
ATOM     32  C   UNL     1       0.048  -3.519   4.617  0.00  0.00    +0.002 A 
ATOM     33  C   UNL     1       1.191  -4.179   4.343  0.00  0.00    +0.027 A 
ATOM     34  C   UNL     1       2.217  -3.538   3.509  0.00  0.00    +0.060 A 
ATOM     35  N   UNL     1       3.387  -3.926   3.091  0.00  0.00    -0.359 N 
ATOM     36  H   UNL     1       3.027  -0.905   1.835  0.00  0.00    +0.162 HD
ATOM     37  H   UNL     1       3.810  -4.778   3.279  0.00  0.00    +0.162 HD
ENDBRANCH  26  27
BRANCH  26  38
ATOM     38  C   UNL     1       3.102  -3.784   0.076  0.00  0.00    +0.099 C 
ATOM     39  N   UNL     1       2.235  -4.159  -0.556  0.00  0.00    -0.191 NA
ENDBRANCH  26  38
ENDBRANCH   2  25
TORSDOF 7
