REMARK  Name = ZINC66863031
REMARK  4 active torsions:
REMARK  status: ('A' for Active; 'I' for Inactive)
REMARK    1  A    between atoms: C_1  and  C_2
REMARK    2  A    between atoms: C_5  and  N_9
REMARK    3  A    between atoms: N_9  and  C_10
REMARK    4  A    between atoms: C_10  and  C_11
REMARK                            x       y       z     vdW  Elec       q    Type
REMARK                         _______ _______ _______ _____ _____    ______ ____
ROOT
ATOM      1  C   UNL     1       0.076  -4.910   1.241  0.00  0.00    +0.158 C 
ENDROOT
BRANCH   1   2
ATOM      2  C   UNL     1       0.095  -6.389   0.955  0.00  0.00    +0.077 A 
ATOM      3  C   UNL     1       1.198  -7.168   0.899  0.00  0.00    +0.117 A 
ATOM      4  N   UNL     1       0.781  -8.440   0.617  0.00  0.00    -0.305 N 
ATOM      5  C   UNL     1       1.454  -9.616   0.448  0.00  0.00    +0.112 A 
ATOM      6  C   UNL     1       0.786 -10.756   0.169  0.00  0.00    +0.058 A 
ATOM      7  C   UNL     1      -0.614 -10.746   0.050  0.00  0.00    +0.025 A 
ATOM      8  C   UNL     1      -1.296  -9.581   0.217  0.00  0.00    +0.048 A 
ATOM      9  C   UNL     1      -0.585  -8.399   0.507  0.00  0.00    +0.138 A 
ATOM     10  N   UNL     1      -0.977  -7.151   0.721  0.00  0.00    -0.231 NA
ATOM     11 CL   UNL     1       1.661 -12.240  -0.045  0.00  0.00    -0.082 Cl
ENDBRANCH   1   2
BRANCH   1  12
ATOM     12  N   UNL     1       0.059  -4.169  -0.023  0.00  0.00    -0.338 N 
ATOM     13  H   UNL     1       0.062  -4.648  -0.867  0.00  0.00    +0.146 HD
BRANCH  12  18
ATOM     14  C   UNL     1      -0.018   1.503   0.010  0.00  0.00    +0.047 C 
ATOM     15  C   UNL     1       0.002  -0.004   0.002  0.00  0.00    -0.015 A 
ATOM     16  C   UNL     1       0.006  -0.688  -1.200  0.00  0.00    +0.008 A 
ATOM     17  C   UNL     1       0.025  -2.068  -1.211  0.00  0.00    +0.023 A 
ATOM     18  C   UNL     1       0.041  -2.772  -0.014  0.00  0.00    +0.030 A 
ATOM     19  C   UNL     1       0.037  -2.085   1.193  0.00  0.00    +0.061 A 
ATOM     20  C   UNL     1       0.023  -0.702   1.198  0.00  0.00    +0.128 A 
ATOM     21  F   UNL     1       0.024  -0.031   2.371  0.00  0.00    -0.205 F 
ENDBRANCH  12  18
ENDBRANCH   1  12
TORSDOF 3
