REMARK  Name = ZINC22960740
REMARK  6 active torsions:
REMARK  status: ('A' for Active; 'I' for Inactive)
REMARK    1  A    between atoms: C_1  and  C_2
REMARK    2  A    between atoms: C_7  and  C_10
REMARK    3  A    between atoms: C_11  and  C_13
REMARK    4  A    between atoms: C_18  and  N_19
REMARK    5  A    between atoms: N_19  and  S_20
REMARK    6  A    between atoms: S_20  and  C_23
REMARK                            x       y       z     vdW  Elec       q    Type
REMARK                         _______ _______ _______ _____ _____    ______ ____
ROOT
ATOM      1  C   UNL     1      -4.082  -0.168   3.778  0.00  0.00    +0.059 A 
ATOM      2  C   UNL     1      -3.795   1.097   4.296  0.00  0.00    +0.015 A 
ATOM      3  C   UNL     1      -4.474   2.201   3.831  0.00  0.00    +0.001 A 
ATOM      4  C   UNL     1      -5.443   2.065   2.849  0.00  0.00    +0.002 A 
ATOM      5  C   UNL     1      -5.734   0.823   2.322  0.00  0.00    +0.025 A 
ATOM      6  C   UNL     1      -5.064  -0.303   2.784  0.00  0.00    +0.060 A 
ENDROOT
BRANCH   1  15
ATOM      7  C   UNL     1      -4.572  -3.507   6.998  0.00  0.00    +0.039 C 
ATOM      8  C   UNL     1      -3.158  -3.063   7.377  0.00  0.00    +0.133 C 
ATOM      9  C   UNL     1      -2.392  -2.659   6.112  0.00  0.00    +0.139 C 
ATOM     10  N   UNL     1      -3.005  -1.436   5.569  0.00  0.00    -0.293 N 
ATOM     11  C   UNL     1      -3.215  -0.303   6.485  0.00  0.00    +0.139 C 
ATOM     12  C   UNL     1      -3.946  -0.824   7.733  0.00  0.00    +0.133 C 
ATOM     13  O   UNL     1      -3.230  -1.943   8.262  0.00  0.00    -0.371 OA
ATOM     14  C   UNL     1      -4.011   0.285   8.785  0.00  0.00    +0.039 C 
ATOM     15  C   UNL     1      -3.359  -1.354   4.271  0.00  0.00    +0.249 C 
ATOM     16  O   UNL     1      -3.081  -2.259   3.507  0.00  0.00    -0.270 OA
ENDBRANCH   1  15
BRANCH   6  17
ATOM     17  N   UNL     1      -5.359  -1.555   2.260  0.00  0.00    -0.216 N 
ATOM     18  H   UNL     1      -5.280  -2.450   2.894  0.00  0.00    +0.174 HD
BRANCH  17  19
ATOM     19  S   UNL     1      -5.831  -1.700   0.679  0.00  0.00    +0.072 S 
ATOM     20  O   UNL     1      -6.928  -0.815   0.499  0.00  0.00    -0.150 OA
ATOM     21  O   UNL     1      -5.923  -3.092   0.409  0.00  0.00    -0.150 OA
BRANCH  19  22
ATOM     22  C   UNL     1      -4.515  -1.080  -0.316  0.00  0.00    +0.112 A 
ATOM     23  C   UNL     1      -4.483   0.258  -0.662  0.00  0.00    +0.032 A 
ATOM     24  C   UNL     1      -3.456   0.747  -1.447  0.00  0.00    +0.051 A 
ATOM     25  C   UNL     1      -2.450  -0.102  -1.883  0.00  0.00    +0.162 A 
ATOM     26  C   UNL     1      -2.481  -1.447  -1.533  0.00  0.00    +0.164 A 
ATOM     27  C   UNL     1      -3.517  -1.932  -0.749  0.00  0.00    +0.078 A 
ATOM     28  O   UNL     1      -1.503  -2.298  -1.950  0.00  0.00    -0.485 OA
ATOM     29  C   UNL     1      -0.688  -1.856  -3.040  0.00  0.00    +0.270 C 
ATOM     30  C   UNL     1      -0.263  -0.407  -2.766  0.00  0.00    +0.270 C 
ATOM     31  O   UNL     1      -1.445   0.394  -2.655  0.00  0.00    -0.485 OA
ENDBRANCH  19  22
ENDBRANCH  17  19
ENDBRANCH   6  17
TORSDOF 4
