REMARK  Name = ZINC63879093
REMARK  8 active torsions:
REMARK  status: ('A' for Active; 'I' for Inactive)
REMARK    1  A    between atoms: C_1  and  C_2
REMARK    2  A    between atoms: N_8  and  S_9
REMARK    3  A    between atoms: S_9  and  C_12
REMARK    4  A    between atoms: C_15  and  N_18
REMARK    5  A    between atoms: C_19  and  C_21
REMARK    6  A    between atoms: C_21  and  C_22
REMARK    7  A    between atoms: C_22  and  C_23
REMARK    8  A    between atoms: C_23  and  C_24
REMARK                            x       y       z     vdW  Elec       q    Type
REMARK                         _______ _______ _______ _____ _____    ______ ____
ROOT
ATOM      1  C   UNL     1       2.955  -5.271  -1.782  0.00  0.00    +0.113 A 
ATOM      2  C   UNL     1       3.625  -4.928  -2.942  0.00  0.00    +0.031 A 
ATOM      3  C   UNL     1       3.911  -5.895  -3.886  0.00  0.00    +0.025 A 
ATOM      4  C   UNL     1       3.527  -7.211  -3.669  0.00  0.00    +0.033 A 
ATOM      5  C   UNL     1       2.856  -7.552  -2.502  0.00  0.00    +0.025 A 
ATOM      6  C   UNL     1       2.576  -6.582  -1.560  0.00  0.00    +0.031 A 
ENDROOT
BRANCH   4   7
ATOM      7  N   UNL     1       3.816  -8.193  -4.623  0.00  0.00    -0.285 N 
ATOM      8  C   UNL     1       4.943  -8.109  -5.357  0.00  0.00    +0.217 C 
ATOM      9  O   UNL     1       5.754  -7.237  -5.125  0.00  0.00    -0.275 OA
ATOM     10  H   UNL     1       3.204  -8.934  -4.757  0.00  0.00    +0.155 HD
BRANCH   8  11
ATOM     11  C   UNL     1       5.196  -9.098  -6.466  0.00  0.00    +0.096 C 
BRANCH  11  12
ATOM     12  C   UNL     1       6.536  -8.782  -7.135  0.00  0.00    +0.014 C 
BRANCH  12  13
ATOM     13  C   UNL     1       6.793  -9.786  -8.260  0.00  0.00    +0.033 C 
BRANCH  13  14
ATOM     14  C   UNL     1       8.112  -9.475  -8.919  0.00  0.00    -0.042 C 
ATOM     15  C   UNL     1       9.312 -10.034  -8.642  0.00  0.00    -0.001 A 
ATOM     16  C   UNL     1       9.731 -11.061  -7.680  0.00  0.00    +0.010 A 
ATOM     17  C   UNL     1      11.034 -11.423  -7.634  0.00  0.00    +0.001 A 
ATOM     18  C   UNL     1      11.990 -10.844  -8.479  0.00  0.00    +0.002 A 
ATOM     19  C   UNL     1      11.681  -9.895  -9.388  0.00  0.00    +0.026 A 
ATOM     20  C   UNL     1      10.341  -9.439  -9.524  0.00  0.00    +0.043 A 
ATOM     21  N   UNL     1       9.799  -8.546 -10.315  0.00  0.00    -0.380 N 
ATOM     22  C   UNL     1       8.361  -8.478 -10.029  0.00  0.00    +0.144 C 
ATOM     23  H   UNL     1      10.268  -8.020 -10.982  0.00  0.00    +0.160 HD
ENDBRANCH  13  14
ENDBRANCH  12  13
ENDBRANCH  11  12
ENDBRANCH   8  11
ENDBRANCH   4   7
BRANCH   1  24
ATOM     24  S   UNL     1       2.592  -4.035  -0.580  0.00  0.00    +0.100 S 
ATOM     25  O   UNL     1       1.483  -4.511   0.170  0.00  0.00    -0.146 OA
ATOM     26  O   UNL     1       2.567  -2.792  -1.269  0.00  0.00    -0.146 OA
BRANCH  24  33
ATOM     27  C   UNL     1       5.005  -1.320   4.431  0.00  0.00    +0.041 C 
ATOM     28  C   UNL     1       4.737  -1.481   2.933  0.00  0.00    +0.153 C 
ATOM     29  C   UNL     1       4.954  -2.948   2.497  0.00  0.00    +0.111 C 
ATOM     30  C   UNL     1       3.868  -3.138   1.452  0.00  0.00    +0.151 C 
ATOM     31  N   UNL     1       2.875  -2.246   1.770  0.00  0.00    -0.250 N 
ATOM     32  O   UNL     1       3.353  -1.235   2.638  0.00  0.00    -0.269 OA
ATOM     33  N   UNL     1       3.877  -3.972   0.463  0.00  0.00    -0.114 NA
ATOM     34  H   UNL     1       1.964  -2.300   1.440  0.00  0.00    +0.196 HD
ENDBRANCH  24  33
ENDBRANCH   1  24
TORSDOF 7
