REMARK  Name = ZINC00993554
REMARK  5 active torsions:
REMARK  status: ('A' for Active; 'I' for Inactive)
REMARK    1  A    between atoms: C_1  and  O_2
REMARK    2  A    between atoms: O_2  and  C_3
REMARK    3  A    between atoms: C_6  and  C_9
REMARK    4  A    between atoms: C_24  and  C_26
REMARK    5  A    between atoms: C_29  and  N_32
REMARK                            x       y       z     vdW  Elec       q    Type
REMARK                         _______ _______ _______ _____ _____    ______ ____
ROOT
ATOM      1  C   UNL     1       2.123   2.546   0.793  0.00  0.00    +0.247 C 
ATOM      2  O   UNL     1       3.312   2.706   0.599  0.00  0.00    -0.270 OA
ATOM      3  N   UNL     1       1.278   2.440  -0.252  0.00  0.00    -0.285 N 
ATOM      4  C   UNL     1       1.786   2.390  -1.631  0.00  0.00    +0.114 C 
ATOM      5  C   UNL     1       1.300   3.632  -2.386  0.00  0.00    +0.056 C 
ATOM      6  C   UNL     1      -0.163   3.845  -2.090  0.00  0.00    -0.015 A 
ATOM      7  C   UNL     1      -1.119   4.651  -2.822  0.00  0.00    +0.003 A 
ATOM      8  C   UNL     1      -1.009   5.443  -3.969  0.00  0.00    +0.010 A 
ATOM      9  C   UNL     1      -2.148   6.082  -4.393  0.00  0.00    +0.001 A 
ATOM     10  C   UNL     1      -3.355   5.955  -3.725  0.00  0.00    +0.002 A 
ATOM     11  C   UNL     1      -3.492   5.178  -2.588  0.00  0.00    +0.026 A 
ATOM     12  C   UNL     1      -2.352   4.518  -2.135  0.00  0.00    +0.047 A 
ATOM     13  N   UNL     1      -2.137   3.690  -1.070  0.00  0.00    -0.356 N 
ATOM     14  H   UNL     1      -2.964   3.444  -0.389  0.00  0.00    +0.166 HD
ATOM     15  C   UNL     1      -0.827   3.292  -1.052  0.00  0.00    +0.046 A 
ATOM     16  C   UNL     1      -0.178   2.372  -0.042  0.00  0.00    +0.153 C 
ENDROOT
BRANCH   1  20
ATOM     17  C   UNL     1       0.630   2.318   4.762  0.00  0.00    +0.120 A 
ATOM     18  C   UNL     1       1.809   3.008   4.503  0.00  0.00    +0.046 A 
ATOM     19  C   UNL     1       2.296   3.084   3.218  0.00  0.00    +0.016 A 
ATOM     20  C   UNL     1       1.604   2.467   2.173  0.00  0.00    +0.037 A 
ATOM     21  C   UNL     1       0.417   1.779   2.436  0.00  0.00    +0.016 A 
ATOM     22  C   UNL     1      -0.061   1.703   3.725  0.00  0.00    +0.046 A 
BRANCH  17  24
ATOM     23  C   UNL     1      -1.062   1.521   6.226  0.00  0.00    +0.277 C 
ATOM     24  O   UNL     1       0.153   2.245   6.031  0.00  0.00    -0.495 OA
ENDBRANCH  17  24
ENDBRANCH   1  20
BRANCH  16  25
ATOM     25  C   UNL     1      -0.660   0.960  -0.252  0.00  0.00    -0.021 A 
ATOM     26  C   UNL     1      -1.376   0.318   0.742  0.00  0.00    +0.008 A 
ATOM     27  C   UNL     1      -1.822  -0.976   0.546  0.00  0.00    +0.033 A 
ATOM     28  C   UNL     1      -1.544  -1.631  -0.638  0.00  0.00    +0.126 A 
ATOM     29  C   UNL     1      -0.824  -0.992  -1.630  0.00  0.00    +0.033 A 
ATOM     30  C   UNL     1      -0.383   0.304  -1.437  0.00  0.00    +0.008 A 
BRANCH  28  31
ATOM     31  N   UNL     1      -2.017  -3.019  -0.845  0.00  0.00    +0.056 N 
ATOM     32  O   UNL     1      -1.772  -3.596  -1.889  0.00  0.00    -0.126 OA
ATOM     33  O   UNL     1      -2.651  -3.582   0.029  0.00  0.00    -0.126 OA
ENDBRANCH  28  31
ENDBRANCH  16  25
TORSDOF 4
