REMARK  Name = ZINC00628533
REMARK  10 active torsions:
REMARK  status: ('A' for Active; 'I' for Inactive)
REMARK    1  A    between atoms: C_1  and  C_2
REMARK    2  A    between atoms: C_3  and  C_25
REMARK    3  A    between atoms: C_4  and  C_13
REMARK    4  A    between atoms: C_5  and  C_9
REMARK    5  A    between atoms: C_6  and  C_8
REMARK    6  A    between atoms: C_9  and  O_11
REMARK    7  A    between atoms: O_11  and  C_12
REMARK    8  A    between atoms: C_16  and  C_18
REMARK    9  A    between atoms: C_25  and  O_27
REMARK   10  A    between atoms: O_27  and  C_28
REMARK                            x       y       z     vdW  Elec       q    Type
REMARK                         _______ _______ _______ _____ _____    ______ ____
ROOT
ATOM      1  C   UNL     1      -4.552  -3.257  -0.738  0.00  0.00    +0.061 C 
ATOM      2  C   UNL     1      -3.454  -2.300  -0.351  0.00  0.00    +0.016 C 
ATOM      3  C   UNL     1      -3.683  -0.976  -0.387  0.00  0.00    +0.068 C 
ATOM      4  C   UNL     1      -2.621   0.014  -0.001  0.00  0.00    +0.132 C 
ATOM      5  C   UNL     1      -1.268  -0.639   0.018  0.00  0.00    +0.068 C 
ATOM      6  C   UNL     1      -1.135  -1.976   0.032  0.00  0.00    +0.016 C 
ATOM      7  N   UNL     1      -2.235  -2.790   0.032  0.00  0.00    -0.321 N 
ATOM      8  C   UNL     1       0.243  -2.587   0.054  0.00  0.00    +0.061 C 
ATOM      9  H   UNL     1      -2.137  -3.841   0.341  0.00  0.00    +0.152 HD
ENDROOT
BRANCH   4  10
ATOM     10  C   UNL     1      -2.612   1.144  -0.998  0.00  0.00    +0.118 A 
ATOM     11  C   UNL     1      -2.857   2.439  -0.719  0.00  0.00    +0.046 A 
ATOM     12  C   UNL     1      -2.744   3.151  -1.930  0.00  0.00    +0.050 A 
ATOM     13  C   UNL     1      -2.441   2.240  -2.893  0.00  0.00    +0.135 A 
ATOM     14  O   UNL     1      -2.364   1.027  -2.313  0.00  0.00    -0.459 OA
BRANCH  13  15
ATOM     15  C   UNL     1      -2.233   2.531  -4.326  0.00  0.00    +0.017 A 
ATOM     16  C   UNL     1      -2.348   3.839  -4.800  0.00  0.00    +0.012 A 
ATOM     17  C   UNL     1      -2.146   4.105  -6.139  0.00  0.00    +0.016 A 
ATOM     18  C   UNL     1      -1.841   3.076  -7.013  0.00  0.00    +0.018 A 
ATOM     19  C   UNL     1      -1.732   1.776  -6.551  0.00  0.00    +0.016 A 
ATOM     20  C   UNL     1      -1.925   1.498  -5.213  0.00  0.00    +0.012 A 
ATOM     21 BR   UNL     1      -1.575   3.448  -8.848  0.00  0.00    -0.050 Br
ENDBRANCH  13  15
ENDBRANCH   4  10
BRANCH   5  22
ATOM     22  C   UNL     1      -0.109   0.171   0.017  0.00  0.00    +0.337 C 
ATOM     23  O   UNL     1       0.240   0.737   1.036  0.00  0.00    -0.245 OA
BRANCH  22  24
ATOM     24  O   UNL     1       0.611   0.318  -1.116  0.00  0.00    -0.465 OA
ATOM     25  C   UNL     1       1.770   1.151  -1.045  0.00  0.00    +0.280 C 
ENDBRANCH  22  24
ENDBRANCH   5  22
BRANCH   3  26
ATOM     26  C   UNL     1      -4.952  -0.505  -0.795  0.00  0.00    +0.337 C 
ATOM     27  O   UNL     1      -5.840  -1.295  -1.056  0.00  0.00    -0.245 OA
BRANCH  26  28
ATOM     28  O   UNL     1      -5.179   0.822  -0.896  0.00  0.00    -0.465 OA
ATOM     29  C   UNL     1      -6.484   1.227  -1.315  0.00  0.00    +0.280 C 
ENDBRANCH  26  28
ENDBRANCH   3  26
TORSDOF 6
