REMARK  Name = ZINC39729162
REMARK  10 active torsions:
REMARK  status: ('A' for Active; 'I' for Inactive)
REMARK    1  A    between atoms: C_1  and  C_2
REMARK    2  A    between atoms: C_2  and  O_3
REMARK    3  A    between atoms: O_3  and  C_4
REMARK    4  A    between atoms: C_4  and  C_6
REMARK    5  A    between atoms: C_10  and  N_11
REMARK    6  A    between atoms: C_12  and  C_14
REMARK    7  A    between atoms: C_14  and  O_15
REMARK    8  A    between atoms: O_15  and  N_16
REMARK    9  A    between atoms: N_26  and  C_31
REMARK   10  A    between atoms: N_29  and  C_30
REMARK                            x       y       z     vdW  Elec       q    Type
REMARK                         _______ _______ _______ _____ _____    ______ ____
ROOT
ATOM      1  N   UNL     1      -0.604  -2.455  -3.925  0.00  0.00    -0.276 N 
ATOM      2  C   UNL     1      -1.119  -2.783  -5.126  0.00  0.00    +0.258 C 
ATOM      3  O   UNL     1      -0.397  -3.225  -5.995  0.00  0.00    -0.272 OA
ATOM      4  H   UNL     1      -1.181  -2.102  -3.230  0.00  0.00    +0.155 HD
ENDROOT
BRANCH   1   9
ATOM      5  C   UNL     1       1.449  -2.344  -2.516  0.00  0.00    +0.091 A 
ATOM      6  C   UNL     1       2.876  -2.619  -2.515  0.00  0.00    -0.021 A 
ATOM      7  C   UNL     1       3.343  -3.117  -3.680  0.00  0.00    -0.004 A 
ATOM      8  S   UNL     1       1.922  -3.212  -4.730  0.00  0.00    -0.077 S 
ATOM      9  C   UNL     1       0.750  -2.624  -3.681  0.00  0.00    +0.086 A 
ATOM     10  C   UNL     1       4.757  -3.498  -3.993  0.00  0.00    +0.043 C 
ATOM     11  C   UNL     1       5.669  -2.887  -2.920  0.00  0.00    +0.005 C 
ATOM     12  C   UNL     1       5.082  -3.191  -1.538  0.00  0.00    +0.005 C 
ATOM     13  C   UNL     1       3.799  -2.383  -1.329  0.00  0.00    +0.037 C 
BRANCH   5  14
ATOM     14  C   UNL     1       0.776  -1.800  -1.335  0.00  0.00    +0.342 C 
ATOM     15  O   UNL     1       0.312  -2.552  -0.499  0.00  0.00    -0.245 OA
BRANCH  14  16
ATOM     16  O   UNL     1       0.671  -0.465  -1.174  0.00  0.00    -0.461 OA
BRANCH  16  18
ATOM     17  C   UNL     1      -0.019   1.526   0.010  0.00  0.00    +0.048 C 
ATOM     18  C   UNL     1       0.002  -0.004   0.002  0.00  0.00    +0.229 C 
ENDBRANCH  16  18
ENDBRANCH  14  16
ENDBRANCH   5  14
ENDBRANCH   1   9
BRANCH   2  19
ATOM     19  C   UNL     1      -2.591  -2.599  -5.391  0.00  0.00    +0.358 C 
BRANCH  19  20
ATOM     20  O   UNL     1      -2.890  -3.014  -6.725  0.00  0.00    -0.384 OA
BRANCH  20  21
ATOM     21  N   UNL     1      -4.255  -2.881  -7.077  0.00  0.00    -0.088 NA
ATOM     22  C   UNL     1      -4.657  -3.225  -8.264  0.00  0.00    +0.101 C 
ATOM     23  C   UNL     1      -3.763  -3.746  -9.245  0.00  0.00    +0.047 C 
ATOM     24  C   UNL     1      -4.228  -4.155 -10.441  0.00  0.00    +0.114 C 
ATOM     25  N   UNL     1      -5.521  -4.173 -10.789  0.00  0.00    -0.243 NA
ATOM     26  C   UNL     1      -6.470  -3.755 -10.009  0.00  0.00    +0.123 C 
ATOM     27  C   UNL     1      -6.105  -3.103  -8.690  0.00  0.00    +0.191 C 
ATOM     28  C   UNL     1      -6.977  -3.755  -7.652  0.00  0.00    +0.239 C 
ATOM     29  O   UNL     1      -6.580  -3.889  -6.514  0.00  0.00    -0.274 OA
ATOM     30  N   UNL     1      -8.205  -4.189  -8.001  0.00  0.00    -0.228 N 
ATOM     31  C   UNL     1      -8.642  -4.158  -9.271  0.00  0.00    +0.316 C 
ATOM     32  O   UNL     1      -9.819  -4.356  -9.500  0.00  0.00    -0.252 OA
ATOM     33  N   UNL     1      -7.800  -3.900 -10.302  0.00  0.00    -0.245 N 
ATOM     34  C   UNL     1      -8.289  -3.797 -11.679  0.00  0.00    +0.141 C 
ATOM     35  C   UNL     1      -9.093  -4.713  -6.960  0.00  0.00    +0.143 C 
ENDBRANCH  20  21
ENDBRANCH  19  20
ENDBRANCH   2  19
TORSDOF 7
