REMARK  Name = ZINC51168794
REMARK  8 active torsions:
REMARK  status: ('A' for Active; 'I' for Inactive)
REMARK    1  A    between atoms: C_1  and  C_2
REMARK    2  A    between atoms: C_2  and  C_3
REMARK    3  A    between atoms: C_5  and  N_19
REMARK    4  A    between atoms: C_7  and  C_9
REMARK    5  A    between atoms: C_11  and  O_17
REMARK    6  A    between atoms: C_12  and  O_16
REMARK    7  A    between atoms: O_17  and  C_18
REMARK    8  A    between atoms: N_19  and  N_20
REMARK                            x       y       z     vdW  Elec       q    Type
REMARK                         _______ _______ _______ _____ _____    ______ ____
ROOT
ATOM      1  C   UNL     1       0.707  -0.490  -1.238  0.00  0.00    +0.047 A 
ATOM      2  C   UNL     1       1.778  -1.359  -1.137  0.00  0.00    +0.068 A 
ATOM      3  C   UNL     1       2.403  -1.785  -2.312  0.00  0.00    +0.136 A 
ATOM      4  N   UNL     1       1.950  -1.344  -3.480  0.00  0.00    -0.212 NA
ATOM      5  C   UNL     1       0.920  -0.511  -3.534  0.00  0.00    +0.162 A 
ATOM      6  N   UNL     1       0.305  -0.094  -2.435  0.00  0.00    -0.232 NA
ENDROOT
BRANCH   5   7
ATOM      7  C   UNL     1       0.441  -0.038  -4.854  0.00  0.00    +0.024 A 
ATOM      8  C   UNL     1       1.068  -0.474  -6.022  0.00  0.00    +0.061 A 
ATOM      9  C   UNL     1       0.618  -0.031  -7.252  0.00  0.00    +0.163 A 
ATOM     10  C   UNL     1      -0.460   0.848  -7.324  0.00  0.00    +0.173 A 
ATOM     11  C   UNL     1      -1.083   1.281  -6.162  0.00  0.00    +0.064 A 
ATOM     12  C   UNL     1      -0.641   0.838  -4.932  0.00  0.00    +0.030 A 
ATOM     13 BR   UNL     1      -2.546   2.475  -6.264  0.00  0.00    -0.046 Br
BRANCH  10  14
ATOM     14  O   UNL     1      -0.901   1.284  -8.533  0.00  0.00    -0.503 OA
ATOM     15  H   UNL     1      -1.585   0.724  -8.927  0.00  0.00    +0.292 HD
ENDBRANCH  10  14
BRANCH   9  16
ATOM     16  O   UNL     1       1.228  -0.454  -8.391  0.00  0.00    -0.491 OA
ATOM     17  C   UNL     1       2.328  -1.355  -8.243  0.00  0.00    +0.277 C 
ENDBRANCH   9  16
ENDBRANCH   5   7
BRANCH   1  19
ATOM     18  C   UNL     1      -0.019   1.526   0.010  0.00  0.00    +0.010 C 
ATOM     19  C   UNL     1       0.002  -0.004   0.002  0.00  0.00    +0.052 C 
ENDBRANCH   1  19
BRANCH   3  20
ATOM     20  N   UNL     1       3.480  -2.655  -2.258  0.00  0.00    -0.267 N 
ATOM     21  H   UNL     1       3.805  -2.972  -1.401  0.00  0.00    +0.167 HD
BRANCH  20  22
ATOM     22  N   UNL     1       4.084  -3.066  -3.412  0.00  0.00    -0.255 NA
ATOM     23  H   UNL     1       4.849  -3.694  -3.217  0.00  0.00    +0.140 HD
ATOM     24  H   UNL     1       3.417  -3.492  -4.038  0.00  0.00    +0.140 HD
ENDBRANCH  20  22
ENDBRANCH   3  20
TORSDOF 6
