REMARK  Name = ZINC16202051
REMARK  6 active torsions:
REMARK  status: ('A' for Active; 'I' for Inactive)
REMARK    1  A    between atoms: C_1  and  N_2
REMARK    2  A    between atoms: N_2  and  C_3
REMARK    3  A    between atoms: C_6  and  N_22
REMARK    4  A    between atoms: C_8  and  C_9
REMARK    5  A    between atoms: N_11  and  N_12
REMARK    6  A    between atoms: C_13  and  C_15
REMARK                            x       y       z     vdW  Elec       q    Type
REMARK                         _______ _______ _______ _____ _____    ______ ____
ROOT
ATOM      1  C   UNL     1       2.368   1.026   0.005  0.00  0.00    +0.262 C 
ATOM      2  O   UNL     1       2.384  -0.190  -0.013  0.00  0.00    -0.269 OA
ATOM      3  N   UNL     1       1.193   1.685   0.043  0.00  0.00    -0.230 N 
ATOM      4  H   UNL     1       1.180   2.655   0.057  0.00  0.00    +0.173 HD
ENDROOT
BRANCH   1  10
ATOM      5  C   UNL     1       4.861   1.102   0.067  0.00  0.00    +0.039 A 
ATOM      6  C   UNL     1       6.048   1.824   0.049  0.00  0.00    +0.026 A 
ATOM      7  C   UNL     1       6.019   3.200  -0.048  0.00  0.00    +0.034 A 
ATOM      8  C   UNL     1       4.810   3.872  -0.128  0.00  0.00    +0.127 A 
ATOM      9  C   UNL     1       3.623   3.174  -0.117  0.00  0.00    +0.047 A 
ATOM     10  C   UNL     1       3.635   1.780  -0.013  0.00  0.00    +0.061 A 
BRANCH   5  12
ATOM     11  C   UNL     1       6.161  -0.978   0.370  0.00  0.00    +0.125 C 
ATOM     12  N   UNL     1       4.888  -0.283   0.165  0.00  0.00    -0.346 N 
ATOM     13  H   UNL     1       4.064  -0.790   0.098  0.00  0.00    +0.146 HD
ENDBRANCH   5  12
BRANCH   8  14
ATOM     14  N   UNL     1       4.794   5.349  -0.231  0.00  0.00    +0.056 N 
ATOM     15  O   UNL     1       5.842   5.970  -0.246  0.00  0.00    -0.126 OA
ATOM     16  O   UNL     1       3.733   5.943  -0.301  0.00  0.00    -0.126 OA
ENDBRANCH   8  14
ENDBRANCH   1  10
BRANCH   3  17
ATOM     17  N   UNL     1      -0.011   0.969   0.060  0.00  0.00    -0.230 N 
ATOM     18  C   UNL     1      -1.187   1.627   0.092  0.00  0.00    +0.260 C 
ATOM     19  O   UNL     1      -1.202   2.842   0.110  0.00  0.00    -0.269 OA
ATOM     20  H   UNL     1       0.001  -0.001   0.045  0.00  0.00    +0.173 HD
BRANCH  18  21
ATOM     21  C   UNL     1      -2.457   0.872   0.104  0.00  0.00    +0.038 A 
ATOM     22  C   UNL     1      -2.442  -0.524   0.077  0.00  0.00    +0.014 A 
ATOM     23  C   UNL     1      -3.631  -1.224   0.095  0.00  0.00    +0.016 A 
ATOM     24  C   UNL     1      -4.837  -0.544   0.127  0.00  0.00    +0.018 A 
ATOM     25  C   UNL     1      -4.858   0.840   0.148  0.00  0.00    +0.016 A 
ATOM     26  C   UNL     1      -3.676   1.551   0.137  0.00  0.00    +0.014 A 
ATOM     27 BR   UNL     1      -6.462  -1.511   0.143  0.00  0.00    -0.050 Br
ENDBRANCH  18  21
ENDBRANCH   3  17
TORSDOF 5
