REMARK  Name = ZINC46581199
REMARK  9 active torsions:
REMARK  status: ('A' for Active; 'I' for Inactive)
REMARK    1  A    between atoms: C_1  and  C_2
REMARK    2  A    between atoms: C_3  and  C_31
REMARK    3  A    between atoms: C_7  and  N_30
REMARK    4  A    between atoms: C_9  and  S_11
REMARK    5  A    between atoms: S_11  and  C_12
REMARK    6  A    between atoms: C_12  and  C_14
REMARK    7  A    between atoms: C_12  and  C_15
REMARK    8  A    between atoms: N_17  and  C_18
REMARK    9  A    between atoms: C_23  and  C_24
REMARK                            x       y       z     vdW  Elec       q    Type
REMARK                         _______ _______ _______ _____ _____    ______ ____
ROOT
ATOM      1  C   UNL     1       2.113  -2.639   5.231  0.00  0.00    +0.137 C 
ATOM      2  C   UNL     1       3.186  -1.970   4.370  0.00  0.00    +0.029 C 
ENDROOT
BRANCH   1   3
ATOM      3  C   UNL     1       2.774  -3.488   6.286  0.00  0.00    +0.230 C 
ATOM      4  O   UNL     1       2.945  -4.673   6.092  0.00  0.00    -0.274 OA
ATOM      5  N   UNL     1       3.175  -2.931   7.446  0.00  0.00    -0.284 N 
ATOM      6  H   UNL     1       2.977  -1.999   7.631  0.00  0.00    +0.155 HD
BRANCH   5   7
ATOM      7  C   UNL     1       3.876  -3.695   8.383  0.00  0.00    +0.041 A 
ATOM      8  C   UNL     1       3.776  -5.079   8.367  0.00  0.00    +0.024 A 
ATOM      9  C   UNL     1       4.470  -5.832   9.294  0.00  0.00    +0.002 A 
ATOM     10  C   UNL     1       5.266  -5.214  10.243  0.00  0.00    +0.001 A 
ATOM     11  C   UNL     1       5.375  -3.839  10.270  0.00  0.00    +0.010 A 
ATOM     12  C   UNL     1       4.685  -3.068   9.337  0.00  0.00    +0.003 A 
BRANCH  12  13
ATOM     13  C   UNL     1       4.803  -1.590   9.359  0.00  0.00    -0.016 A 
ATOM     14  C   UNL     1       5.089  -0.894   8.186  0.00  0.00    +0.008 A 
ATOM     15  C   UNL     1       5.197   0.482   8.211  0.00  0.00    +0.001 A 
ATOM     16  C   UNL     1       5.022   1.170   9.399  0.00  0.00    +0.000 A 
ATOM     17  C   UNL     1       4.738   0.484  10.566  0.00  0.00    +0.001 A 
ATOM     18  C   UNL     1       4.622  -0.891  10.551  0.00  0.00    +0.008 A 
ENDBRANCH  12  13
ENDBRANCH   5   7
ENDBRANCH   1   3
BRANCH   1  19
ATOM     19  S   UNL     1       1.062  -3.683   4.186  0.00  0.00    -0.073 S 
BRANCH  19  28
ATOM     20  C   UNL     1      -1.586   1.528   0.461  0.00  0.00    +0.045 C 
ATOM     21  C   UNL     1      -1.736   0.029   0.500  0.00  0.00    -0.028 A 
ATOM     22  C   UNL     1      -2.560  -0.593  -0.355  0.00  0.00    -0.008 A 
ATOM     23  S   UNL     1      -2.391  -2.313   0.080  0.00  0.00    -0.073 S 
ATOM     24  C   UNL     1      -1.217  -2.151   1.398  0.00  0.00    +0.115 A 
ATOM     25  C   UNL     1      -0.984  -0.760   1.462  0.00  0.00    +0.050 A 
ATOM     26  C   UNL     1      -0.056  -0.339   2.454  0.00  0.00    +0.129 A 
ATOM     27  N   UNL     1       0.517  -1.243   3.230  0.00  0.00    -0.207 NA
ATOM     28  C   UNL     1       0.256  -2.540   3.114  0.00  0.00    +0.192 A 
ATOM     29  N   UNL     1      -0.607  -2.990   2.213  0.00  0.00    -0.214 NA
ATOM     30  C   UNL     1      -3.425   0.018  -1.428  0.00  0.00    +0.052 C 
BRANCH  26  31
ATOM     31  N   UNL     1       0.243   1.003   2.606  0.00  0.00    -0.343 N 
ATOM     32  H   UNL     1       0.124   1.613   1.862  0.00  0.00    +0.144 HD
ATOM     33  H   UNL     1       0.572   1.333   3.457  0.00  0.00    +0.144 HD
ENDBRANCH  26  31
ENDBRANCH  19  28
ENDBRANCH   1  19
TORSDOF 6
