REMARK  Name = ZINC61984082
REMARK  10 active torsions:
REMARK  status: ('A' for Active; 'I' for Inactive)
REMARK    1  A    between atoms: C_1  and  C_2
REMARK    2  A    between atoms: C_2  and  C_4
REMARK    3  A    between atoms: C_2  and  C_17
REMARK    4  A    between atoms: C_4  and  N_5
REMARK    5  A    between atoms: C_10  and  C_12
REMARK    6  A    between atoms: N_19  and  C_20
REMARK    7  A    between atoms: C_20  and  C_21
REMARK    8  A    between atoms: C_21  and  C_22
REMARK    9  A    between atoms: C_25  and  S_28
REMARK   10  A    between atoms: S_28  and  N_31
REMARK                            x       y       z     vdW  Elec       q    Type
REMARK                         _______ _______ _______ _____ _____    ______ ____
ROOT
ATOM      1  C   UNL     1       0.707  -0.490  -1.238  0.00  0.00    +0.218 C 
ATOM      2  O   UNL     1       1.704  -1.174  -1.140  0.00  0.00    -0.275 OA
ATOM      3  N   UNL     1       0.231  -0.164  -2.456  0.00  0.00    -0.315 N 
ATOM      4  H   UNL     1      -0.566   0.383  -2.534  0.00  0.00    +0.149 HD
ENDROOT
BRANCH   1   6
ATOM      5  C   UNL     1      -0.019   1.526   0.010  0.00  0.00    +0.019 C 
ATOM      6  C   UNL     1       0.002  -0.004   0.002  0.00  0.00    +0.093 C 
BRANCH   6   7
ATOM      7  C   UNL     1       0.742  -0.511   1.242  0.00  0.00    +0.160 C 
BRANCH   7   8
ATOM      8  N   UNL     1      -0.008  -0.140   2.444  0.00  0.00    -0.228 N 
ATOM      9  C   UNL     1      -0.935  -0.990   2.925  0.00  0.00    +0.267 A 
ATOM     10  O   UNL     1      -1.143  -2.054   2.365  0.00  0.00    -0.266 OA
ATOM     11  C   UNL     1      -1.664  -0.642   4.084  0.00  0.00    +0.074 A 
ATOM     12  C   UNL     1      -1.394   0.557   4.673  0.00  0.00    +0.038 A 
ATOM     13  C   UNL     1      -0.400   1.381   4.090  0.00  0.00    +0.126 A 
ATOM     14  N   UNL     1       0.239   0.984   3.013  0.00  0.00    -0.165 NA
BRANCH  13  15
ATOM     15  C   UNL     1      -0.078   2.688   4.698  0.00  0.00    +0.155 A 
ATOM     16  C   UNL     1       0.846   3.576   4.240  0.00  0.00    +0.051 A 
ATOM     17  C   UNL     1       0.821   4.677   5.118  0.00  0.00    +0.042 A 
ATOM     18  C   UNL     1      -0.106   4.411   6.059  0.00  0.00    +0.196 A 
ATOM     19  O   UNL     1      -0.651   3.211   5.799  0.00  0.00    -0.461 OA
ENDBRANCH  13  15
ENDBRANCH   7   8
ENDBRANCH   6   7
ENDBRANCH   1   6
BRANCH   3  20
ATOM     20  C   UNL     1       0.917  -0.637  -3.661  0.00  0.00    +0.109 C 
BRANCH  20  21
ATOM     21  C   UNL     1       0.177  -0.130  -4.901  0.00  0.00    +0.054 C 
BRANCH  21  22
ATOM     22  C   UNL     1       0.882  -0.616  -6.141  0.00  0.00    -0.046 A 
ATOM     23  C   UNL     1       1.887   0.145  -6.707  0.00  0.00    +0.005 A 
ATOM     24  C   UNL     1       2.534  -0.300  -7.844  0.00  0.00    +0.029 A 
ATOM     25  C   UNL     1       2.176  -1.508  -8.415  0.00  0.00    +0.105 A 
ATOM     26  C   UNL     1       1.172  -2.269  -7.848  0.00  0.00    +0.029 A 
ATOM     27  C   UNL     1       0.528  -1.825  -6.708  0.00  0.00    +0.005 A 
BRANCH  25  28
ATOM     28  S   UNL     1       3.000  -2.075  -9.865  0.00  0.00    +0.056 S 
ATOM     29  O   UNL     1       2.109  -2.972 -10.514  0.00  0.00    -0.153 OA
ATOM     30  O   UNL     1       3.526  -0.924 -10.511  0.00  0.00    -0.153 OA
BRANCH  28  31
ATOM     31  N   UNL     1       4.300  -2.975  -9.370  0.00  0.00    -0.204 NA
ATOM     32  H   UNL     1       4.621  -3.707  -9.920  0.00  0.00    +0.144 HD
ATOM     33  H   UNL     1       4.739  -2.770  -8.530  0.00  0.00    +0.144 HD
ENDBRANCH  28  31
ENDBRANCH  25  28
ENDBRANCH  21  22
ENDBRANCH  20  21
ENDBRANCH   3  20
TORSDOF 9
