REMARK  Name = ZINC22756510
REMARK  8 active torsions:
REMARK  status: ('A' for Active; 'I' for Inactive)
REMARK    1  A    between atoms: C_1  and  C_2
REMARK    2  A    between atoms: N_11  and  C_15
REMARK    3  A    between atoms: C_15  and  N_16
REMARK    4  A    between atoms: N_19  and  C_22
REMARK    5  A    between atoms: C_22  and  C_23
REMARK    6  A    between atoms: C_26  and  C_28
REMARK    7  A    between atoms: C_31  and  O_34
REMARK    8  A    between atoms: O_34  and  C_35
REMARK                            x       y       z     vdW  Elec       q    Type
REMARK                         _______ _______ _______ _____ _____    ______ ____
ROOT
ATOM      1  N   UNL     1       1.361   2.032   0.000  0.00  0.00    -0.290 NA
ATOM      2  C   UNL     1      -0.019   1.526   0.010  0.00  0.00    +0.067 C 
ATOM      3  C   UNL     1       0.002  -0.004   0.002  0.00  0.00    -0.063 C 
ATOM      4  N   UNL     1       0.746  -0.488   1.173  0.00  0.00    +0.385 N 
ATOM      5  C   UNL     1       2.126   0.018   1.163  0.00  0.00    -0.063 C 
ATOM      6  C   UNL     1       2.105   1.549   1.171  0.00  0.00    +0.067 C 
ATOM      7  H   UNL     1       0.249  -0.101   2.075  0.00  0.00    -0.081 HD
ENDROOT
BRANCH   1   8
ATOM      8  C   UNL     1       1.383   3.500  -0.069  0.00  0.00    +0.204 C 
BRANCH   8  18
ATOM      9  C   UNL     1       3.478   7.098   1.454  0.00  0.00    +0.010 C 
ATOM     10  C   UNL     1       4.290   6.218   2.406  0.00  0.00    +0.018 C 
ATOM     11  C   UNL     1       3.704   6.316   3.817  0.00  0.00    +0.006 C 
ATOM     12  C   UNL     1       4.505   5.420   4.764  0.00  0.00    +0.000 C 
ATOM     13  C   UNL     1       4.421   3.969   4.287  0.00  0.00    +0.003 C 
ATOM     14  C   UNL     1       5.011   3.861   2.878  0.00  0.00    +0.035 C 
ATOM     15  C   UNL     1       4.237   4.771   1.930  0.00  0.00    +0.115 C 
ATOM     16  C   UNL     1       2.802   4.313   1.806  0.00  0.00    +0.248 C 
ATOM     17  O   UNL     1       1.975   4.243   2.689  0.00  0.00    -0.273 OA
ATOM     18  N   UNL     1       2.636   3.997   0.504  0.00  0.00    -0.211 N 
ATOM     19  C   UNL     1       3.757   4.198  -0.199  0.00  0.00    +0.310 C 
ATOM     20  O   UNL     1       3.854   3.989  -1.392  0.00  0.00    -0.252 OA
ATOM     21  N   UNL     1       4.766   4.660   0.565  0.00  0.00    -0.285 N 
ATOM     22  H   UNL     1       5.810   4.936   0.355  0.00  0.00    +0.151 HD
ENDBRANCH   8  18
ENDBRANCH   1   8
BRANCH   4  23
ATOM     23  C   UNL     1       0.724  -1.955   1.242  0.00  0.00    -0.022 C 
BRANCH  23  24
ATOM     24  C   UNL     1       1.690  -2.423   2.300  0.00  0.00    +0.033 A 
ATOM     25  C   UNL     1       1.249  -2.676   3.560  0.00  0.00    +0.068 A 
ATOM     26  S   UNL     1       2.773  -3.182   4.348  0.00  0.00    -0.075 S 
ATOM     27  C   UNL     1       3.830  -2.992   2.919  0.00  0.00    +0.108 A 
ATOM     28  N   UNL     1       2.960  -2.581   2.007  0.00  0.00    -0.246 NA
BRANCH  27  29
ATOM     29  C   UNL     1       5.284  -3.229   2.789  0.00  0.00    +0.007 A 
ATOM     30  C   UNL     1       5.920  -3.022   1.564  0.00  0.00    +0.014 A 
ATOM     31  C   UNL     1       7.276  -3.241   1.448  0.00  0.00    +0.046 A 
ATOM     32  C   UNL     1       8.007  -3.675   2.545  0.00  0.00    +0.120 A 
ATOM     33  C   UNL     1       7.377  -3.887   3.765  0.00  0.00    +0.046 A 
ATOM     34  C   UNL     1       6.022  -3.666   3.890  0.00  0.00    +0.014 A 
BRANCH  32  35
ATOM     35  O   UNL     1       9.343  -3.894   2.426  0.00  0.00    -0.495 OA
ATOM     36  C   UNL     1       9.927  -3.656   1.143  0.00  0.00    +0.277 C 
ENDBRANCH  32  35
ENDBRANCH  27  29
ENDBRANCH  23  24
ENDBRANCH   4  23
TORSDOF 6
