REMARK  Name = ZINC01381916
REMARK  8 active torsions:
REMARK  status: ('A' for Active; 'I' for Inactive)
REMARK    1  A    between atoms: C_1  and  C_2
REMARK    2  A    between atoms: C_6  and  C_15
REMARK    3  A    between atoms: C_13  and  C_14
REMARK    4  A    between atoms: C_15  and  C_17
REMARK    5  A    between atoms: C_15  and  N_28
REMARK    6  A    between atoms: N_21  and  C_22
REMARK    7  A    between atoms: C_22  and  C_23
REMARK    8  A    between atoms: N_31  and  C_34
REMARK                            x       y       z     vdW  Elec       q    Type
REMARK                         _______ _______ _______ _____ _____    ______ ____
ROOT
ATOM      1  C   UNL     1      -4.986   3.842   0.069  0.00  0.00    +0.162 C 
ENDROOT
BRANCH   1   7
ATOM      2  C   UNL     1       2.471   3.924  -0.001  0.00  0.00    +0.044 C 
ATOM      3  C   UNL     1       1.165   3.172   0.008  0.00  0.00    -0.047 A 
ATOM      4  C   UNL     1      -0.014   3.863   0.022  0.00  0.00    +0.013 A 
ATOM      5  C   UNL     1      -1.226   3.165   0.030  0.00  0.00    -0.001 A 
ATOM      6  C   UNL     1      -2.507   3.874   0.046  0.00  0.00    +0.021 A 
ATOM      7  C   UNL     1      -3.650   3.144   0.053  0.00  0.00    +0.042 A 
ATOM      8  C   UNL     1      -3.594   1.734   0.045  0.00  0.00    +0.254 A 
ATOM      9  O   UNL     1      -4.634   1.098   0.052  0.00  0.00    -0.268 OA
ATOM     10  N   UNL     1      -2.422   1.075   0.032  0.00  0.00    -0.322 N 
ATOM     11  H   UNL     1      -2.410  -0.025   0.031  0.00  0.00    +0.169 HD
ATOM     12  C   UNL     1      -1.225   1.757   0.017  0.00  0.00    +0.049 A 
ATOM     13  C   UNL     1      -0.013   1.076   0.008  0.00  0.00    +0.030 A 
ATOM     14  C   UNL     1       1.170   1.784   0.001  0.00  0.00    -0.046 A 
ATOM     15  C   UNL     1       2.482   1.043  -0.016  0.00  0.00    +0.044 C 
ENDBRANCH   1   7
BRANCH   1  16
ATOM     16  N   UNL     1      -5.798   3.371  -1.061  0.00  0.00    -0.292 NA
ATOM     17  C   UNL     1      -5.095   3.571  -2.335  0.00  0.00    +0.067 C 
ATOM     18  C   UNL     1      -5.939   2.997  -3.476  0.00  0.00    -0.063 C 
ATOM     19  N   UNL     1      -7.251   3.657  -3.492  0.00  0.00    +0.383 N 
ATOM     20  C   UNL     1      -7.954   3.457  -2.218  0.00  0.00    -0.063 C 
ATOM     21  C   UNL     1      -7.111   4.032  -1.077  0.00  0.00    +0.067 C 
ATOM     22  H   UNL     1      -7.087   4.737  -3.623  0.00  0.00    -0.081 HD
BRANCH  19  23
ATOM     23  C   UNL     1      -8.064   3.186  -4.622  0.00  0.00    -0.068 C 
ATOM     24  C   UNL     1      -8.251   1.671  -4.518  0.00  0.00    -0.015 C 
ATOM     25  C   UNL     1      -9.097   1.180  -5.694  0.00  0.00    -0.002 C 
ATOM     26  C   UNL     1      -8.389   1.517  -7.008  0.00  0.00    -0.000 C 
ATOM     27  C   UNL     1      -8.202   3.032  -7.112  0.00  0.00    -0.002 C 
ATOM     28  C   UNL     1      -7.356   3.523  -5.935  0.00  0.00    -0.015 C 
ENDBRANCH  19  23
ENDBRANCH   1  16
BRANCH   1  29
ATOM     29  C   UNL     1      -5.697   3.536   1.362  0.00  0.00    +0.173 A 
ATOM     30  N   UNL     1      -6.286   2.410   1.683  0.00  0.00    -0.111 NA
ATOM     31  N   UNL     1      -6.776   2.542   2.868  0.00  0.00    -0.023 NA
ATOM     32  N   UNL     1      -6.514   3.722   3.310  0.00  0.00    -0.043 NA
ATOM     33  N   UNL     1      -5.846   4.364   2.413  0.00  0.00    -0.220 N 
BRANCH  33  34
ATOM     34  C   UNL     1      -5.346   5.737   2.516  0.00  0.00    +0.221 C 
BRANCH  34  35
ATOM     35  C   UNL     1      -6.390   6.692   1.998  0.00  0.00    +0.126 A 
ATOM     36  C   UNL     1      -7.363   7.266   2.729  0.00  0.00    +0.046 A 
ATOM     37  C   UNL     1      -8.108   8.084   1.848  0.00  0.00    +0.041 A 
ATOM     38  C   UNL     1      -7.551   7.955   0.631  0.00  0.00    +0.195 A 
ATOM     39  O   UNL     1      -6.510   7.111   0.728  0.00  0.00    -0.466 OA
ENDBRANCH  34  35
ENDBRANCH  33  34
ENDBRANCH   1  29
TORSDOF 6
