REMARK  Name = ZINC02944619
REMARK  7 active torsions:
REMARK  status: ('A' for Active; 'I' for Inactive)
REMARK    1  A    between atoms: C_1  and  O_2
REMARK    2  A    between atoms: O_2  and  C_3
REMARK    3  A    between atoms: C_6  and  C_22
REMARK    4  A    between atoms: C_8  and  C_9
REMARK    5  A    between atoms: C_9  and  S_10
REMARK    6  A    between atoms: S_10  and  C_11
REMARK    7  A    between atoms: C_14  and  C_16
REMARK                            x       y       z     vdW  Elec       q    Type
REMARK                         _______ _______ _______ _____ _____    ______ ____
ROOT
ATOM      1  C   UNL     1       3.090  -1.900   2.732  0.00  0.00    +0.124 A 
ATOM      2  C   UNL     1       3.041  -0.594   3.197  0.00  0.00    +0.046 A 
ATOM      3  C   UNL     1       2.870   0.449   2.307  0.00  0.00    +0.006 A 
ATOM      4  C   UNL     1       2.736   0.191   0.955  0.00  0.00    -0.055 A 
ATOM      5  C   UNL     1       2.784  -1.110   0.489  0.00  0.00    +0.010 A 
ATOM      6  C   UNL     1       2.961  -2.156   1.374  0.00  0.00    +0.005 A 
ENDROOT
BRANCH   4   7
ATOM      7  C   UNL     1       2.543   1.330  -0.012  0.00  0.00    +0.007 C 
ATOM      8  C   UNL     1       1.097   1.768   0.001  0.00  0.00    +0.010 A 
ATOM      9  C   UNL     1       0.721   3.067   0.011  0.00  0.00    -0.022 A 
ATOM     10  C   UNL     1      -0.724   3.094   0.025  0.00  0.00    +0.003 A 
ATOM     11  C   UNL     1      -1.656   4.136   0.038  0.00  0.00    +0.010 A 
ATOM     12  C   UNL     1      -2.983   3.783   0.050  0.00  0.00    +0.001 A 
ATOM     13  C   UNL     1      -3.393   2.460   0.047  0.00  0.00    +0.002 A 
ATOM     14  C   UNL     1      -2.493   1.409   0.033  0.00  0.00    +0.026 A 
ATOM     15  C   UNL     1      -1.139   1.736   0.016  0.00  0.00    +0.047 A 
ATOM     16  N   UNL     1      -0.011   0.966   0.007  0.00  0.00    -0.359 N 
ATOM     17  H   UNL     1       0.102  -0.128   0.005  0.00  0.00    +0.166 HD
ATOM     18  C   UNL     1       1.698   4.216   0.006  0.00  0.00    +0.018 C 
ATOM     19  C   UNL     1       3.071   3.669  -0.406  0.00  0.00    -0.076 C 
ATOM     20  N   UNL     1       3.380   2.472   0.388  0.00  0.00    +0.387 N 
ATOM     21  H   UNL     1       3.203   2.702   1.449  0.00  0.00    -0.084 HD
ATOM     22  H   UNL     1       4.440   2.219   0.241  0.00  0.00    -0.084 HD
ENDBRANCH   4   7
BRANCH   1  24
ATOM     23  C   UNL     1       3.390  -2.589   4.987  0.00  0.00    +0.277 C 
ATOM     24  O   UNL     1       3.265  -2.927   3.604  0.00  0.00    -0.495 OA
ENDBRANCH   1  24
BRANCH   6  25
ATOM     25  C   UNL     1       3.014  -3.573   0.866  0.00  0.00    +0.117 C 
BRANCH  25  26
ATOM     26  S   UNL     1       4.726  -4.011   0.476  0.00  0.00    -0.061 S 
BRANCH  26  27
ATOM     27  C   UNL     1       4.500  -5.668  -0.079  0.00  0.00    +0.278 A 
ATOM     28  N   UNL     1       3.359  -6.314  -0.151  0.00  0.00    -0.101 NA
ATOM     29  N   UNL     1       3.567  -7.502  -0.600  0.00  0.00    -0.106 NA
ATOM     30  C   UNL     1       4.848  -7.662  -0.831  0.00  0.00    +0.249 A 
ATOM     31  O   UNL     1       5.464  -6.503  -0.511  0.00  0.00    -0.411 OA
BRANCH  30  32
ATOM     32  C   UNL     1       5.496  -8.883  -1.351  0.00  0.00    +0.039 A 
ATOM     33  C   UNL     1       6.877  -8.911  -1.554  0.00  0.00    +0.013 A 
ATOM     34  C   UNL     1       7.478 -10.057  -2.034  0.00  0.00    +0.001 A 
ATOM     35  C   UNL     1       6.713 -11.173  -2.325  0.00  0.00    +0.000 A 
ATOM     36  C   UNL     1       5.343 -11.150  -2.130  0.00  0.00    +0.001 A 
ATOM     37  C   UNL     1       4.731 -10.013  -1.645  0.00  0.00    +0.013 A 
ENDBRANCH  30  32
ENDBRANCH  26  27
ENDBRANCH  25  26
ENDBRANCH   6  25
TORSDOF 6
