REMARK  Name = ZINC20694591
REMARK  9 active torsions:
REMARK  status: ('A' for Active; 'I' for Inactive)
REMARK    1  A    between atoms: C_1  and  C_2
REMARK    2  A    between atoms: C_2  and  C_3
REMARK    3  A    between atoms: C_3  and  C_5
REMARK    4  A    between atoms: C_3  and  O_6
REMARK    5  A    between atoms: O_6  and  C_7
REMARK    6  A    between atoms: C_20  and  C_23
REMARK    7  A    between atoms: C_27  and  O_30
REMARK    8  A    between atoms: C_28  and  O_29
REMARK    9  A    between atoms: O_30  and  C_31
REMARK                            x       y       z     vdW  Elec       q    Type
REMARK                         _______ _______ _______ _____ _____    ______ ____
ROOT
ATOM      1  C   UNL     1      -5.595   8.140   0.036  0.00  0.00    +0.121 A 
ATOM      2  C   UNL     1      -4.584   8.412  -0.874  0.00  0.00    +0.047 A 
ATOM      3  C   UNL     1      -3.536   7.525  -1.014  0.00  0.00    +0.027 A 
ATOM      4  C   UNL     1      -3.495   6.367  -0.248  0.00  0.00    +0.032 A 
ATOM      5  C   UNL     1      -4.501   6.090   0.664  0.00  0.00    -0.016 A 
ATOM      6  C   UNL     1      -5.553   6.986   0.799  0.00  0.00    +0.051 A 
ATOM      7  C   UNL     1      -4.495   4.858   1.512  0.00  0.00    +0.049 C 
ATOM      8  C   UNL     1      -5.495   3.841   1.015  0.00  0.00    -0.023 C 
ATOM      9  C   UNL     1      -5.024   2.628   1.172  0.00  0.00    -0.030 C 
ATOM     10  C   UNL     1      -3.644   2.671   1.801  0.00  0.00    +0.033 C 
ATOM     11  C   UNL     1      -3.147   4.111   1.481  0.00  0.00    +0.029 C 
ATOM     12  C   UNL     1      -2.592   4.095   0.054  0.00  0.00    +0.109 C 
ATOM     13  N   UNL     1      -2.423   5.478  -0.406  0.00  0.00    -0.336 N 
ATOM     14  H   UNL     1      -1.472   5.793  -0.860  0.00  0.00    +0.147 HD
ENDROOT
BRANCH  12  15
ATOM     15  C   UNL     1      -1.260   3.391   0.038  0.00  0.00    +0.018 A 
ATOM     16  C   UNL     1      -1.153   2.127  -0.513  0.00  0.00    +0.009 A 
ATOM     17  C   UNL     1       0.068   1.478  -0.528  0.00  0.00    +0.004 A 
ATOM     18  C   UNL     1       1.187   2.091   0.006  0.00  0.00    +0.049 A 
ATOM     19  C   UNL     1       1.086   3.356   0.560  0.00  0.00    +0.162 A 
ATOM     20  C   UNL     1      -0.145   4.007   0.581  0.00  0.00    +0.163 A 
BRANCH  20  21
ATOM     21  O   UNL     1      -0.250   5.248   1.128  0.00  0.00    -0.503 OA
ATOM     22  H   UNL     1       0.637   5.736   1.559  0.00  0.00    +0.292 HD
ENDBRANCH  20  21
BRANCH  19  23
ATOM     23  O   UNL     1       2.185   3.960   1.086  0.00  0.00    -0.491 OA
ATOM     24  C   UNL     1       3.413   3.230   1.035  0.00  0.00    +0.277 C 
ENDBRANCH  19  23
ENDBRANCH  12  15
BRANCH   1  25
ATOM     25  O   UNL     1      -6.631   9.009   0.179  0.00  0.00    -0.489 OA
BRANCH  25  26
ATOM     26  C   UNL     1      -6.679  10.115  -0.725  0.00  0.00    +0.170 C 
ATOM     27  C   UNL     1      -5.805  11.251  -0.189  0.00  0.00    +0.052 C 
BRANCH  26  29
ATOM     28  C   UNL     1      -8.973   9.509  -1.510  0.00  0.00    +0.007 C 
ATOM     29  C   UNL     1      -8.124  10.602  -0.858  0.00  0.00    +0.041 C 
ENDBRANCH  26  29
ENDBRANCH  25  26
ENDBRANCH   1  25
TORSDOF 6
