REMARK  Name = ZINC09117817
REMARK  2 active torsions:
REMARK  status: ('A' for Active; 'I' for Inactive)
REMARK    1  A    between atoms: C_8  and  C_16
REMARK    2  A    between atoms: N_21  and  C_24
REMARK                            x       y       z     vdW  Elec       q    Type
REMARK                         _______ _______ _______ _____ _____    ______ ____
ROOT
ATOM      1  C   UNL     1       0.037  -0.308   0.318  0.00  0.00    +0.000 A 
ATOM      2  C   UNL     1      -0.032   1.066   0.459  0.00  0.00    +0.002 A 
ATOM      3  C   UNL     1       1.119   1.826   0.460  0.00  0.00    +0.023 A 
ATOM      4  C   UNL     1       2.362   1.214   0.319  0.00  0.00    +0.036 A 
ATOM      5  C   UNL     1       2.420  -0.169   0.177  0.00  0.00    -0.027 A 
ATOM      6  C   UNL     1       1.268  -0.924   0.177  0.00  0.00    +0.004 A 
ATOM      7  C   UNL     1       3.880  -0.512   0.045  0.00  0.00    +0.052 C 
ATOM      8  C   UNL     1       4.160  -1.195  -1.302  0.00  0.00    +0.076 C 
ATOM      9  C   UNL     1       5.253  -2.236  -0.942  0.00  0.00    -0.003 C 
ATOM     10  C   UNL     1       4.824  -2.664   0.482  0.00  0.00    -0.066 C 
ATOM     11  C   UNL     1       5.468  -0.828   1.838  0.00  0.00    -0.077 C 
ATOM     12  C   UNL     1       6.218  -2.058   2.403  0.00  0.00    -0.020 C 
ATOM     13  C   UNL     1       6.064  -3.120   1.268  0.00  0.00    -0.017 C 
ATOM     14  C   UNL     1       4.595   0.812   0.131  0.00  0.00    +0.212 C 
ATOM     15  O   UNL     1       5.793   0.992   0.070  0.00  0.00    -0.277 OA
ATOM     16  N   UNL     1       3.649   1.756   0.289  0.00  0.00    -0.286 N 
ATOM     17  H   UNL     1       3.838   2.704   0.373  0.00  0.00    +0.155 HD
ATOM     18  N   UNL     1       4.344  -1.434   1.102  0.00  0.00    +0.394 N 
ATOM     19  H   UNL     1       3.572  -1.641   1.747  0.00  0.00    -0.079 HD
ENDROOT
BRANCH   8  20
ATOM     20  C   UNL     1       2.921  -1.879  -1.821  0.00  0.00    +0.218 C 
ATOM     21  O   UNL     1       2.684  -3.026  -1.504  0.00  0.00    -0.275 OA
ATOM     22  N   UNL     1       2.078  -1.218  -2.638  0.00  0.00    -0.298 N 
ATOM     23  C   UNL     1       2.344   0.174  -3.031  0.00  0.00    +0.126 C 
ATOM     24  C   UNL     1       2.254   0.269  -4.563  0.00  0.00    +0.124 C 
ATOM     25  N   UNL     1       0.958  -0.264  -5.005  0.00  0.00    -0.325 N 
ATOM     26  C   UNL     1       0.829  -1.690  -4.678  0.00  0.00    +0.124 C 
ATOM     27  C   UNL     1       0.864  -1.867  -3.156  0.00  0.00    +0.126 C 
BRANCH  25  28
ATOM     28  C   UNL     1       0.767  -0.044  -6.373  0.00  0.00    +0.065 A 
ATOM     29  C   UNL     1       1.606  -0.649  -7.299  0.00  0.00    +0.026 A 
ATOM     30  C   UNL     1       1.411  -0.434  -8.650  0.00  0.00    +0.002 A 
ATOM     31  C   UNL     1       0.389   0.391  -9.081  0.00  0.00    +0.003 A 
ATOM     32  C   UNL     1      -0.447   0.999  -8.162  0.00  0.00    +0.040 A 
ATOM     33  C   UNL     1      -0.261   0.785  -6.809  0.00  0.00    +0.144 A 
ATOM     34  F   UNL     1      -1.077   1.379  -5.911  0.00  0.00    -0.204 F 
ENDBRANCH  25  28
ENDBRANCH   8  20
TORSDOF 2
