REMARK  Name = ZINC36561203
REMARK  15 active torsions:
REMARK  status: ('A' for Active; 'I' for Inactive)
REMARK    1  A    between atoms: C_1  and  C_2
REMARK    2  A    between atoms: C_2  and  C_3
REMARK    3  A    between atoms: C_3  and  N_4
REMARK    4  A    between atoms: N_4  and  C_5
REMARK    5  A    between atoms: C_5  and  C_7
REMARK    6  A    between atoms: C_5  and  C_14
REMARK    7  A    between atoms: C_12  and  C_13
REMARK    8  A    between atoms: N_16  and  C_17
REMARK    9  A    between atoms: C_17  and  S_18
REMARK   10  A    between atoms: S_18  and  C_21
REMARK   11  A    between atoms: C_24  and  C_27
REMARK   12  A    between atoms: C_28  and  C_30
REMARK   13  A    between atoms: C_30  and  C_32
REMARK   14  A    between atoms: C_30  and  O_38
REMARK   15  A    between atoms: O_38  and  C_39
REMARK                            x       y       z     vdW  Elec       q    Type
REMARK                         _______ _______ _______ _____ _____    ______ ____
ROOT
ATOM      1  C   UNL     1      -1.347  -2.450   0.126  0.00  0.00    +0.192 C 
ENDROOT
BRANCH   1   2
ATOM      2  C   UNL     1      -0.166  -1.997   0.945  0.00  0.00    -0.015 A 
ATOM      3  C   UNL     1      -0.310  -0.963   1.852  0.00  0.00    +0.006 A 
ATOM      4  C   UNL     1       0.773  -0.547   2.603  0.00  0.00    +0.000 A 
ATOM      5  C   UNL     1       2.000  -1.165   2.449  0.00  0.00    +0.000 A 
ATOM      6  C   UNL     1       2.144  -2.200   1.543  0.00  0.00    +0.004 A 
ATOM      7  C   UNL     1       1.060  -2.618   0.794  0.00  0.00    -0.045 A 
ATOM      8  C   UNL     1       1.215  -3.749  -0.190  0.00  0.00    +0.044 C 
ENDBRANCH   1   2
BRANCH   1   9
ATOM      9  C   UNL     1      -2.615  -1.899   0.725  0.00  0.00    +0.239 C 
ATOM     10  O   UNL     1      -3.192  -0.980   0.183  0.00  0.00    -0.273 OA
ATOM     11  N   UNL     1      -3.108  -2.427   1.863  0.00  0.00    -0.294 N 
ATOM     12  H   UNL     1      -2.605  -3.106   2.340  0.00  0.00    +0.150 HD
BRANCH  11  13
ATOM     13  C   UNL     1      -4.402  -1.975   2.379  0.00  0.00    +0.278 C 
BRANCH  13  14
ATOM     14  S   UNL     1      -5.707  -3.096   1.805  0.00  0.00    +0.013 S 
ATOM     15  O   UNL     1      -6.961  -2.708   2.350  0.00  0.00    -0.168 OA
ATOM     16  O   UNL     1      -5.566  -3.339   0.412  0.00  0.00    -0.168 OA
BRANCH  14  17
ATOM     17  C   UNL     1      -5.345  -4.642   2.569  0.00  0.00    +0.090 A 
ATOM     18  C   UNL     1      -4.522  -5.552   1.932  0.00  0.00    +0.027 A 
ATOM     19  C   UNL     1      -4.237  -6.764   2.532  0.00  0.00    +0.005 A 
ATOM     20  C   UNL     1      -4.775  -7.067   3.769  0.00  0.00    -0.050 A 
ATOM     21  C   UNL     1      -5.597  -6.157   4.406  0.00  0.00    +0.005 A 
ATOM     22  C   UNL     1      -5.878  -4.942   3.809  0.00  0.00    +0.027 A 
ATOM     23  C   UNL     1      -4.466  -8.389   4.422  0.00  0.00    +0.044 C 
ENDBRANCH  14  17
ENDBRANCH  13  14
ENDBRANCH  11  13
ENDBRANCH   1   9
BRANCH   1  24
ATOM     24  N   UNL     1      -1.203  -1.963  -1.248  0.00  0.00    -0.283 N 
ATOM     25  C   UNL     1      -1.259  -2.829  -2.280  0.00  0.00    +0.250 C 
ATOM     26  O   UNL     1      -1.338  -4.020  -2.067  0.00  0.00    -0.272 OA
BRANCH  24  27
ATOM     27  C   UNL     1      -0.999  -0.534  -1.501  0.00  0.00    +0.109 C 
BRANCH  27  29
ATOM     28  C   UNL     1       0.709   1.220  -1.998  0.00  0.00    +0.005 C 
ATOM     29  C   UNL     1       0.499  -0.244  -1.608  0.00  0.00    +0.016 C 
ENDBRANCH  27  29
ENDBRANCH  24  27
BRANCH  25  30
ATOM     30  C   UNL     1      -1.224  -2.317  -3.696  0.00  0.00    +0.233 C 
BRANCH  30  31
ATOM     31  C   UNL     1      -2.585  -1.792  -4.075  0.00  0.00    -0.010 A 
ATOM     32  C   UNL     1      -3.605  -2.674  -4.379  0.00  0.00    +0.006 A 
ATOM     33  C   UNL     1      -4.854  -2.194  -4.726  0.00  0.00    +0.000 A 
ATOM     34  C   UNL     1      -5.083  -0.831  -4.770  0.00  0.00    +0.000 A 
ATOM     35  C   UNL     1      -4.063   0.051  -4.465  0.00  0.00    +0.000 A 
ATOM     36  C   UNL     1      -2.815  -0.430  -4.114  0.00  0.00    +0.006 A 
ENDBRANCH  30  31
BRANCH  30  37
ATOM     37  O   UNL     1      -0.861  -3.380  -4.579  0.00  0.00    -0.366 OA
ATOM     38  C   UNL     1       0.547  -3.502  -4.793  0.00  0.00    +0.195 C 
ENDBRANCH  30  37
ENDBRANCH  25  30
ENDBRANCH   1  24
TORSDOF 11
