REMARK  Name = ZINC40259958
REMARK  4 active torsions:
REMARK  status: ('A' for Active; 'I' for Inactive)
REMARK    1  A    between atoms: C_1  and  C_2
REMARK    2  A    between atoms: C_5  and  C_9
REMARK    3  A    between atoms: C_9  and  C_11
REMARK    4  A    between atoms: C_9  and  O_22
REMARK                            x       y       z     vdW  Elec       q    Type
REMARK                         _______ _______ _______ _____ _____    ______ ____
ROOT
ATOM      1  C   UNL     1       0.059  -4.277  -0.024  0.00  0.00    +0.176 C 
ENDROOT
BRANCH   1   2
ATOM      2  C   UNL     1      -1.349  -4.798   0.103  0.00  0.00    +0.007 A 
ATOM      3  C   UNL     1      -1.850  -5.136   1.347  0.00  0.00    +0.057 A 
ATOM      4  C   UNL     1      -3.146  -5.615   1.467  0.00  0.00    +0.163 A 
ATOM      5  C   UNL     1      -3.940  -5.753   0.335  0.00  0.00    +0.163 A 
ATOM      6  C   UNL     1      -3.432  -5.414  -0.909  0.00  0.00    +0.069 A 
ATOM      7  C   UNL     1      -2.140  -4.933  -1.023  0.00  0.00    +0.051 A 
ATOM      8 CL   UNL     1      -1.510  -4.502  -2.582  0.00  0.00    -0.083 Cl
ATOM      9  O   UNL     1      -5.217  -6.214   0.433  0.00  0.00    -0.485 OA
ATOM     10  C   UNL     1      -5.566  -6.893   1.644  0.00  0.00    +0.270 C 
ATOM     11  C   UNL     1      -5.044  -6.066   2.826  0.00  0.00    +0.270 C 
ATOM     12  O   UNL     1      -3.623  -5.947   2.698  0.00  0.00    -0.485 OA
ENDBRANCH   1   2
BRANCH   1  17
ATOM     13  C   UNL     1      -0.018   1.503   0.010  0.00  0.00    +0.047 C 
ATOM     14  C   UNL     1       0.002  -0.004   0.002  0.00  0.00    -0.015 A 
ATOM     15  C   UNL     1       0.006  -0.689  -1.199  0.00  0.00    +0.006 A 
ATOM     16  C   UNL     1       0.025  -2.071  -1.206  0.00  0.00    +0.007 A 
ATOM     17  C   UNL     1       0.040  -2.770  -0.014  0.00  0.00    -0.012 A 
ATOM     18  C   UNL     1       0.036  -2.088   1.188  0.00  0.00    +0.045 A 
ATOM     19  C   UNL     1       0.023  -0.703   1.197  0.00  0.00    +0.127 A 
ATOM     20  F   UNL     1       0.025  -0.035   2.371  0.00  0.00    -0.205 F 
ENDBRANCH   1  17
BRANCH   1  21
ATOM     21  O   UNL     1       0.844  -4.751   1.072  0.00  0.00    -0.382 OA
ATOM     22  H   UNL     1       0.515  -4.476   1.939  0.00  0.00    +0.211 HD
ENDBRANCH   1  21
TORSDOF 3
