REMARK  Name = ZINC45684745
REMARK  9 active torsions:
REMARK  status: ('A' for Active; 'I' for Inactive)
REMARK    1  A    between atoms: C_1  and  C_2
REMARK    2  A    between atoms: C_9  and  N_13
REMARK    3  A    between atoms: C_10  and  C_11
REMARK    4  A    between atoms: C_14  and  C_16
REMARK    5  A    between atoms: C_16  and  C_17
REMARK    6  A    between atoms: C_17  and  S_18
REMARK    7  A    between atoms: S_18  and  C_19
REMARK    8  A    between atoms: C_22  and  C_25
REMARK    9  A    between atoms: N_23  and  N_24
REMARK                            x       y       z     vdW  Elec       q    Type
REMARK                         _______ _______ _______ _____ _____    ______ ____
ROOT
ATOM      1  N   UNL     1       1.941  -5.828   1.697  0.00  0.00    -0.279 N 
ATOM      2  C   UNL     1       2.252  -6.088   2.983  0.00  0.00    +0.218 C 
ATOM      3  O   UNL     1       2.232  -5.196   3.804  0.00  0.00    -0.275 OA
ATOM      4  H   UNL     1       1.957  -6.541   1.040  0.00  0.00    +0.155 HD
ENDROOT
BRANCH   1  12
ATOM      5  C   UNL     1      -0.019   1.526   0.010  0.00  0.00    +0.008 C 
ATOM      6  C   UNL     1       0.002  -0.004   0.002  0.00  0.00    -0.009 C 
ATOM      7  C   UNL     1       0.724  -0.500  -1.254  0.00  0.00    +0.008 C 
ATOM      8  C   UNL     1       0.537  -2.012  -1.399  0.00  0.00    +0.037 C 
ATOM      9  C   UNL     1       0.935  -2.680  -0.092  0.00  0.00    -0.018 A 
ATOM     10  C   UNL     1       1.019  -1.977   1.059  0.00  0.00    -0.004 A 
ATOM     11  S   UNL     1       1.508  -3.165   2.275  0.00  0.00    -0.077 S 
ATOM     12  C   UNL     1       1.599  -4.539   1.313  0.00  0.00    +0.090 A 
ATOM     13  C   UNL     1       1.254  -4.090   0.049  0.00  0.00    +0.084 A 
ATOM     14  C   UNL     1       0.750  -0.515   1.242  0.00  0.00    +0.046 C 
BRANCH  13  15
ATOM     15  C   UNL     1       1.212  -4.980  -1.072  0.00  0.00    +0.102 C 
ATOM     16  N   UNL     1       1.180  -5.685  -1.962  0.00  0.00    -0.191 NA
ENDBRANCH  13  15
ENDBRANCH   1  12
BRANCH   2  17
ATOM     17  C   UNL     1       2.624  -7.488   3.399  0.00  0.00    +0.107 C 
BRANCH  17  18
ATOM     18  C   UNL     1       2.928  -7.510   4.899  0.00  0.00    +0.086 C 
BRANCH  18  19
ATOM     19  S   UNL     1       3.376  -9.194   5.400  0.00  0.00    -0.084 S 
BRANCH  19  20
ATOM     20  C   UNL     1       3.692  -9.055   7.128  0.00  0.00    +0.209 A 
ATOM     21  N   UNL     1       3.605  -7.963   7.852  0.00  0.00    -0.121 NA
ATOM     22  N   UNL     1       3.905  -8.224   9.074  0.00  0.00    -0.123 NA
ATOM     23  C   UNL     1       4.199  -9.487   9.202  0.00  0.00    +0.255 A 
ATOM     24  N   UNL     1       4.068 -10.063   7.969  0.00  0.00    -0.220 N 
BRANCH  23  25
ATOM     25  C   UNL     1       4.602 -10.185  10.476  0.00  0.00    +0.454 C 
ATOM     26  F   UNL     1       4.292  -9.373  11.571  0.00  0.00    -0.163 F 
ATOM     27  F   UNL     1       3.909 -11.396  10.583  0.00  0.00    -0.163 F 
ATOM     28  F   UNL     1       5.978 -10.436  10.454  0.00  0.00    -0.163 F 
ENDBRANCH  23  25
BRANCH  24  29
ATOM     29  N   UNL     1       4.274 -11.374   7.644  0.00  0.00    -0.295 N 
ATOM     30  H   UNL     1       5.234 -11.534   7.378  0.00  0.00    +0.163 HD
ATOM     31  H   UNL     1       4.003 -11.981   8.403  0.00  0.00    +0.163 HD
ENDBRANCH  24  29
ENDBRANCH  19  20
ENDBRANCH  18  19
ENDBRANCH  17  18
ENDBRANCH   2  17
TORSDOF 8
