REMARK  Name = ZINC58919269
REMARK  12 active torsions:
REMARK  status: ('A' for Active; 'I' for Inactive)
REMARK    1  A    between atoms: C_1  and  C_2
REMARK    2  A    between atoms: C_5  and  S_8
REMARK    3  A    between atoms: S_8  and  N_11
REMARK    4  A    between atoms: N_11  and  C_12
REMARK    5  A    between atoms: N_11  and  C_26
REMARK    6  A    between atoms: C_12  and  C_13
REMARK    7  A    between atoms: N_15  and  N_16
REMARK    8  A    between atoms: C_17  and  C_18
REMARK    9  A    between atoms: C_21  and  S_24
REMARK   10  A    between atoms: S_24  and  C_25
REMARK   11  A    between atoms: C_29  and  O_32
REMARK   12  A    between atoms: O_32  and  C_33
REMARK                            x       y       z     vdW  Elec       q    Type
REMARK                         _______ _______ _______ _____ _____    ______ ____
ROOT
ATOM      1  N   UNL     1       1.651  -4.999  -0.034  0.00  0.00    -0.194 N 
ENDROOT
BRANCH   1   2
ATOM      2  C   UNL     1       2.285  -5.292  -1.247  0.00  0.00    +0.052 A 
ATOM      3  C   UNL     1       3.516  -4.721  -1.542  0.00  0.00    +0.028 A 
ATOM      4  C   UNL     1       4.142  -5.011  -2.739  0.00  0.00    +0.047 A 
ATOM      5  C   UNL     1       3.541  -5.873  -3.645  0.00  0.00    +0.120 A 
ATOM      6  C   UNL     1       2.312  -6.443  -3.351  0.00  0.00    +0.047 A 
ATOM      7  C   UNL     1       1.687  -6.159  -2.152  0.00  0.00    +0.028 A 
BRANCH   5   8
ATOM      8  O   UNL     1       4.158  -6.158  -4.823  0.00  0.00    -0.495 OA
ATOM      9  C   UNL     1       3.482  -7.053  -5.709  0.00  0.00    +0.277 C 
ENDBRANCH   5   8
ENDBRANCH   1   2
BRANCH   1  10
ATOM     10  S   UNL     1       0.149  -4.301  -0.033  0.00  0.00    +0.075 S 
ATOM     11  O   UNL     1      -0.501  -4.738   1.153  0.00  0.00    -0.150 OA
ATOM     12  O   UNL     1      -0.399  -4.515  -1.326  0.00  0.00    -0.150 OA
BRANCH  10  17
ATOM     13  C   UNL     1       0.948   1.653   0.535  0.00  0.00    +0.044 C 
ATOM     14  C   UNL     1       0.749   0.166   0.393  0.00  0.00    -0.050 A 
ATOM     15  C   UNL     1       0.707  -0.409  -0.863  0.00  0.00    +0.005 A 
ATOM     16  C   UNL     1       0.524  -1.774  -0.993  0.00  0.00    +0.029 A 
ATOM     17  C   UNL     1       0.384  -2.563   0.133  0.00  0.00    +0.109 A 
ATOM     18  C   UNL     1       0.426  -1.988   1.389  0.00  0.00    +0.029 A 
ATOM     19  C   UNL     1       0.613  -0.624   1.520  0.00  0.00    +0.005 A 
ENDBRANCH  10  17
ENDBRANCH   1  10
BRANCH   1  20
ATOM     20  C   UNL     1       2.315  -5.311   1.234  0.00  0.00    +0.228 C 
BRANCH  20  21
ATOM     21  C   UNL     1       2.043  -6.746   1.605  0.00  0.00    +0.251 C 
ATOM     22  O   UNL     1       1.361  -7.441   0.880  0.00  0.00    -0.272 OA
ATOM     23  N   UNL     1       2.557  -7.257   2.740  0.00  0.00    -0.206 N 
ATOM     24  H   UNL     1       3.102  -6.702   3.319  0.00  0.00    +0.177 HD
BRANCH  23  25
ATOM     25  N   UNL     1       2.304  -8.592   3.085  0.00  0.00    -0.188 NA
ATOM     26  C   UNL     1       2.800  -9.085   4.179  0.00  0.00    +0.138 C 
BRANCH  26  27
ATOM     27  C   UNL     1       2.534 -10.488   4.542  0.00  0.00    -0.005 A 
ATOM     28  C   UNL     1       1.753 -11.292   3.705  0.00  0.00    +0.010 A 
ATOM     29  C   UNL     1       1.507 -12.603   4.047  0.00  0.00    +0.015 A 
ATOM     30  C   UNL     1       2.034 -13.128   5.223  0.00  0.00    +0.008 A 
ATOM     31  C   UNL     1       2.812 -12.331   6.058  0.00  0.00    +0.015 A 
ATOM     32  C   UNL     1       3.066 -11.020   5.719  0.00  0.00    +0.010 A 
BRANCH  30  33
ATOM     33  S   UNL     1       1.717 -14.806   5.656  0.00  0.00    -0.129 S 
ATOM     34  C   UNL     1       2.590 -15.026   7.231  0.00  0.00    +0.090 C 
ENDBRANCH  30  33
ENDBRANCH  26  27
ENDBRANCH  23  25
ENDBRANCH  20  21
ENDBRANCH   1  20
TORSDOF 9
