REMARK  Name = ZINC03227222
REMARK  9 active torsions:
REMARK  status: ('A' for Active; 'I' for Inactive)
REMARK    1  A    between atoms: C_1  and  O_2
REMARK    2  A    between atoms: O_2  and  C_3
REMARK    3  A    between atoms: C_8  and  N_9
REMARK    4  A    between atoms: N_9  and  C_10
REMARK    5  A    between atoms: C_10  and  C_12
REMARK    6  A    between atoms: C_13  and  C_32
REMARK    7  A    between atoms: C_18  and  C_24
REMARK    8  A    between atoms: C_24  and  O_25
REMARK    9  A    between atoms: O_25  and  C_26
REMARK                            x       y       z     vdW  Elec       q    Type
REMARK                         _______ _______ _______ _____ _____    ______ ____
ROOT
ATOM      1  C   UNL     1       8.425  -3.160  -1.212  0.00  0.00    +0.104 A 
ATOM      2  C   UNL     1       8.619  -4.066  -0.142  0.00  0.00    +0.017 A 
ATOM      3  C   UNL     1       8.030  -3.511   0.974  0.00  0.00    +0.005 A 
ATOM      4  C   UNL     1       7.544  -2.285   0.564  0.00  0.00    +0.141 A 
ATOM      5  N   UNL     1       7.679  -2.092  -0.753  0.00  0.00    -0.211 N 
ATOM      6  N   UNL     1       6.957  -0.914  -0.993  0.00  0.00    -0.148 NA
ATOM      7  C   UNL     1       6.481  -0.451   0.139  0.00  0.00    +0.170 A 
ATOM      8  N   UNL     1       6.901  -1.239   1.158  0.00  0.00    -0.310 N 
ATOM      9  C   UNL     1       6.912  -1.064   2.625  0.00  0.00    +0.125 C 
ATOM     10  C   UNL     1       8.324  -1.456   3.081  0.00  0.00    +0.022 C 
ATOM     11  C   UNL     1       8.580  -2.950   3.322  0.00  0.00    +0.006 C 
ATOM     12  C   UNL     1       7.817  -3.901   2.413  0.00  0.00    +0.039 C 
ENDROOT
BRANCH   2  13
ATOM     13  C   UNL     1       9.325  -5.367  -0.208  0.00  0.00    -0.015 A 
ATOM     14  C   UNL     1      10.511  -5.557   0.501  0.00  0.00    +0.008 A 
ATOM     15  C   UNL     1      11.160  -6.773   0.440  0.00  0.00    +0.001 A 
ATOM     16  C   UNL     1      10.644  -7.798  -0.333  0.00  0.00    +0.000 A 
ATOM     17  C   UNL     1       9.471  -7.613  -1.043  0.00  0.00    +0.001 A 
ATOM     18  C   UNL     1       8.809  -6.404  -0.985  0.00  0.00    +0.008 A 
ENDBRANCH   2  13
BRANCH   1  19
ATOM     19  C   UNL     1       8.910  -3.322  -2.526  0.00  0.00    +0.103 C 
ATOM     20  S   UNL     1       9.823  -4.711  -2.937  0.00  0.00    -0.033 S 
BRANCH  19  21
ATOM     21  N   UNL     1       8.656  -2.383  -3.459  0.00  0.00    -0.304 N 
ATOM     22  H   UNL     1       8.073  -1.636  -3.249  0.00  0.00    +0.153 HD
BRANCH  21  28
ATOM     23  C   UNL     1       8.462  -2.250  -5.867  0.00  0.00    +0.141 A 
ATOM     24  C   UNL     1       9.038  -2.352  -7.123  0.00  0.00    +0.047 A 
ATOM     25  C   UNL     1      10.373  -2.687  -7.247  0.00  0.00    +0.004 A 
ATOM     26  C   UNL     1      11.139  -2.921  -6.119  0.00  0.00    +0.002 A 
ATOM     27  C   UNL     1      10.573  -2.816  -4.862  0.00  0.00    +0.027 A 
ATOM     28  C   UNL     1       9.232  -2.485  -4.731  0.00  0.00    +0.074 A 
BRANCH  23  30
ATOM     29  C   UNL     1       6.421  -1.692  -6.954  0.00  0.00    +0.277 C 
ATOM     30  O   UNL     1       7.149  -1.919  -5.745  0.00  0.00    -0.493 OA
ENDBRANCH  23  30
ENDBRANCH  21  28
ENDBRANCH  19  21
ENDBRANCH   1  19
BRANCH   7  31
ATOM     31  C   UNL     1       5.610   0.771   0.284  0.00  0.00    +0.305 C 
BRANCH  31  32
ATOM     32  O   UNL     1       4.237   0.391   0.182  0.00  0.00    -0.484 OA
BRANCH  32  33
ATOM     33  C   UNL     1       3.313   1.382   0.292  0.00  0.00    +0.121 A 
ATOM     34  C   UNL     1       1.961   1.084   0.204  0.00  0.00    +0.045 A 
ATOM     35  C   UNL     1       1.024   2.093   0.315  0.00  0.00    +0.004 A 
ATOM     36  C   UNL     1       1.433   3.399   0.515  0.00  0.00    +0.000 A 
ATOM     37  C   UNL     1       2.779   3.698   0.604  0.00  0.00    +0.004 A 
ATOM     38  C   UNL     1       3.720   2.692   0.493  0.00  0.00    +0.045 A 
ENDBRANCH  32  33
ENDBRANCH  31  32
ENDBRANCH   7  31
TORSDOF 8
