REMARK  Name = ZINC01329264
REMARK  10 active torsions:
REMARK  status: ('A' for Active; 'I' for Inactive)
REMARK    1  A    between atoms: C_1  and  C_2
REMARK    2  A    between atoms: C_2  and  C_3
REMARK    3  A    between atoms: C_2  and  C_4
REMARK    4  A    between atoms: C_2  and  C_5
REMARK    5  A    between atoms: C_8  and  S_11
REMARK    6  A    between atoms: S_11  and  N_14
REMARK    7  A    between atoms: N_14  and  C_15
REMARK    8  A    between atoms: N_14  and  C_32
REMARK    9  A    between atoms: C_15  and  C_16
REMARK   10  A    between atoms: C_32  and  C_33
REMARK                            x       y       z     vdW  Elec       q    Type
REMARK                         _______ _______ _______ _____ _____    ______ ____
ROOT
ATOM      1  N   UNL     1      -6.627  -0.895   1.424  0.00  0.00    -0.170 NA
ENDROOT
BRANCH   1   2
ATOM      2  S   UNL     1      -6.320  -2.283   2.274  0.00  0.00    +0.061 S 
ATOM      3  O   UNL     1      -7.317  -2.370   3.283  0.00  0.00    -0.153 OA
ATOM      4  O   UNL     1      -6.117  -3.310   1.314  0.00  0.00    -0.153 OA
BRANCH   2   8
ATOM      5  C   UNL     1      -2.369  -1.701   4.404  0.00  0.00    -0.042 A 
ATOM      6  C   UNL     1      -3.549  -1.338   5.026  0.00  0.00    +0.006 A 
ATOM      7  C   UNL     1      -4.756  -1.515   4.375  0.00  0.00    +0.029 A 
ATOM      8  C   UNL     1      -4.782  -2.056   3.103  0.00  0.00    +0.106 A 
ATOM      9  C   UNL     1      -3.602  -2.424   2.484  0.00  0.00    +0.029 A 
ATOM     10  C   UNL     1      -2.395  -2.242   3.133  0.00  0.00    +0.006 A 
BRANCH   5  12
ATOM     11  C   UNL     1      -1.050  -2.314   6.413  0.00  0.00    +0.015 C 
ATOM     12  C   UNL     1      -1.053  -1.507   5.114  0.00  0.00    -0.013 C 
ATOM     13  C   UNL     1       0.087  -1.986   4.213  0.00  0.00    +0.015 C 
ATOM     14  C   UNL     1      -0.861  -0.023   5.434  0.00  0.00    +0.015 C 
ENDBRANCH   5  12
ENDBRANCH   2   8
ENDBRANCH   1   2
BRANCH   1  15
ATOM     15  C   UNL     1      -6.152  -0.760   0.045  0.00  0.00    +0.150 C 
BRANCH  15  16
ATOM     16  C   UNL     1      -4.827  -0.043   0.039  0.00  0.00    +0.033 A 
ATOM     17  C   UNL     1      -3.672  -0.756   0.025  0.00  0.00    +0.020 A 
ATOM     18  C   UNL     1      -2.402  -0.031   0.019  0.00  0.00    +0.003 A 
ATOM     19  C   UNL     1      -1.180  -0.715   0.006  0.00  0.00    +0.059 A 
ATOM     20  C   UNL     1       0.002  -0.004   0.002  0.00  0.00    +0.163 A 
ATOM     21  C   UNL     1      -0.017   1.394   0.010  0.00  0.00    +0.164 A 
ATOM     22  C   UNL     1      -1.221   2.078   0.019  0.00  0.00    +0.075 A 
ATOM     23  C   UNL     1      -2.420   1.377   0.028  0.00  0.00    +0.053 A 
ATOM     24  N   UNL     1      -3.629   2.042   0.041  0.00  0.00    -0.322 N 
ATOM     25  H   UNL     1      -3.641   3.042   0.047  0.00  0.00    +0.169 HD
ATOM     26  C   UNL     1      -4.790   1.366   0.047  0.00  0.00    +0.254 A 
ATOM     27  O   UNL     1      -5.840   1.987   0.059  0.00  0.00    -0.268 OA
ATOM     28  O   UNL     1       1.145   2.102   0.002  0.00  0.00    -0.485 OA
ATOM     29  C   UNL     1       2.334   1.393   0.367  0.00  0.00    +0.270 C 
ATOM     30  C   UNL     1       2.348   0.057  -0.387  0.00  0.00    +0.270 C 
ATOM     31  O   UNL     1       1.183  -0.683  -0.008  0.00  0.00    -0.485 OA
ENDBRANCH  15  16
ENDBRANCH   1  15
BRANCH   1  32
ATOM     32  C   UNL     1      -7.375   0.198   2.052  0.00  0.00    +0.141 C 
BRANCH  32  33
ATOM     33  C   UNL     1      -8.855   0.080   1.685  0.00  0.00    +0.134 C 
ATOM     34  C   UNL     1      -9.650   1.271   2.264  0.00  0.00    +0.035 C 
ATOM     35  C   UNL     1     -10.998   0.650   2.693  0.00  0.00    +0.031 C 
ATOM     36  C   UNL     1     -10.859  -0.843   2.322  0.00  0.00    +0.160 C 
ATOM     37  O   UNL     1      -9.435  -1.089   2.304  0.00  0.00    -0.375 OA
ENDBRANCH  32  33
ENDBRANCH   1  32
TORSDOF 7
