REMARK  Name = ZINC41586161
REMARK  9 active torsions:
REMARK  status: ('A' for Active; 'I' for Inactive)
REMARK    1  A    between atoms: C_1  and  C_2
REMARK    2  A    between atoms: C_2  and  O_3
REMARK    3  A    between atoms: O_3  and  C_4
REMARK    4  A    between atoms: C_4  and  C_6
REMARK    5  A    between atoms: N_9  and  C_12
REMARK    6  A    between atoms: C_12  and  C_13
REMARK    7  A    between atoms: C_14  and  O_33
REMARK    8  A    between atoms: C_16  and  C_32
REMARK    9  A    between atoms: C_21  and  C_22
REMARK                            x       y       z     vdW  Elec       q    Type
REMARK                         _______ _______ _______ _____ _____    ______ ____
ROOT
ATOM      1  C   UNL     1      -5.122  -6.170  -1.447  0.00  0.00    +0.020 A 
ATOM      2  C   UNL     1      -4.582  -6.669  -2.622  0.00  0.00    +0.122 A 
ATOM      3  C   UNL     1      -4.139  -7.986  -2.694  0.00  0.00    +0.050 A 
ATOM      4  C   UNL     1      -4.232  -8.803  -1.602  0.00  0.00    -0.033 A 
ATOM      5  C   UNL     1      -4.773  -8.314  -0.412  0.00  0.00    +0.071 A 
ATOM      6  C   UNL     1      -5.218  -6.985  -0.326  0.00  0.00    +0.145 A 
ATOM      7  O   UNL     1      -5.691  -6.742   0.916  0.00  0.00    -0.451 OA
ATOM      8  C   UNL     1      -5.596  -7.833   1.713  0.00  0.00    +0.176 C 
ATOM      9  C   UNL     1      -5.982  -7.913   3.011  0.00  0.00    +0.059 C 
ATOM     10  C   UNL     1      -5.009  -8.918   0.911  0.00  0.00    +0.232 C 
ATOM     11  O   UNL     1      -4.762 -10.057   1.266  0.00  0.00    -0.283 OA
ATOM     12  C   UNL     1      -3.752 -10.229  -1.683  0.00  0.00    +0.045 C 
ENDROOT
BRANCH   9  13
ATOM     13  C   UNL     1      -5.975  -9.211   3.700  0.00  0.00    -0.003 A 
ATOM     14  C   UNL     1      -6.439 -10.358   3.045  0.00  0.00    +0.011 A 
ATOM     15  C   UNL     1      -6.430 -11.571   3.698  0.00  0.00    +0.020 A 
ATOM     16  C   UNL     1      -5.962 -11.658   5.000  0.00  0.00    +0.042 A 
ATOM     17  C   UNL     1      -5.501 -10.529   5.655  0.00  0.00    +0.040 A 
ATOM     18  C   UNL     1      -5.498  -9.307   5.013  0.00  0.00    +0.050 A 
ATOM     19 CL   UNL     1      -4.913  -7.894   5.834  0.00  0.00    -0.083 Cl
ATOM     20 CL   UNL     1      -5.955 -13.192   5.814  0.00  0.00    -0.083 Cl
ENDBRANCH   9  13
BRANCH   2  21
ATOM     21  O   UNL     1      -4.485  -5.866  -3.712  0.00  0.00    -0.506 OA
ATOM     22  H   UNL     1      -3.652  -5.377  -3.767  0.00  0.00    +0.292 HD
ENDBRANCH   2  21
BRANCH   1  23
ATOM     23  C   UNL     1      -5.598  -4.741  -1.384  0.00  0.00    -0.036 C 
BRANCH  23  27
ATOM     24  C   UNL     1      -3.264  -1.894   0.761  0.00  0.00    +0.094 C 
ATOM     25  C   UNL     1      -3.746  -1.560  -0.653  0.00  0.00    -0.004 C 
ATOM     26  C   UNL     1      -4.920  -2.472  -1.015  0.00  0.00    -0.078 C 
ATOM     27  N   UNL     1      -4.490  -3.874  -0.961  0.00  0.00    +0.383 N 
ATOM     28  C   UNL     1      -4.094  -4.221   0.409  0.00  0.00    -0.078 C 
ATOM     29  C   UNL     1      -2.888  -3.377   0.825  0.00  0.00    -0.004 C 
ATOM     30  H   UNL     1      -3.705  -4.008  -1.581  0.00  0.00    -0.081 HD
BRANCH  24  31
ATOM     31  C   UNL     1      -2.058  -1.053   1.094  0.00  0.00    +0.310 C 
ATOM     32  O   UNL     1      -1.005  -1.585   1.356  0.00  0.00    -0.251 OA
BRANCH  31  33
ATOM     33  O   UNL     1      -2.154   0.286   1.100  0.00  0.00    -0.465 OA
BRANCH  33  35
ATOM     34  C   UNL     1      -1.273   2.519   1.380  0.00  0.00    +0.048 C 
ATOM     35  C   UNL     1      -0.971   1.019   1.424  0.00  0.00    +0.229 C 
ENDBRANCH  33  35
ENDBRANCH  31  33
ENDBRANCH  24  31
ENDBRANCH  23  27
ENDBRANCH   1  23
TORSDOF 7
