REMARK  Name = ZINC09292337
REMARK  5 active torsions:
REMARK  status: ('A' for Active; 'I' for Inactive)
REMARK    1  A    between atoms: C_1  and  O_2
REMARK    2  A    between atoms: O_2  and  C_3
REMARK    3  A    between atoms: C_10  and  C_14
REMARK    4  A    between atoms: N_15  and  N_16
REMARK    5  A    between atoms: C_19  and  C_26
REMARK                            x       y       z     vdW  Elec       q    Type
REMARK                         _______ _______ _______ _____ _____    ______ ____
ROOT
ATOM      1  N   UNL     1       1.866   2.968  -2.217  0.00  0.00    -0.220 N 
ATOM      2  C   UNL     1       3.111   3.539  -2.027  0.00  0.00    +0.150 A 
ATOM      3  C   UNL     1       3.653   3.665  -0.720  0.00  0.00    +0.057 A 
ATOM      4  C   UNL     1       3.086   3.270   0.565  0.00  0.00    +0.002 A 
ATOM      5  C   UNL     1       3.800   3.502   1.692  0.00  0.00    +0.056 A 
ATOM      6  S   UNL     1       5.295   4.262   1.087  0.00  0.00    -0.076 S 
ATOM      7  C   UNL     1       4.929   4.261  -0.648  0.00  0.00    +0.114 A 
ATOM      8  N   UNL     1       5.560   4.668  -1.732  0.00  0.00    -0.228 NA
ATOM      9  C   UNL     1       5.006   4.524  -2.921  0.00  0.00    +0.224 A 
ATOM     10  N   UNL     1       3.814   3.974  -3.062  0.00  0.00    -0.219 NA
ATOM     11  H   UNL     1       1.519   2.334  -1.570  0.00  0.00    +0.176 HD
ENDROOT
BRANCH   4  12
ATOM     12  C   UNL     1       1.750   2.631   0.636  0.00  0.00    -0.017 A 
ATOM     13  C   UNL     1       0.635   3.281   0.109  0.00  0.00    +0.008 A 
ATOM     14  C   UNL     1      -0.606   2.682   0.177  0.00  0.00    +0.001 A 
ATOM     15  C   UNL     1      -0.745   1.438   0.767  0.00  0.00    +0.000 A 
ATOM     16  C   UNL     1       0.358   0.788   1.292  0.00  0.00    +0.001 A 
ATOM     17  C   UNL     1       1.604   1.378   1.230  0.00  0.00    +0.008 A 
ENDBRANCH   4  12
BRANCH   1  19
ATOM     18  C   UNL     1      -0.065   2.771  -3.522  0.00  0.00    +0.141 C 
ATOM     19  N   UNL     1       1.104   3.307  -3.344  0.00  0.00    -0.189 NA
BRANCH  18  27
ATOM     20  C   UNL     1      -4.785   2.779  -7.439  0.00  0.00    +0.121 A 
ATOM     21  C   UNL     1      -4.223   3.700  -8.328  0.00  0.00    +0.048 A 
ATOM     22  C   UNL     1      -2.994   4.236  -8.098  0.00  0.00    +0.032 A 
ATOM     23  C   UNL     1      -2.271   3.864  -6.952  0.00  0.00    +0.073 A 
ATOM     24  C   UNL     1      -2.841   2.930  -6.050  0.00  0.00    +0.005 A 
ATOM     25  C   UNL     1      -4.112   2.394  -6.315  0.00  0.00    +0.055 A 
ATOM     26  C   UNL     1      -2.116   2.553  -4.906  0.00  0.00    +0.022 A 
ATOM     27  C   UNL     1      -0.866   3.127  -4.707  0.00  0.00    +0.032 A 
ATOM     28  C   UNL     1      -0.369   4.048  -5.650  0.00  0.00    +0.139 A 
ATOM     29  N   UNL     1      -1.060   4.380  -6.711  0.00  0.00    -0.235 NA
ATOM     30 CL   UNL     1       1.196   4.757  -5.400  0.00  0.00    -0.061 Cl
BRANCH  20  32
ATOM     31  C   UNL     1      -6.669   2.703  -8.887  0.00  0.00    +0.277 C 
ATOM     32  O   UNL     1      -6.015   2.261  -7.696  0.00  0.00    -0.495 OA
ENDBRANCH  20  32
ENDBRANCH  18  27
ENDBRANCH   1  19
TORSDOF 4
