REMARK  Name = ZINC59251492
REMARK  7 active torsions:
REMARK  status: ('A' for Active; 'I' for Inactive)
REMARK    1  A    between atoms: C_1  and  C_2
REMARK    2  A    between atoms: C_2  and  C_3
REMARK    3  A    between atoms: C_2  and  C_4
REMARK    4  A    between atoms: C_2  and  N_22
REMARK    5  A    between atoms: C_4  and  N_5
REMARK    6  A    between atoms: C_6  and  C_8
REMARK    7  A    between atoms: C_11  and  C_16
REMARK                            x       y       z     vdW  Elec       q    Type
REMARK                         _______ _______ _______ _____ _____    ______ ____
ROOT
ATOM      1  N   UNL     1      -1.976  -1.301  -0.402  0.00  0.00    -0.312 N 
ATOM      2  C   UNL     1      -3.284  -1.511  -0.650  0.00  0.00    +0.249 C 
ATOM      3  O   UNL     1      -4.032  -0.566  -0.815  0.00  0.00    -0.270 OA
ATOM      4  H   UNL     1      -1.367  -2.053  -0.345  0.00  0.00    +0.149 HD
ENDROOT
BRANCH   2   5
ATOM      5  C   UNL     1      -3.808  -2.882  -0.722  0.00  0.00    +0.101 A 
ATOM      6  C   UNL     1      -5.178  -3.109  -0.859  0.00  0.00    +0.020 A 
ATOM      7  C   UNL     1      -5.644  -4.416  -0.924  0.00  0.00    +0.027 A 
ATOM      8  C   UNL     1      -4.752  -5.470  -0.853  0.00  0.00    +0.049 A 
ATOM      9  N   UNL     1      -3.413  -5.244  -0.719  0.00  0.00    -0.321 N 
ATOM     10  H   UNL     1      -2.804  -5.997  -0.671  0.00  0.00    +0.169 HD
ATOM     11  C   UNL     1      -2.926  -3.991  -0.659  0.00  0.00    +0.261 A 
ATOM     12  O   UNL     1      -1.726  -3.809  -0.545  0.00  0.00    -0.267 OA
BRANCH   8  13
ATOM     13  C   UNL     1      -5.255  -6.857  -0.923  0.00  0.00    -0.002 A 
ATOM     14  C   UNL     1      -6.622  -7.101  -1.065  0.00  0.00    +0.010 A 
ATOM     15  C   UNL     1      -7.085  -8.399  -1.130  0.00  0.00    +0.001 A 
ATOM     16  C   UNL     1      -6.197  -9.458  -1.054  0.00  0.00    +0.000 A 
ATOM     17  C   UNL     1      -4.840  -9.223  -0.912  0.00  0.00    +0.001 A 
ATOM     18  C   UNL     1      -4.363  -7.930  -0.852  0.00  0.00    +0.010 A 
ENDBRANCH   8  13
ENDBRANCH   2   5
BRANCH   1  19
ATOM     19  C   UNL     1      -1.476   0.064  -0.220  0.00  0.00    +0.092 C 
BRANCH  19  21
ATOM     20  C   UNL     1       0.554   1.448   0.237  0.00  0.00    -0.008 C 
ATOM     21  C   UNL     1       0.031   0.022   0.046  0.00  0.00    -0.055 C 
ATOM     22  C   UNL     1       0.303  -0.794   1.311  0.00  0.00    -0.008 C 
BRANCH  21  23
ATOM     23  N   UNL     1       0.713  -0.601  -1.095  0.00  0.00    +0.387 N 
ATOM     24  C   UNL     1       2.169  -0.512  -0.907  0.00  0.00    -0.073 C 
ATOM     25  C   UNL     1       2.850  -1.421  -1.931  0.00  0.00    +0.017 C 
ATOM     26  C   UNL     1       2.318  -1.125  -3.310  0.00  0.00    -0.048 A 
ATOM     27  C   UNL     1       3.030  -1.579  -4.409  0.00  0.00    +0.004 A 
ATOM     28  C   UNL     1       2.572  -1.329  -5.687  0.00  0.00    +0.000 A 
ATOM     29  C   UNL     1       1.398  -0.623  -5.872  0.00  0.00    +0.000 A 
ATOM     30  C   UNL     1       0.689  -0.170  -4.778  0.00  0.00    +0.002 A 
ATOM     31  C   UNL     1       1.148  -0.418  -3.493  0.00  0.00    -0.061 A 
ATOM     32  C   UNL     1       0.347   0.102  -2.329  0.00  0.00    -0.042 C 
ATOM     33  H   UNL     1       0.439  -1.569  -1.165  0.00  0.00    -0.080 HD
ENDBRANCH  21  23
ENDBRANCH  19  21
ENDBRANCH   1  19
TORSDOF 5
