REMARK  Name = ZINC38603847
REMARK  15 active torsions:
REMARK  status: ('A' for Active; 'I' for Inactive)
REMARK    1  A    between atoms: C_1  and  C_2
REMARK    2  A    between atoms: C_2  and  C_3
REMARK    3  A    between atoms: C_3  and  C_4
REMARK    4  A    between atoms: C_4  and  C_5
REMARK    5  A    between atoms: C_5  and  N_6
REMARK    6  A    between atoms: C_10  and  C_11
REMARK    7  A    between atoms: N_13  and  C_27
REMARK    8  A    between atoms: C_15  and  C_16
REMARK    9  A    between atoms: C_19  and  O_23
REMARK   10  A    between atoms: C_21  and  C_22
REMARK   11  A    between atoms: O_23  and  C_24
REMARK   12  A    between atoms: C_24  and  C_25
REMARK   13  A    between atoms: C_24  and  C_26
REMARK   14  A    between atoms: C_33  and  C_39
REMARK   15  A    between atoms: C_34  and  C_37
REMARK                            x       y       z     vdW  Elec       q    Type
REMARK                         _______ _______ _______ _____ _____    ______ ____
ROOT
ATOM      1  C   UNL     1       3.779  -7.330  -0.093  0.00  0.00    +0.021 A 
ATOM      2  C   UNL     1       2.603  -8.067  -0.185  0.00  0.00    +0.123 A 
ATOM      3  N   UNL     1       2.874  -9.319   0.211  0.00  0.00    -0.239 N 
ATOM      4  N   UNL     1       4.221  -9.425   0.565  0.00  0.00    -0.166 NA
ATOM      5  C   UNL     1       4.808  -8.263   0.395  0.00  0.00    +0.101 A 
ENDROOT
BRANCH   1  10
ATOM      6  N   UNL     1       2.389  -3.539  -2.733  0.00  0.00    -0.234 N 
ATOM      7  C   UNL     1       2.938  -4.042  -1.613  0.00  0.00    +0.253 C 
ATOM      8  O   UNL     1       3.065  -3.335  -0.631  0.00  0.00    -0.270 OA
ATOM      9  C   UNL     1       3.384  -5.442  -1.570  0.00  0.00    +0.042 C 
ATOM     10  C   UNL     1       3.953  -5.965  -0.411  0.00  0.00    +0.025 C 
ATOM     11  C   UNL     1       3.229  -6.250  -2.719  0.00  0.00    -0.016 C 
ATOM     12  C   UNL     1       2.659  -5.694  -3.853  0.00  0.00    +0.117 C 
ATOM     13  C   UNL     1       2.229  -4.293  -3.834  0.00  0.00    +0.264 C 
ATOM     14  O   UNL     1       1.723  -3.806  -4.829  0.00  0.00    -0.269 OA
ATOM     15  C   UNL     1       3.676  -7.689  -2.711  0.00  0.00    +0.046 C 
BRANCH  12  16
ATOM     16  C   UNL     1       2.487  -6.484  -5.035  0.00  0.00    +0.105 C 
ATOM     17  N   UNL     1       2.351  -7.111  -5.973  0.00  0.00    -0.191 NA
ENDBRANCH  12  16
BRANCH   6  18
ATOM     18  C   UNL     1       1.951  -2.141  -2.752  0.00  0.00    +0.117 C 
BRANCH  18  19
ATOM     19  C   UNL     1       0.494  -2.057  -2.293  0.00  0.00    +0.019 C 
BRANCH  19  20
ATOM     20  C   UNL     1       0.036  -0.597  -2.312  0.00  0.00    +0.001 C 
BRANCH  20  22
ATOM     21  C   UNL     1      -1.878   0.948  -1.873  0.00  0.00    +0.004 C 
ATOM     22  C   UNL     1      -1.421  -0.512  -1.853  0.00  0.00    -0.003 C 
ENDBRANCH  20  22
ENDBRANCH  19  20
ENDBRANCH  18  19
ENDBRANCH   6  18
ENDBRANCH   1  10
BRANCH   5  23
ATOM     23  C   UNL     1       6.233  -7.949   0.650  0.00  0.00    +0.006 A 
ATOM     24  C   UNL     1       6.712  -6.655   0.439  0.00  0.00    +0.014 A 
ATOM     25  C   UNL     1       8.039  -6.367   0.677  0.00  0.00    +0.046 A 
ATOM     26  C   UNL     1       8.898  -7.361   1.125  0.00  0.00    +0.121 A 
ATOM     27  C   UNL     1       8.424  -8.649   1.335  0.00  0.00    +0.049 A 
ATOM     28  C   UNL     1       7.097  -8.944   1.106  0.00  0.00    -0.038 A 
ATOM     29  C   UNL     1       6.582 -10.341   1.341  0.00  0.00    +0.044 C 
BRANCH  26  30
ATOM     30  O   UNL     1      10.205  -7.073   1.359  0.00  0.00    -0.489 OA
BRANCH  30  31
ATOM     31  C   UNL     1      10.632  -5.735   1.095  0.00  0.00    +0.167 C 
ATOM     32  C   UNL     1      10.456  -4.887   2.356  0.00  0.00    +0.051 C 
ATOM     33  C   UNL     1      12.106  -5.741   0.686  0.00  0.00    +0.051 C 
ENDBRANCH  30  31
ENDBRANCH  26  30
ENDBRANCH   5  23
BRANCH   3  34
ATOM     34  C   UNL     1       1.944 -10.366   0.261  0.00  0.00    +0.065 A 
ATOM     35  C   UNL     1       0.628 -10.146  -0.122  0.00  0.00    +0.028 A 
ATOM     36  C   UNL     1      -0.286 -11.181  -0.071  0.00  0.00    +0.002 A 
ATOM     37  C   UNL     1       0.108 -12.434   0.360  0.00  0.00    +0.000 A 
ATOM     38  C   UNL     1       1.419 -12.656   0.742  0.00  0.00    +0.002 A 
ATOM     39  C   UNL     1       2.339 -11.627   0.689  0.00  0.00    +0.028 A 
ENDBRANCH   3  34
TORSDOF 10
