REMARK  Name = ZINC59199807
REMARK  15 active torsions:
REMARK  status: ('A' for Active; 'I' for Inactive)
REMARK    1  A    between atoms: C_1  and  C_2
REMARK    2  A    between atoms: C_5  and  C_7
REMARK    3  A    between atoms: C_7  and  N_8
REMARK    4  A    between atoms: N_8  and  C_9
REMARK    5  A    between atoms: N_8  and  C_19
REMARK    6  A    between atoms: C_11  and  C_17
REMARK    7  A    between atoms: C_11  and  C_18
REMARK    8  A    between atoms: C_13  and  C_15
REMARK    9  A    between atoms: C_13  and  C_16
REMARK   10  A    between atoms: C_19  and  N_21
REMARK   11  A    between atoms: N_21  and  C_22
REMARK   12  A    between atoms: C_25  and  O_30
REMARK   13  A    between atoms: C_27  and  O_28
REMARK   14  A    between atoms: O_28  and  C_29
REMARK   15  A    between atoms: O_30  and  C_31
REMARK                            x       y       z     vdW  Elec       q    Type
REMARK                         _______ _______ _______ _____ _____    ______ ____
ROOT
ATOM      1  N   UNL     1       1.803  -3.667  -1.411  0.00  0.00    -0.302 N 
ENDROOT
BRANCH   1   2
ATOM      2  C   UNL     1       2.955  -3.056  -2.086  0.00  0.00    +0.073 C 
ATOM      3  C   UNL     1       4.211  -3.289  -1.244  0.00  0.00    +0.009 C 
ATOM      4  C   UNL     1       5.419  -2.649  -1.927  0.00  0.00    -0.072 C 
ATOM      5  N   UNL     1       5.199  -1.241  -2.223  0.00  0.00    +0.386 N 
ATOM      6  C   UNL     1       3.937  -0.871  -2.844  0.00  0.00    -0.072 C 
ATOM      7  C   UNL     1       2.730  -1.550  -2.204  0.00  0.00    +0.009 C 
ATOM      8  C   UNL     1       3.758   0.655  -2.656  0.00  0.00    -0.010 C 
ATOM      9  C   UNL     1       3.948  -1.136  -4.351  0.00  0.00    -0.010 C 
ATOM     10  C   UNL     1       5.806  -3.445  -3.173  0.00  0.00    -0.010 C 
ATOM     11  C   UNL     1       6.605  -2.739  -0.939  0.00  0.00    -0.010 C 
ATOM     12  H   UNL     1       5.298  -0.712  -1.353  0.00  0.00    -0.084 HD
ATOM     13  H   UNL     1       5.961  -0.916  -2.823  0.00  0.00    -0.084 HD
ENDBRANCH   1   2
BRANCH   1  14
ATOM     14  C   UNL     1       1.015  -4.535  -2.076  0.00  0.00    +0.138 C 
ATOM     15  S   UNL     1      -0.401  -5.147  -1.335  0.00  0.00    -0.018 S 
BRANCH  14  16
ATOM     16  N   UNL     1       1.343  -4.922  -3.325  0.00  0.00    -0.294 N 
ATOM     17  H   UNL     1       0.895  -4.525  -4.089  0.00  0.00    +0.154 HD
BRANCH  16  18
ATOM     18  C   UNL     1       2.331  -5.899  -3.520  0.00  0.00    +0.075 A 
ATOM     19  C   UNL     1       2.892  -6.547  -2.430  0.00  0.00    +0.030 A 
ATOM     20  C   UNL     1       3.865  -7.509  -2.622  0.00  0.00    +0.047 A 
ATOM     21  C   UNL     1       4.283  -7.829  -3.905  0.00  0.00    +0.124 A 
ATOM     22  C   UNL     1       3.725  -7.184  -4.999  0.00  0.00    +0.093 A 
ATOM     23  C   UNL     1       2.745  -6.224  -4.810  0.00  0.00    +0.145 A 
BRANCH  23  24
ATOM     24  O   UNL     1       2.192  -5.595  -5.881  0.00  0.00    -0.493 OA
ATOM     25  C   UNL     1       2.665  -5.978  -7.174  0.00  0.00    +0.277 C 
ENDBRANCH  23  24
BRANCH  21  26
ATOM     26  O   UNL     1       5.241  -8.775  -4.091  0.00  0.00    -0.495 OA
ATOM     27  C   UNL     1       5.773  -9.399  -2.921  0.00  0.00    +0.277 C 
ENDBRANCH  21  26
ENDBRANCH  16  18
ENDBRANCH  14  16
ENDBRANCH   1  14
BRANCH   1  28
ATOM     28  C   UNL     1       1.508  -3.331  -0.016  0.00  0.00    +0.181 C 
BRANCH  28  33
ATOM     29  C   UNL     1      -0.118   1.440   0.166  0.00  0.00    +0.086 C 
ATOM     30  C   UNL     1      -0.121  -0.066   0.110  0.00  0.00    +0.102 A 
ATOM     31  C   UNL     1      -1.215  -0.850   0.085  0.00  0.00    +0.045 A 
ATOM     32  C   UNL     1      -0.759  -2.187   0.034  0.00  0.00    +0.046 A 
ATOM     33  C   UNL     1       0.586  -2.141   0.031  0.00  0.00    +0.122 A 
ATOM     34  O   UNL     1       0.966  -0.853   0.071  0.00  0.00    -0.463 OA
ENDBRANCH  28  33
ENDBRANCH   1  28
TORSDOF 8
