REMARK  Name = ZINC18270730
REMARK  10 active torsions:
REMARK  status: ('A' for Active; 'I' for Inactive)
REMARK    1  A    between atoms: C_1  and  C_2
REMARK    2  A    between atoms: C_2  and  O_3
REMARK    3  A    between atoms: O_3  and  C_4
REMARK    4  A    between atoms: C_5  and  O_28
REMARK    5  A    between atoms: C_7  and  C_11
REMARK    6  A    between atoms: C_14  and  C_27
REMARK    7  A    between atoms: C_15  and  C_25
REMARK    8  A    between atoms: C_19  and  C_22
REMARK    9  A    between atoms: C_20  and  C_21
REMARK   10  A    between atoms: O_28  and  C_29
REMARK                            x       y       z     vdW  Elec       q    Type
REMARK                         _______ _______ _______ _____ _____    ______ ____
ROOT
ATOM      1  C   UNL     1      -1.549  -6.119  -0.062  0.00  0.00    +0.017 C 
ATOM      2  C   UNL     1      -1.797  -6.731  -1.277  0.00  0.00    -0.011 C 
ATOM      3  C   UNL     1      -1.943  -6.051  -2.580  0.00  0.00    +0.013 A 
ATOM      4  C   UNL     1      -1.887  -4.720  -2.973  0.00  0.00    -0.020 A 
ATOM      5  C   UNL     1      -2.076  -4.422  -4.327  0.00  0.00    +0.095 A 
ATOM      6  C   UNL     1      -2.314  -5.474  -5.233  0.00  0.00    +0.135 A 
ATOM      7  N   UNL     1      -2.360  -6.728  -4.823  0.00  0.00    -0.230 NA
ATOM      8  C   UNL     1      -2.186  -7.053  -3.544  0.00  0.00    +0.092 A 
ATOM      9  C   UNL     1      -2.189  -8.344  -2.836  0.00  0.00    +0.081 C 
ATOM     10  C   UNL     1      -1.949  -8.118  -1.496  0.00  0.00    -0.023 C 
ATOM     11  C   UNL     1      -1.867  -9.182  -0.432  0.00  0.00    +0.046 C 
ATOM     12  N   UNL     1      -2.502  -5.188  -6.575  0.00  0.00    -0.342 N 
ATOM     13  C   UNL     1      -1.629  -3.627  -1.969  0.00  0.00    +0.046 C 
ATOM     14  H   UNL     1      -2.470  -4.270  -6.885  0.00  0.00    +0.144 HD
ATOM     15  H   UNL     1      -2.667  -5.907  -7.206  0.00  0.00    +0.144 HD
ENDROOT
BRANCH   1  19
ATOM     16  C   UNL     1       0.983  -2.724   0.121  0.00  0.00    +0.176 A 
ATOM     17  C   UNL     1      -0.181  -2.765   0.890  0.00  0.00    +0.163 A 
ATOM     18  C   UNL     1      -1.008  -3.866   0.834  0.00  0.00    +0.057 A 
ATOM     19  C   UNL     1      -0.676  -4.947   0.002  0.00  0.00    -0.020 A 
ATOM     20  C   UNL     1       0.495  -4.899  -0.768  0.00  0.00    +0.027 A 
ATOM     21  C   UNL     1       1.311  -3.791  -0.709  0.00  0.00    +0.064 A 
ATOM     22 BR   UNL     1       2.886  -3.723  -1.753  0.00  0.00    -0.046 Br
BRANCH  17  23
ATOM     23  O   UNL     1      -0.499  -1.716   1.696  0.00  0.00    -0.491 OA
ATOM     24  C   UNL     1      -1.705  -1.824   2.455  0.00  0.00    +0.277 C 
ENDBRANCH  17  23
BRANCH  16  25
ATOM     25  O   UNL     1       1.795  -1.638   0.178  0.00  0.00    -0.487 OA
BRANCH  25  27
ATOM     26  C   UNL     1       3.637  -0.356   1.075  0.00  0.00    +0.048 C 
ATOM     27  C   UNL     1       2.833  -1.654   1.161  0.00  0.00    +0.226 C 
ENDBRANCH  25  27
ENDBRANCH  16  25
ENDBRANCH   1  19
BRANCH   9  28
ATOM     28  C   UNL     1      -2.399  -9.625  -3.440  0.00  0.00    +0.102 C 
ATOM     29  N   UNL     1      -2.566 -10.642  -3.919  0.00  0.00    -0.191 NA
ENDBRANCH   9  28
BRANCH   5  30
ATOM     30  C   UNL     1      -2.027  -3.066  -4.785  0.00  0.00    +0.103 C 
ATOM     31  N   UNL     1      -1.988  -1.990  -5.149  0.00  0.00    -0.191 NA
ENDBRANCH   5  30
TORSDOF 6
