REMARK  Name = ZINC53246365
REMARK  7 active torsions:
REMARK  status: ('A' for Active; 'I' for Inactive)
REMARK    1  A    between atoms: C_1  and  C_2
REMARK    2  A    between atoms: C_2  and  C_4
REMARK    3  A    between atoms: C_2  and  N_12
REMARK    4  A    between atoms: C_4  and  C_6
REMARK    5  A    between atoms: N_12  and  C_13
REMARK    6  A    between atoms: N_12  and  C_14
REMARK    7  A    between atoms: N_19  and  C_21
REMARK                            x       y       z     vdW  Elec       q    Type
REMARK                         _______ _______ _______ _____ _____    ______ ____
ROOT
ATOM      1  C   UNL     1       0.286   1.121   0.674  0.00  0.00    +0.032 C 
ATOM      2  C   UNL     1      -0.047  -0.274   0.143  0.00  0.00    +0.125 C 
ENDROOT
BRANCH   2   3
ATOM      3  C   UNL     1       0.268  -1.302   1.199  0.00  0.00    +0.186 C 
ATOM      4  O   UNL     1       1.250  -2.009   1.085  0.00  0.00    -0.290 OA
BRANCH   3   5
ATOM      5  C   UNL     1      -0.577  -1.444   2.320  0.00  0.00    +0.058 A 
ATOM      6  C   UNL     1      -0.465  -2.318   3.398  0.00  0.00    +0.020 A 
ATOM      7  C   UNL     1      -1.451  -2.222   4.346  0.00  0.00    +0.028 A 
ATOM      8  C   UNL     1      -2.445  -1.308   4.176  0.00  0.00    +0.079 A 
ATOM      9  S   UNL     1      -2.063  -0.548   2.727  0.00  0.00    -0.074 S 
ATOM     10 CL   UNL     1      -3.795  -0.995   5.221  0.00  0.00    -0.076 Cl
ENDBRANCH   3   5
ENDBRANCH   2   3
BRANCH   2  11
ATOM     11  N   UNL     1       0.753  -0.545  -1.058  0.00  0.00    -0.295 NA
ATOM     12  C   UNL     1       2.167  -0.213  -0.835  0.00  0.00    +0.105 C 
BRANCH  11  13
ATOM     13  C   UNL     1       0.220   0.178  -2.221  0.00  0.00    +0.040 C 
ATOM     14  C   UNL     1      -1.221  -0.268  -2.483  0.00  0.00    +0.015 C 
ATOM     15  C   UNL     1      -1.741   0.433  -3.742  0.00  0.00    -0.017 C 
ATOM     16  C   UNL     1      -0.813   0.115  -4.916  0.00  0.00    -0.079 C 
ATOM     17  N   UNL     1       0.543   0.589  -4.614  0.00  0.00    +0.379 N 
ATOM     18  C   UNL     1       1.076  -0.130  -3.451  0.00  0.00    -0.060 C 
ATOM     19  C   UNL     1       1.412   0.352  -5.775  0.00  0.00    -0.096 C 
ATOM     20  H   UNL     1       0.516   1.577  -4.414  0.00  0.00    -0.082 HD
ENDBRANCH  11  13
ENDBRANCH   2  11
TORSDOF 4
