REMARK  Name = ZINC14242119
REMARK  11 active torsions:
REMARK  status: ('A' for Active; 'I' for Inactive)
REMARK    1  A    between atoms: C_1  and  C_2
REMARK    2  A    between atoms: C_2  and  C_4
REMARK    3  A    between atoms: C_2  and  N_25
REMARK    4  A    between atoms: C_4  and  O_6
REMARK    5  A    between atoms: O_6  and  C_7
REMARK    6  A    between atoms: C_7  and  C_9
REMARK    7  A    between atoms: C_7  and  C_10
REMARK    8  A    between atoms: C_22  and  C_23
REMARK    9  A    between atoms: C_22  and  C_24
REMARK   10  A    between atoms: N_25  and  S_26
REMARK   11  A    between atoms: S_26  and  C_29
REMARK                            x       y       z     vdW  Elec       q    Type
REMARK                         _______ _______ _______ _____ _____    ______ ____
ROOT
ATOM      1  C   UNL     1      -3.344   2.390  -1.942  0.00  0.00    +0.259 C 
ATOM      2  C   UNL     1      -3.369   1.141  -1.060  0.00  0.00    +0.062 C 
ENDROOT
BRANCH   1   3
ATOM      3  C   UNL     1      -3.150   3.611  -1.079  0.00  0.00    +0.261 C 
ATOM      4  O   UNL     1      -4.103   4.130  -0.539  0.00  0.00    -0.271 OA
ATOM      5  N   UNL     1      -1.916   4.125  -0.908  0.00  0.00    -0.252 N 
ATOM      6  C   UNL     1      -0.798   3.552  -1.536  0.00  0.00    +0.059 A 
ATOM      7  C   UNL     1      -0.760   2.201  -1.831  0.00  0.00    +0.025 A 
ATOM      8  C   UNL     1       0.360   1.663  -2.439  0.00  0.00    +0.002 A 
ATOM      9  C   UNL     1       1.433   2.474  -2.761  0.00  0.00    +0.002 A 
ATOM     10  C   UNL     1       1.398   3.826  -2.476  0.00  0.00    +0.025 A 
ATOM     11  C   UNL     1       0.282   4.373  -1.862  0.00  0.00    +0.055 A 
ATOM     12  N   UNL     1       0.223   5.740  -1.570  0.00  0.00    -0.282 N 
ATOM     13  C   UNL     1      -0.717   6.226  -0.738  0.00  0.00    +0.241 C 
ATOM     14  O   UNL     1      -0.777   7.420  -0.533  0.00  0.00    -0.273 OA
ATOM     15  C   UNL     1      -1.696   5.304  -0.057  0.00  0.00    +0.113 C 
ATOM     16  C   UNL     1      -1.130   4.862   1.294  0.00  0.00    +0.042 C 
ATOM     17  C   UNL     1      -3.024   6.035   0.156  0.00  0.00    +0.042 C 
ATOM     18  H   UNL     1       0.867   6.344  -1.971  0.00  0.00    +0.155 HD
ENDBRANCH   1   3
BRANCH   1  19
ATOM     19  O   UNL     1      -4.601   2.501  -2.660  0.00  0.00    -0.451 OA
BRANCH  19  20
ATOM     20  C   UNL     1      -4.672   1.903  -3.860  0.00  0.00    +0.326 C 
ATOM     21  O   UNL     1      -3.715   1.308  -4.296  0.00  0.00    -0.249 OA
BRANCH  20  23
ATOM     22  C   UNL     1      -6.279   3.439  -4.959  0.00  0.00    +0.037 C 
ATOM     23  C   UNL     1      -5.945   1.976  -4.664  0.00  0.00    +0.182 C 
BRANCH  23  24
ATOM     24  N   UNL     1      -5.768   1.251  -5.925  0.00  0.00    -0.176 NA
ATOM     25  H   UNL     1      -4.908   1.260  -6.373  0.00  0.00    +0.149 HD
BRANCH  24  26
ATOM     26  S   UNL     1      -7.036   0.416  -6.585  0.00  0.00    +0.059 S 
ATOM     27  O   UNL     1      -6.563  -0.148  -7.801  0.00  0.00    -0.153 OA
ATOM     28  O   UNL     1      -7.588  -0.376  -5.542  0.00  0.00    -0.153 OA
BRANCH  26  29
ATOM     29  C   UNL     1      -8.267   1.599  -7.024  0.00  0.00    +0.105 A 
ATOM     30  C   UNL     1      -9.245   1.948  -6.112  0.00  0.00    +0.031 A 
ATOM     31  C   UNL     1     -10.207   2.880  -6.454  0.00  0.00    +0.040 A 
ATOM     32  C   UNL     1     -10.198   3.454  -7.714  0.00  0.00    +0.124 A 
ATOM     33  C   UNL     1      -9.220   3.099  -8.628  0.00  0.00    +0.040 A 
ATOM     34  C   UNL     1      -8.256   2.172  -8.282  0.00  0.00    +0.031 A 
ATOM     35  F   UNL     1     -11.141   4.361  -8.050  0.00  0.00    -0.205 F 
ENDBRANCH  26  29
ENDBRANCH  24  26
ENDBRANCH  23  24
ENDBRANCH  20  23
ENDBRANCH  19  20
ENDBRANCH   1  19
TORSDOF 7
