REMARK  Name = ZINC31818147
REMARK  5 active torsions:
REMARK  status: ('A' for Active; 'I' for Inactive)
REMARK    1  A    between atoms: C_1  and  S_2
REMARK    2  A    between atoms: S_2  and  C_3
REMARK    3  A    between atoms: C_11  and  C_18
REMARK    4  A    between atoms: C_13  and  C_16
REMARK    5  A    between atoms: C_14  and  N_15
REMARK                            x       y       z     vdW  Elec       q    Type
REMARK                         _______ _______ _______ _____ _____    ______ ____
ROOT
ATOM      1  C   UNL     1      -1.044   2.037   6.055  0.00  0.00    +0.160 A 
ATOM      2  N   UNL     1      -0.985   1.272   4.974  0.00  0.00    -0.133 NA
ATOM      3  N   UNL     1      -0.853   1.759   3.819  0.00  0.00    -0.124 NA
ATOM      4  C   UNL     1      -0.764   3.063   3.614  0.00  0.00    +0.194 A 
ATOM      5  S   UNL     1      -0.880   3.653   5.300  0.00  0.00    -0.024 S 
ATOM      6  N   UNL     1      -0.616   3.775   2.425  0.00  0.00    -0.237 N 
ATOM      7  C   UNL     1      -0.664   3.112   1.226  0.00  0.00    +0.026 C 
ATOM      8  C   UNL     1      -0.910   3.782   0.080  0.00  0.00    +0.025 C 
ATOM      9  C   UNL     1      -1.160   5.269   0.089  0.00  0.00    +0.097 C 
ATOM     10  C   UNL     1      -0.669   5.893   1.362  0.00  0.00    +0.077 C 
ATOM     11  C   UNL     1      -0.424   5.138   2.464  0.00  0.00    +0.108 C 
ATOM     12  C   UNL     1      -0.945   3.113  -1.156  0.00  0.00    +0.162 C 
ATOM     13  O   UNL     1      -1.178   3.744  -2.169  0.00  0.00    -0.292 OA
ATOM     14  C   UNL     1      -0.698   1.632  -1.250  0.00  0.00    +0.080 C 
ATOM     15  C   UNL     1       0.216   1.204  -0.097  0.00  0.00    +0.014 C 
ATOM     16  C   UNL     1      -0.435   1.621   1.224  0.00  0.00    +0.052 C 
ENDROOT
BRANCH   9  17
ATOM     17  C   UNL     1      -2.639   5.522  -0.048  0.00  0.00    -0.034 A 
ATOM     18  C   UNL     1      -3.515   5.015   0.903  0.00  0.00    +0.006 A 
ATOM     19  C   UNL     1      -4.870   5.239   0.800  0.00  0.00    +0.026 A 
ATOM     20  C   UNL     1      -5.370   5.971  -0.273  0.00  0.00    +0.046 A 
ATOM     21  C   UNL     1      -4.479   6.478  -1.236  0.00  0.00    -0.000 A 
ATOM     22  C   UNL     1      -3.108   6.243  -1.109  0.00  0.00    +0.014 A 
ATOM     23  C   UNL     1      -5.303   7.189  -2.216  0.00  0.00    +0.027 A 
ATOM     24  C   UNL     1      -6.578   7.077  -1.811  0.00  0.00    +0.083 A 
ATOM     25  N   UNL     1      -6.637   6.353  -0.652  0.00  0.00    -0.361 N 
ATOM     26  H   UNL     1      -7.505   6.065  -0.039  0.00  0.00    +0.165 HD
ENDBRANCH   9  17
BRANCH  11  27
ATOM     27  N   UNL     1       0.018   5.735   3.620  0.00  0.00    -0.345 N 
ATOM     28  H   UNL     1       0.172   6.824   3.653  0.00  0.00    +0.144 HD
ATOM     29  H   UNL     1       0.217   5.124   4.514  0.00  0.00    +0.144 HD
ENDBRANCH  11  27
BRANCH   1  31
ATOM     30  C   UNL     1      -1.317  -0.220   7.721  0.00  0.00    +0.092 C 
ATOM     31  S   UNL     1      -1.223   1.592   7.750  0.00  0.00    -0.100 S 
ENDBRANCH   1  31
BRANCH  10  32
ATOM     32  C   UNL     1      -0.457   7.308   1.417  0.00  0.00    +0.099 C 
ATOM     33  N   UNL     1      -0.288   8.430   1.460  0.00  0.00    -0.191 NA
ENDBRANCH  10  32
TORSDOF 4
