REMARK  Name = ZINC19892855
REMARK  5 active torsions:
REMARK  status: ('A' for Active; 'I' for Inactive)
REMARK    1  A    between atoms: C_1  and  O_2
REMARK    2  A    between atoms: O_2  and  C_3
REMARK    3  A    between atoms: C_3  and  C_5
REMARK    4  A    between atoms: C_12  and  C_21
REMARK    5  A    between atoms: C_25  and  N_27
REMARK                            x       y       z     vdW  Elec       q    Type
REMARK                         _______ _______ _______ _____ _____    ______ ____
ROOT
ATOM      1  C   UNL     1       1.221   0.942  -0.280  0.00  0.00    +0.080 A 
ATOM      2  C   UNL     1       2.139  -0.093  -0.448  0.00  0.00    +0.017 A 
ATOM      3  C   UNL     1       1.702  -1.397  -0.530  0.00  0.00    +0.001 A 
ATOM      4  C   UNL     1       0.348  -1.678  -0.437  0.00  0.00    +0.006 A 
ATOM      5  C   UNL     1      -0.573  -0.668  -0.265  0.00  0.00    -0.019 A 
ATOM      6  C   UNL     1      -0.160   0.666  -0.197  0.00  0.00    +0.045 A 
ATOM      7  N   UNL     1      -1.023   1.742  -0.073  0.00  0.00    -0.336 N 
ATOM      8  C   UNL     1      -2.448   1.433   0.123  0.00  0.00    +0.105 C 
ATOM      9  C   UNL     1      -2.775   0.253  -0.768  0.00  0.00    +0.029 C 
ATOM     10  C   UNL     1      -2.018  -0.950  -0.123  0.00  0.00    +0.049 C 
ATOM     11  C   UNL     1      -2.671  -2.129  -0.741  0.00  0.00    -0.023 C 
ATOM     12  C   UNL     1      -3.922  -1.804  -1.050  0.00  0.00    -0.030 C 
ATOM     13  C   UNL     1      -4.186  -0.341  -0.686  0.00  0.00    +0.033 C 
ATOM     14  H   UNL     1      -0.687   2.788  -0.116  0.00  0.00    +0.147 HD
ENDROOT
BRANCH   8  15
ATOM     15  C   UNL     1      -2.702   1.074   1.565  0.00  0.00    -0.025 A 
ATOM     16  C   UNL     1      -1.671   0.590   2.349  0.00  0.00    +0.005 A 
ATOM     17  C   UNL     1      -1.904   0.261   3.671  0.00  0.00    +0.003 A 
ATOM     18  C   UNL     1      -3.168   0.417   4.209  0.00  0.00    +0.033 A 
ATOM     19  C   UNL     1      -4.198   0.902   3.426  0.00  0.00    +0.127 A 
ATOM     20  C   UNL     1      -3.964   1.235   2.104  0.00  0.00    +0.038 A 
BRANCH  19  21
ATOM     21  N   UNL     1      -5.551   1.069   4.003  0.00  0.00    +0.056 N 
ATOM     22  O   UNL     1      -5.756   0.780   5.168  0.00  0.00    -0.126 OA
ATOM     23  O   UNL     1      -6.459   1.497   3.312  0.00  0.00    -0.126 OA
ENDBRANCH  19  21
ENDBRANCH   8  15
BRANCH   1  24
ATOM     24  C   UNL     1       1.695   2.334  -0.190  0.00  0.00    +0.341 C 
ATOM     25  O   UNL     1       0.898   3.239  -0.043  0.00  0.00    -0.245 OA
BRANCH  24  27
ATOM     26  C   UNL     1       3.409   3.996  -0.172  0.00  0.00    +0.280 C 
ATOM     27  O   UNL     1       3.014   2.602  -0.269  0.00  0.00    -0.464 OA
ENDBRANCH  24  27
ENDBRANCH   1  24
TORSDOF 4
