REMARK  Name = ZINC26894603
REMARK  3 active torsions:
REMARK  status: ('A' for Active; 'I' for Inactive)
REMARK    1  A    between atoms: C_1  and  C_2
REMARK    2  A    between atoms: C_5  and  C_8
REMARK    3  A    between atoms: C_11  and  C_19
REMARK                            x       y       z     vdW  Elec       q    Type
REMARK                         _______ _______ _______ _____ _____    ______ ____
ROOT
ATOM      1  C   UNL     1       2.823  -2.128   1.913  0.00  0.00    +0.143 C 
ATOM      2  C   UNL     1       1.500  -2.704   1.395  0.00  0.00    +0.058 C 
ATOM      3  C   UNL     1       1.229  -2.185  -0.022  0.00  0.00    +0.106 C 
ATOM      4  N   UNL     1       2.306  -2.661  -0.912  0.00  0.00    -0.307 N 
ATOM      5  C   UNL     1       3.598  -2.572  -0.413  0.00  0.00    +0.215 A 
ATOM      6  N   UNL     1       3.854  -2.324   0.895  0.00  0.00    -0.226 N 
ATOM      7  N   UNL     1       5.243  -2.301   1.029  0.00  0.00    -0.156 NA
ATOM      8  C   UNL     1       5.742  -2.531  -0.160  0.00  0.00    +0.247 A 
ATOM      9  N   UNL     1       4.741  -2.695  -1.032  0.00  0.00    -0.202 NA
ATOM     10  H   UNL     1       2.061  -3.057  -1.908  0.00  0.00    +0.149 HD
ENDROOT
BRANCH   1  15
ATOM     11  C   UNL     1       4.350  -4.853   6.775  0.00  0.00    +0.044 C 
ATOM     12  C   UNL     1       3.951  -4.142   5.508  0.00  0.00    -0.050 A 
ATOM     13  C   UNL     1       3.737  -2.777   5.518  0.00  0.00    +0.004 A 
ATOM     14  C   UNL     1       3.372  -2.125   4.355  0.00  0.00    +0.006 A 
ATOM     15  C   UNL     1       3.221  -2.839   3.181  0.00  0.00    -0.023 A 
ATOM     16  C   UNL     1       3.429  -4.205   3.171  0.00  0.00    +0.006 A 
ATOM     17  C   UNL     1       3.799  -4.856   4.334  0.00  0.00    +0.004 A 
ENDBRANCH   1  15
BRANCH   3  18
ATOM     18  C   UNL     1       1.208  -0.678  -0.013  0.00  0.00    -0.026 A 
ATOM     19  C   UNL     1       2.396   0.029  -0.021  0.00  0.00    +0.005 A 
ATOM     20  C   UNL     1       2.378   1.411  -0.013  0.00  0.00    +0.001 A 
ATOM     21  C   UNL     1       1.172   2.087   0.002  0.00  0.00    +0.015 A 
ATOM     22  C   UNL     1      -0.017   1.379   0.010  0.00  0.00    +0.018 A 
ATOM     23  C   UNL     1       0.002  -0.004   0.002  0.00  0.00    +0.020 A 
ATOM     24 BR   UNL     1      -1.667   2.303   0.022  0.00  0.00    -0.050 Br
ENDBRANCH   3  18
TORSDOF 2
