REMARK  Name = ZINC51667559
REMARK  6 active torsions:
REMARK  status: ('A' for Active; 'I' for Inactive)
REMARK    1  A    between atoms: C_3  and  C_18
REMARK    2  A    between atoms: C_6  and  C_7
REMARK    3  A    between atoms: C_7  and  N_8
REMARK    4  A    between atoms: N_8  and  S_9
REMARK    5  A    between atoms: S_9  and  C_12
REMARK    6  A    between atoms: C_18  and  N_20
REMARK                            x       y       z     vdW  Elec       q    Type
REMARK                         _______ _______ _______ _____ _____    ______ ____
ROOT
ATOM      1  C   UNL     1      -1.295  -0.772   0.011  0.00  0.00    +0.141 C 
ENDROOT
BRANCH   1   7
ATOM      2  C   UNL     1      -0.017   1.379   0.010  0.00  0.00    +0.005 A 
ATOM      3  C   UNL     1       1.167   2.088   0.002  0.00  0.00    +0.010 A 
ATOM      4  C   UNL     1       2.385   1.407  -0.013  0.00  0.00    +0.003 A 
ATOM      5  C   UNL     1       2.397   0.010  -0.021  0.00  0.00    +0.010 A 
ATOM      6  C   UNL     1       1.206  -0.686  -0.013  0.00  0.00    +0.005 A 
ATOM      7  C   UNL     1       0.002  -0.004   0.002  0.00  0.00    -0.032 A 
BRANCH   4   8
ATOM      8  C   UNL     1       3.655   2.159  -0.022  0.00  0.00    +0.077 C 
ATOM      9  S   UNL     1       3.782   3.636   0.835  0.00  0.00    -0.035 S 
BRANCH   8  10
ATOM     10  N   UNL     1       4.716   1.683  -0.704  0.00  0.00    -0.352 N 
ATOM     11  H   UNL     1       4.644   0.846  -1.189  0.00  0.00    +0.143 HD
ATOM     12  H   UNL     1       5.551   2.177  -0.710  0.00  0.00    +0.143 HD
ENDBRANCH   8  10
ENDBRANCH   4   8
ENDBRANCH   1   7
BRANCH   1  13
ATOM     13  N   UNL     1      -1.729  -1.013  -1.368  0.00  0.00    -0.185 NA
ATOM     14  H   UNL     1      -1.327  -0.515  -2.097  0.00  0.00    +0.148 HD
BRANCH  13  15
ATOM     15  S   UNL     1      -2.904  -2.137  -1.681  0.00  0.00    +0.065 S 
ATOM     16  O   UNL     1      -3.119  -2.119  -3.085  0.00  0.00    -0.153 OA
ATOM     17  O   UNL     1      -2.534  -3.317  -0.982  0.00  0.00    -0.153 OA
BRANCH  15  18
ATOM     18  C   UNL     1      -4.392  -1.556  -0.936  0.00  0.00    +0.143 A 
ATOM     19  C   UNL     1      -5.362  -0.773  -1.467  0.00  0.00    +0.037 A 
ATOM     20  C   UNL     1      -6.454  -0.438  -0.688  0.00  0.00    +0.025 A 
ATOM     21  C   UNL     1      -6.522  -0.905   0.584  0.00  0.00    +0.057 A 
ATOM     22  S   UNL     1      -5.015  -1.853   0.710  0.00  0.00    -0.062 S 
ATOM     23 BR   UNL     1      -7.868  -0.628   1.883  0.00  0.00    -0.043 Br
ENDBRANCH  15  18
ENDBRANCH  13  15
ENDBRANCH   1  13
TORSDOF 6
