REMARK  Name = ZINC07495819
REMARK  7 active torsions:
REMARK  status: ('A' for Active; 'I' for Inactive)
REMARK    1  A    between atoms: C_1  and  C_2
REMARK    2  A    between atoms: C_6  and  N_8
REMARK    3  A    between atoms: C_10  and  C_21
REMARK    4  A    between atoms: C_16  and  C_20
REMARK    5  A    between atoms: C_24  and  C_27
REMARK    6  A    between atoms: C_27  and  C_28
REMARK    7  A    between atoms: C_27  and  C_29
REMARK                            x       y       z     vdW  Elec       q    Type
REMARK                         _______ _______ _______ _____ _____    ______ ____
ROOT
ATOM      1  N   UNL     1      -5.958   1.522   3.458  0.00  0.00    -0.289 N 
ATOM      2  C   UNL     1      -4.777   2.228   3.484  0.00  0.00    +0.166 C 
ATOM      3  C   UNL     1      -3.018   3.413   4.611  0.00  0.00    +0.220 C 
ATOM      4  N   UNL     1      -2.146   2.914   3.543  0.00  0.00    -0.255 N 
ATOM      5  C   UNL     1      -0.810   2.871   3.688  0.00  0.00    +0.257 A 
ATOM      6  O   UNL     1      -0.283   3.214   4.733  0.00  0.00    -0.267 OA
ATOM      7  C   UNL     1      -0.033   2.420   2.603  0.00  0.00    +0.093 A 
ATOM      8  C   UNL     1      -0.660   2.035   1.454  0.00  0.00    +0.047 A 
ATOM      9  N   UNL     1      -1.990   2.088   1.365  0.00  0.00    -0.221 NA
ATOM     10  C   UNL     1      -2.719   2.499   2.375  0.00  0.00    +0.207 A 
ATOM     11  N   UNL     1      -4.099   2.530   2.307  0.00  0.00    -0.259 N 
ATOM     12  C   UNL     1       0.152   1.555   0.279  0.00  0.00    +0.066 C 
ATOM     13  H   UNL     1      -6.371   1.298   2.609  0.00  0.00    +0.155 HD
ATOM     14  H   UNL     1      -4.568   2.748   1.487  0.00  0.00    +0.158 HD
ATOM     15  N   UNL     1      -4.295   2.617   4.675  0.00  0.00    -0.336 N 
ATOM     16  H   UNL     1      -4.761   2.390   5.561  0.00  0.00    +0.164 HD
ENDROOT
BRANCH   1  22
ATOM     17  C   UNL     1     -10.045   0.584   6.024  0.00  0.00    +0.044 C 
ATOM     18  C   UNL     1      -8.543   0.664   5.927  0.00  0.00    -0.049 A 
ATOM     19  C   UNL     1      -7.763   0.348   7.024  0.00  0.00    +0.003 A 
ATOM     20  C   UNL     1      -6.384   0.420   6.939  0.00  0.00    +0.002 A 
ATOM     21  C   UNL     1      -5.783   0.804   5.756  0.00  0.00    +0.023 A 
ATOM     22  C   UNL     1      -6.564   1.128   4.655  0.00  0.00    +0.034 A 
ATOM     23  C   UNL     1      -7.948   1.054   4.743  0.00  0.00    +0.026 A 
ENDBRANCH   1  22
BRANCH   3  24
ATOM     24  C   UNL     1      -3.333   4.866   4.367  0.00  0.00    -0.005 A 
ATOM     25  C   UNL     1      -2.418   5.673   3.718  0.00  0.00    +0.008 A 
ATOM     26  C   UNL     1      -2.710   7.004   3.489  0.00  0.00    +0.004 A 
ATOM     27  C   UNL     1      -3.913   7.532   3.920  0.00  0.00    -0.045 A 
ATOM     28  C   UNL     1      -4.826   6.727   4.574  0.00  0.00    +0.004 A 
ATOM     29  C   UNL     1      -4.536   5.394   4.798  0.00  0.00    +0.008 A 
BRANCH  27  30
ATOM     30  C   UNL     1      -4.228   8.985   3.677  0.00  0.00    +0.013 C 
ATOM     31  C   UNL     1      -3.175   9.858   4.363  0.00  0.00    +0.012 C 
ATOM     32  C   UNL     1      -4.220   9.264   2.172  0.00  0.00    +0.012 C 
ENDBRANCH  27  30
ENDBRANCH   3  24
TORSDOF 3
