REMARK  Name = ZINC11285524
REMARK  9 active torsions:
REMARK  status: ('A' for Active; 'I' for Inactive)
REMARK    1  A    between atoms: C_1  and  C_2
REMARK    2  A    between atoms: C_3  and  C_12
REMARK    3  A    between atoms: C_5  and  C_7
REMARK    4  A    between atoms: C_12  and  N_13
REMARK    5  A    between atoms: C_16  and  C_20
REMARK    6  A    between atoms: C_16  and  C_21
REMARK    7  A    between atoms: C_24  and  C_27
REMARK    8  A    between atoms: C_27  and  C_28
REMARK    9  A    between atoms: C_27  and  C_29
REMARK                            x       y       z     vdW  Elec       q    Type
REMARK                         _______ _______ _______ _____ _____    ______ ____
ROOT
ATOM      1  N   UNL     1       0.383   2.224   3.156  0.00  0.00    -0.218 N 
ATOM      2  C   UNL     1      -0.006   1.105   2.512  0.00  0.00    +0.251 C 
ATOM      3  O   UNL     1       0.184  -0.041   2.857  0.00  0.00    -0.272 OA
ATOM      4  C   UNL     1      -0.729   1.579   1.267  0.00  0.00    +0.135 C 
ATOM      5  N   UNL     1      -0.657   3.047   1.362  0.00  0.00    -0.281 N 
ATOM      6  C   UNL     1       0.010   3.327   2.497  0.00  0.00    +0.310 C 
ATOM      7  O   UNL     1       0.247   4.455   2.881  0.00  0.00    -0.252 OA
ATOM      8  C   UNL     1      -0.013   1.086   0.008  0.00  0.00    +0.047 C 
ATOM      9  H   UNL     1      -1.019   3.688   0.730  0.00  0.00    +0.152 HD
ENDROOT
BRANCH   4  10
ATOM     10  C   UNL     1      -2.162   1.114   1.276  0.00  0.00    -0.015 A 
ATOM     11  C   UNL     1      -2.494  -0.092   1.865  0.00  0.00    +0.006 A 
ATOM     12  C   UNL     1      -3.809  -0.517   1.878  0.00  0.00    +0.004 A 
ATOM     13  C   UNL     1      -4.792   0.260   1.293  0.00  0.00    -0.045 A 
ATOM     14  C   UNL     1      -4.460   1.464   0.700  0.00  0.00    +0.004 A 
ATOM     15  C   UNL     1      -3.145   1.890   0.691  0.00  0.00    +0.006 A 
BRANCH  13  16
ATOM     16  C   UNL     1      -6.225  -0.205   1.302  0.00  0.00    +0.013 C 
ATOM     17  C   UNL     1      -6.331  -1.546   0.573  0.00  0.00    +0.012 C 
ATOM     18  C   UNL     1      -6.697  -0.373   2.748  0.00  0.00    +0.012 C 
ENDBRANCH  13  16
ENDBRANCH   4  10
BRANCH   1  19
ATOM     19  C   UNL     1       1.123   2.231   4.420  0.00  0.00    +0.177 C 
BRANCH  19  22
ATOM     20  C   UNL     1       2.921  -0.306   4.107  0.00  0.00    +0.088 C 
ATOM     21  C   UNL     1       3.375   1.127   4.001  0.00  0.00    +0.127 A 
ATOM     22  C   UNL     1       2.603   2.220   4.136  0.00  0.00    +0.101 A 
ATOM     23  N   UNL     1       3.385   3.299   3.978  0.00  0.00    -0.212 NA
ATOM     24  C   UNL     1       4.615   2.896   3.744  0.00  0.00    +0.234 A 
ATOM     25  O   UNL     1       4.631   1.551   3.751  0.00  0.00    -0.440 OA
BRANCH  24  26
ATOM     26  C   UNL     1       5.776   3.768   3.515  0.00  0.00    +0.074 A 
ATOM     27  C   UNL     1       7.091   3.421   3.265  0.00  0.00    +0.021 A 
ATOM     28  C   UNL     1       8.010   4.428   3.082  0.00  0.00    +0.008 A 
ATOM     29  C   UNL     1       7.601   5.722   3.152  0.00  0.00    +0.046 A 
ATOM     30  S   UNL     1       5.855   5.552   3.480  0.00  0.00    -0.092 S 
ENDBRANCH  24  26
ENDBRANCH  19  22
ENDBRANCH   1  19
TORSDOF 5
