REMARK  Name = ZINC43231561
REMARK  7 active torsions:
REMARK  status: ('A' for Active; 'I' for Inactive)
REMARK    1  A    between atoms: C_1  and  C_2
REMARK    2  A    between atoms: C_2  and  N_9
REMARK    3  A    between atoms: N_9  and  N_10
REMARK    4  A    between atoms: N_13  and  C_14
REMARK    5  A    between atoms: C_14  and  C_15
REMARK    6  A    between atoms: C_15  and  C_17
REMARK    7  A    between atoms: C_15  and  N_22
REMARK                            x       y       z     vdW  Elec       q    Type
REMARK                         _______ _______ _______ _____ _____    ______ ____
ROOT
ATOM      1  N   UNL     1      -2.056  -0.080  -0.962  0.00  0.00    -0.234 N 
ATOM      2  C   UNL     1      -3.325  -0.489  -1.158  0.00  0.00    +0.313 C 
ATOM      3  O   UNL     1      -3.900  -0.209  -2.192  0.00  0.00    -0.252 OA
ATOM      4  N   UNL     1      -3.956  -1.207  -0.208  0.00  0.00    -0.300 N 
ATOM      5  H   UNL     1      -1.601   0.437  -1.645  0.00  0.00    +0.171 HD
ATOM      6  H   UNL     1      -3.497  -1.430   0.616  0.00  0.00    +0.150 HD
ENDROOT
BRANCH   1   7
ATOM      7  N   UNL     1      -1.409  -0.394   0.200  0.00  0.00    -0.232 NA
ATOM      8  H   UNL     1      -1.929  -0.071   1.002  0.00  0.00    +0.145 HD
BRANCH   7  10
ATOM      9  C   UNL     1      -0.120   1.668   0.052  0.00  0.00    +0.031 C 
ATOM     10  C   UNL     1      -0.043   0.147   0.205  0.00  0.00    +0.054 C 
ATOM     11  C   UNL     1       0.712  -0.428  -0.992  0.00  0.00    +0.047 C 
ATOM     12  C   UNL     1       2.234  -0.500  -0.684  0.00  0.00    +0.168 C 
ATOM     13  S   UNL     1       2.166  -1.043   1.080  0.00  0.00    -0.029 S 
ATOM     14  O   UNL     1       3.257  -0.471   1.788  0.00  0.00    -0.174 OA
ATOM     15  O   UNL     1       1.956  -2.448   1.129  0.00  0.00    -0.174 OA
ATOM     16  C   UNL     1       0.612  -0.180   1.561  0.00  0.00    +0.189 C 
ENDBRANCH   7  10
ENDBRANCH   1   7
BRANCH   4  17
ATOM     17  C   UNL     1      -5.335  -1.652  -0.422  0.00  0.00    +0.095 C 
BRANCH  17  18
ATOM     18  C   UNL     1      -5.776  -2.531   0.750  0.00  0.00    -0.013 C 
BRANCH  18  19
ATOM     19  N   UNL     1      -7.109  -3.083   0.475  0.00  0.00    +0.386 N 
ATOM     20  C   UNL     1      -7.063  -3.955  -0.727  0.00  0.00    -0.078 C 
ATOM     21  C   UNL     1      -8.307  -4.862  -0.554  0.00  0.00    -0.020 C 
ATOM     22  C   UNL     1      -8.341  -5.116   0.971  0.00  0.00    -0.020 C 
ATOM     23  C   UNL     1      -7.540  -3.955   1.589  0.00  0.00    -0.078 C 
ATOM     24  H   UNL     1      -7.774  -2.337   0.340  0.00  0.00    -0.081 HD
ENDBRANCH  18  19
BRANCH  18  25
ATOM     25  C   UNL     1      -5.825  -1.703   2.008  0.00  0.00    -0.022 A 
ATOM     26  C   UNL     1      -4.914  -1.613   3.007  0.00  0.00    +0.009 A 
ATOM     27  C   UNL     1      -5.173  -0.777   4.078  0.00  0.00    +0.008 A 
ATOM     28  C   UNL     1      -6.331  -0.073   4.097  0.00  0.00    +0.045 A 
ATOM     29  S   UNL     1      -7.096  -0.580   2.566  0.00  0.00    -0.103 S 
ENDBRANCH  18  25
ENDBRANCH  17  18
ENDBRANCH   4  17
TORSDOF 6
