REMARK  Name = ZINC23145363
REMARK  7 active torsions:
REMARK  status: ('A' for Active; 'I' for Inactive)
REMARK    1  A    between atoms: C_1  and  C_2
REMARK    2  A    between atoms: C_2  and  C_3
REMARK    3  A    between atoms: C_2  and  C_4
REMARK    4  A    between atoms: C_2  and  N_22
REMARK    5  A    between atoms: N_6  and  C_9
REMARK    6  A    between atoms: C_9  and  C_10
REMARK    7  A    between atoms: N_13  and  C_16
REMARK                            x       y       z     vdW  Elec       q    Type
REMARK                         _______ _______ _______ _____ _____    ______ ____
ROOT
ATOM      1  C   UNL     1      -0.025   1.139  -0.020  0.00  0.00    +0.148 C 
ENDROOT
BRANCH   1   2
ATOM      2  C   UNL     1      -0.744   1.644   1.233  0.00  0.00    +0.007 C 
ATOM      3  C   UNL     1      -0.567   3.160   1.348  0.00  0.00    -0.013 C 
ATOM      4  C   UNL     1      -1.236   3.651   2.635  0.00  0.00    -0.078 C 
ATOM      5  N   UNL     1      -0.627   2.979   3.790  0.00  0.00    +0.382 N 
ATOM      6  C   UNL     1      -0.826   1.526   3.725  0.00  0.00    -0.078 C 
ATOM      7  C   UNL     1      -0.145   0.972   2.471  0.00  0.00    -0.013 C 
ATOM      8  H   UNL     1       0.455   3.172   3.758  0.00  0.00    -0.081 HD
BRANCH   5   9
ATOM      9  C   UNL     1      -1.148   3.526   5.051  0.00  0.00    -0.058 C 
ATOM     10  C   UNL     1      -0.443   2.842   6.234  0.00  0.00    -0.004 C 
ATOM     11  C   UNL     1      -0.773   3.645   7.524  0.00  0.00    +0.067 C 
ATOM     12  S   UNL     1      -0.650   5.370   6.889  0.00  0.00    -0.162 S 
ATOM     13  C   UNL     1      -0.891   5.052   5.094  0.00  0.00    +0.054 C 
ENDBRANCH   5   9
ENDBRANCH   1   2
BRANCH   1  16
ATOM     14  C   UNL     1      -1.033   2.705  -3.090  0.00  0.00    +0.071 A 
ATOM     15  C   UNL     1      -0.067   2.395  -2.193  0.00  0.00    +0.132 A 
ATOM     16  N   UNL     1      -0.676   1.690  -1.212  0.00  0.00    -0.251 N 
ATOM     17  N   UNL     1      -1.924   1.581  -1.507  0.00  0.00    -0.065 NA
ATOM     18  N   UNL     1      -2.170   2.181  -2.619  0.00  0.00    -0.136 NA
BRANCH  14  20
ATOM     19  C   UNL     1      -2.211   3.604  -5.078  0.00  0.00    -0.004 C 
ATOM     20  C   UNL     1      -0.861   3.486  -4.366  0.00  0.00    -0.030 C 
ATOM     21  C   UNL     1      -0.333   4.885  -4.041  0.00  0.00    -0.004 C 
BRANCH  20  22
ATOM     22  N   UNL     1       0.094   2.792  -5.240  0.00  0.00    +0.385 N 
ATOM     23  H   UNL     1       1.064   2.708  -4.729  0.00  0.00    -0.089 HD
ATOM     24  H   UNL     1       0.220   3.363  -6.173  0.00  0.00    -0.089 HD
ATOM     25  H   UNL     1      -0.286   1.787  -5.474  0.00  0.00    -0.089 HD
ENDBRANCH  20  22
ENDBRANCH  14  20
ENDBRANCH   1  16
TORSDOF 5
