REMARK  Name = ZINC39533669
REMARK  9 active torsions:
REMARK  status: ('A' for Active; 'I' for Inactive)
REMARK    1  A    between atoms: C_1  and  O_2
REMARK    2  A    between atoms: O_2  and  C_3
REMARK    3  A    between atoms: N_6  and  C_10
REMARK    4  A    between atoms: C_10  and  C_12
REMARK    5  A    between atoms: C_10  and  C_21
REMARK    6  A    between atoms: C_12  and  N_13
REMARK    7  A    between atoms: N_13  and  C_14
REMARK    8  A    between atoms: C_19  and  O_20
REMARK    9  A    between atoms: C_24  and  C_27
REMARK                            x       y       z     vdW  Elec       q    Type
REMARK                         _______ _______ _______ _____ _____    ______ ____
ROOT
ATOM      1  C   UNL     1       0.870  -4.135   2.320  0.00  0.00    -0.020 C 
ENDROOT
BRANCH   1   4
ATOM      2  C   UNL     1       0.290  -0.534   1.435  0.00  0.00    +0.169 C 
ATOM      3  C   UNL     1       0.168  -2.057   1.350  0.00  0.00    -0.030 C 
ATOM      4  N   UNL     1       1.002  -2.674   2.390  0.00  0.00    +0.389 N 
ATOM      5  C   UNL     1       2.406  -2.298   2.181  0.00  0.00    -0.062 C 
ATOM      6  C   UNL     1       2.547  -0.777   2.273  0.00  0.00    +0.065 C 
ATOM      7  N   UNL     1       1.696  -0.147   1.254  0.00  0.00    -0.295 NA
ATOM      8  H   UNL     1       2.017  -0.374   0.325  0.00  0.00    +0.124 HD
ATOM      9  H   UNL     1       0.699  -2.352   3.298  0.00  0.00    -0.081 HD
BRANCH   2  11
ATOM     10  C   UNL     1      -0.643   1.483   0.536  0.00  0.00    +0.196 C 
ATOM     11  O   UNL     1      -0.506   0.066   0.411  0.00  0.00    -0.367 OA
ENDBRANCH   2  11
ENDBRANCH   1   4
BRANCH   1  12
ATOM     12  C   UNL     1      -0.577  -4.518   2.497  0.00  0.00    -0.059 A 
ATOM     13  C   UNL     1      -1.359  -3.849   3.421  0.00  0.00    +0.002 A 
ATOM     14  C   UNL     1      -2.684  -4.196   3.587  0.00  0.00    +0.009 A 
ATOM     15  C   UNL     1      -3.234  -5.222   2.822  0.00  0.00    -0.018 A 
ATOM     16  C   UNL     1      -2.442  -5.893   1.893  0.00  0.00    +0.009 A 
ATOM     17  C   UNL     1      -1.119  -5.534   1.731  0.00  0.00    +0.002 A 
BRANCH  15  18
ATOM     18  C   UNL     1      -4.659  -5.600   2.996  0.00  0.00    -0.018 A 
ATOM     19  C   UNL     1      -5.453  -4.926   3.921  0.00  0.00    +0.008 A 
ATOM     20  C   UNL     1      -6.777  -5.281   4.079  0.00  0.00    +0.001 A 
ATOM     21  C   UNL     1      -7.316  -6.304   3.321  0.00  0.00    +0.000 A 
ATOM     22  C   UNL     1      -6.532  -6.978   2.401  0.00  0.00    +0.001 A 
ATOM     23  C   UNL     1      -5.208  -6.627   2.231  0.00  0.00    +0.008 A 
ENDBRANCH  15  18
ENDBRANCH   1  12
BRANCH   1  24
ATOM     24  C   UNL     1       1.707  -4.776   3.429  0.00  0.00    +0.091 C 
BRANCH  24  25
ATOM     25  N   UNL     1       1.639  -6.235   3.311  0.00  0.00    -0.342 N 
ATOM     26  H   UNL     1       1.178  -6.640   2.559  0.00  0.00    +0.146 HD
BRANCH  25  27
ATOM     27  C   UNL     1       2.240  -7.045   4.282  0.00  0.00    +0.069 A 
ATOM     28  C   UNL     1       2.894  -6.468   5.361  0.00  0.00    +0.026 A 
ATOM     29  C   UNL     1       3.486  -7.270   6.319  0.00  0.00    +0.002 A 
ATOM     30  C   UNL     1       3.427  -8.646   6.205  0.00  0.00    +0.004 A 
ATOM     31  C   UNL     1       2.776  -9.228   5.132  0.00  0.00    +0.047 A 
ATOM     32  C   UNL     1       2.176  -8.432   4.171  0.00  0.00    +0.138 A 
BRANCH  32  33
ATOM     33  O   UNL     1       1.532  -9.003   3.118  0.00  0.00    -0.505 OA
ATOM     34  H   UNL     1       2.098  -9.165   2.351  0.00  0.00    +0.292 HD
ENDBRANCH  32  33
ENDBRANCH  25  27
ENDBRANCH  24  25
ENDBRANCH   1  24
TORSDOF 8
