REMARK  Name = ZINC16101986
REMARK  8 active torsions:
REMARK  status: ('A' for Active; 'I' for Inactive)
REMARK    1  A    between atoms: C_1  and  C_2
REMARK    2  A    between atoms: C_14  and  O_32
REMARK    3  A    between atoms: C_18  and  C_31
REMARK    4  A    between atoms: C_23  and  C_30
REMARK    5  A    between atoms: C_24  and  C_25
REMARK    6  A    between atoms: C_24  and  O_29
REMARK    7  A    between atoms: C_25  and  C_27
REMARK    8  A    between atoms: C_27  and  O_28
REMARK                            x       y       z     vdW  Elec       q    Type
REMARK                         _______ _______ _______ _____ _____    ______ ____
ROOT
ATOM      1  C   UNL     1       0.007   1.061   0.008  0.00  0.00    +0.011 C 
ATOM      2  C   UNL     1      -0.724   1.560   1.256  0.00  0.00    +0.026 C 
ATOM      3  C   UNL     1      -0.719   3.113   1.292  0.00  0.00    +0.011 C 
ATOM      4  C   UNL     1      -0.556   3.420   2.786  0.00  0.00    +0.002 C 
ATOM      5  C   UNL     1       0.016   4.784   3.122  0.00  0.00    -0.004 C 
ATOM      6  C   UNL     1      -0.934   5.890   2.659  0.00  0.00    +0.004 C 
ATOM      7  C   UNL     1      -0.353   7.253   3.045  0.00  0.00    +0.004 C 
ATOM      8  C   UNL     1      -0.186   7.328   4.564  0.00  0.00    -0.002 C 
ATOM      9  C   UNL     1       0.406   8.687   4.944  0.00  0.00    +0.035 C 
ATOM     10  C   UNL     1       0.571   8.764   6.463  0.00  0.00    +0.115 C 
ATOM     11  C   UNL     1       1.508   7.649   6.932  0.00  0.00    +0.032 C 
ATOM     12  C   UNL     1       0.916   6.291   6.551  0.00  0.00    +0.010 C 
ATOM     13  C   UNL     1       0.753   6.214   5.032  0.00  0.00    -0.026 C 
ATOM     14  C   UNL     1       0.164   4.855   4.649  0.00  0.00    -0.001 C 
ATOM     15  C   UNL     1       1.053   3.735   5.179  0.00  0.00    +0.005 C 
ATOM     16  C   UNL     1       0.547   2.356   4.725  0.00  0.00    +0.010 C 
ATOM     17  C   UNL     1       0.503   2.368   3.210  0.00  0.00    +0.007 C 
ATOM     18  C   UNL     1       0.021   1.090   2.531  0.00  0.00    +0.134 C 
ATOM     19  C   UNL     1       1.874   2.762   2.656  0.00  0.00    +0.015 C 
ATOM     20  C   UNL     1       2.119   6.385   4.364  0.00  0.00    +0.012 C 
ENDROOT
BRANCH  18  21
ATOM     21  C   UNL     1      -0.919   0.338   3.437  0.00  0.00    +0.190 C 
ATOM     22  O   UNL     1      -2.093   0.621   3.458  0.00  0.00    -0.292 OA
BRANCH  21  23
ATOM     23  C   UNL     1      -0.395  -0.767   4.318  0.00  0.00    +0.233 C 
BRANCH  23  24
ATOM     24  O   UNL     1      -1.470  -1.322   5.077  0.00  0.00    -0.387 OA
ATOM     25  H   UNL     1      -1.205  -2.041   5.668  0.00  0.00    +0.210 HD
ENDBRANCH  23  24
ENDBRANCH  21  23
ENDBRANCH  18  21
BRANCH  18  26
ATOM     26  O   UNL     1       1.134   0.266   2.179  0.00  0.00    -0.380 OA
ATOM     27  H   UNL     1       0.891  -0.543   1.708  0.00  0.00    +0.211 HD
ENDBRANCH  18  26
BRANCH  10  28
ATOM     28  O   UNL     1      -0.705   8.608   7.089  0.00  0.00    -0.392 OA
ATOM     29  H   UNL     1      -0.676   8.646   8.055  0.00  0.00    +0.210 HD
ENDBRANCH  10  28
TORSDOF 5
