REMARK  Name = ZINC14164315
REMARK  4 active torsions:
REMARK  status: ('A' for Active; 'I' for Inactive)
REMARK    1  A    between atoms: C_6  and  C_7
REMARK    2  A    between atoms: C_17  and  C_19
REMARK    3  A    between atoms: C_26  and  C_28
REMARK    4  A    between atoms: C_28  and  N_29
REMARK                            x       y       z     vdW  Elec       q    Type
REMARK                         _______ _______ _______ _____ _____    ______ ____
ROOT
ATOM      1  C   UNL     1      -2.327  -0.514   0.144  0.00  0.00    +0.013 C 
ATOM      2  C   UNL     1      -1.052  -0.942   0.042  0.00  0.00    -0.024 C 
ATOM      3  C   UNL     1      -0.775  -2.403  -0.145  0.00  0.00    +0.037 C 
ATOM      4  C   UNL     1       0.671  -2.726  -0.464  0.00  0.00    +0.005 C 
ATOM      5  C   UNL     1       1.667  -1.789   0.214  0.00  0.00    +0.012 C 
ATOM      6  C   UNL     1       1.427  -0.371  -0.311  0.00  0.00    +0.066 C 
ATOM      7  C   UNL     1       0.006  -0.006   0.112  0.00  0.00    +0.068 C 
ATOM      8  N   UNL     1       0.007   1.223   0.496  0.00  0.00    -0.181 NA
ATOM      9  N   UNL     1       1.291   1.766   0.631  0.00  0.00    -0.184 N 
ATOM     10  C   UNL     1       2.267   0.667   0.454  0.00  0.00    +0.140 C 
ATOM     11  C   UNL     1       1.585   3.058   0.878  0.00  0.00    +0.253 C 
ATOM     12  O   UNL     1       2.742   3.409   0.974  0.00  0.00    -0.272 OA
ENDROOT
BRANCH   1  18
ATOM     13  C   UNL     1      -4.607  -1.281  -0.489  0.00  0.00    +0.011 A 
ATOM     14  C   UNL     1      -5.630  -2.202  -0.409  0.00  0.00    +0.039 A 
ATOM     15  C   UNL     1      -5.495  -3.325   0.392  0.00  0.00    +0.123 A 
ATOM     16  C   UNL     1      -4.329  -3.534   1.112  0.00  0.00    +0.039 A 
ATOM     17  C   UNL     1      -3.296  -2.624   1.036  0.00  0.00    +0.011 A 
ATOM     18  C   UNL     1      -3.426  -1.489   0.230  0.00  0.00    -0.025 A 
ATOM     19  F   UNL     1      -6.503  -4.220   0.470  0.00  0.00    -0.205 F 
ENDBRANCH   1  18
BRANCH  10  20
ATOM     20  C   UNL     1       3.447   1.118  -0.367  0.00  0.00    -0.024 A 
ATOM     21  C   UNL     1       3.276   2.062  -1.362  0.00  0.00    +0.008 A 
ATOM     22  C   UNL     1       4.359   2.481  -2.111  0.00  0.00    +0.038 A 
ATOM     23  C   UNL     1       5.613   1.946  -1.873  0.00  0.00    +0.123 A 
ATOM     24  C   UNL     1       5.783   0.997  -0.880  0.00  0.00    +0.038 A 
ATOM     25  C   UNL     1       4.700   0.584  -0.128  0.00  0.00    +0.008 A 
ATOM     26  F   UNL     1       6.671   2.351  -2.610  0.00  0.00    -0.205 F 
ENDBRANCH  10  20
BRANCH  11  27
ATOM     27  C   UNL     1       0.476   4.066   1.035  0.00  0.00    +0.215 C 
BRANCH  27  28
ATOM     28  N   UNL     1       1.052   5.388   1.294  0.00  0.00    -0.216 N 
ATOM     29  C   UNL     1       1.315   5.871   2.525  0.00  0.00    +0.241 C 
ATOM     30  O   UNL     1       1.127   5.314   3.586  0.00  0.00    -0.273 OA
ATOM     31  C   UNL     1       1.896   7.254   2.307  0.00  0.00    +0.202 C 
ATOM     32  N   UNL     1       1.886   7.407   0.842  0.00  0.00    -0.290 N 
ATOM     33  C   UNL     1       1.376   6.268   0.340  0.00  0.00    +0.309 C 
ATOM     34  O   UNL     1       1.227   6.061  -0.849  0.00  0.00    -0.252 OA
ATOM     35  H   UNL     1       2.188   8.179   0.338  0.00  0.00    +0.151 HD
ENDBRANCH  27  28
ENDBRANCH  11  27
TORSDOF 4
