REMARK  Name = ZINC20562330
REMARK  7 active torsions:
REMARK  status: ('A' for Active; 'I' for Inactive)
REMARK    1  A    between atoms: C_5  and  S_6
REMARK    2  A    between atoms: S_6  and  N_9
REMARK    3  A    between atoms: N_12  and  C_15
REMARK    4  A    between atoms: C_15  and  C_16
REMARK    5  A    between atoms: C_18  and  C_21
REMARK    6  A    between atoms: C_21  and  C_22
REMARK    7  A    between atoms: C_22  and  C_23
REMARK                            x       y       z     vdW  Elec       q    Type
REMARK                         _______ _______ _______ _____ _____    ______ ____
ROOT
ATOM      1  N   UNL     1       4.483  -0.617  -1.627  0.00  0.00    -0.180 NA
ATOM      2  C   UNL     1       4.299  -1.884  -2.352  0.00  0.00    +0.091 C 
ATOM      3  C   UNL     1       3.559  -1.584  -3.665  0.00  0.00    -0.061 C 
ATOM      4  N   UNL     1       4.286  -0.545  -4.406  0.00  0.00    +0.386 N 
ATOM      5  C   UNL     1       4.316   0.720  -3.659  0.00  0.00    -0.061 C 
ATOM      6  C   UNL     1       5.082   0.516  -2.348  0.00  0.00    +0.091 C 
ATOM      7  H   UNL     1       5.325  -0.886  -4.528  0.00  0.00    -0.081 HD
ENDROOT
BRANCH   1   8
ATOM      8  S   UNL     1       4.034  -0.474  -0.040  0.00  0.00    +0.067 S 
ATOM      9  O   UNL     1       4.814   0.579   0.509  0.00  0.00    -0.152 OA
ATOM     10  O   UNL     1       4.036  -1.787   0.503  0.00  0.00    -0.152 OA
BRANCH   8  15
ATOM     11  C   UNL     1       1.220  -0.657  -0.013  0.00  0.00    +0.037 A 
ATOM     12  C   UNL     1       0.002  -0.004   0.002  0.00  0.00    +0.025 A 
ATOM     13  C   UNL     1      -0.016   1.352   0.009  0.00  0.00    +0.057 A 
ATOM     14  S   UNL     1       1.725   1.745  -0.005  0.00  0.00    -0.062 S 
ATOM     15  C   UNL     1       2.360   0.076  -0.020  0.00  0.00    +0.144 A 
ATOM     16 BR   UNL     1      -1.501   2.523   0.023  0.00  0.00    -0.043 Br
ENDBRANCH   8  15
ENDBRANCH   1   8
BRANCH   4  17
ATOM     17  C   UNL     1       3.712  -0.353  -5.744  0.00  0.00    +0.002 C 
BRANCH  17  18
ATOM     18  C   UNL     1       3.470  -1.695  -6.385  0.00  0.00    +0.156 A 
ATOM     19  N   UNL     1       4.338  -2.379  -7.152  0.00  0.00    -0.198 NA
ATOM     20  C   UNL     1       3.716  -3.483  -7.489  0.00  0.00    +0.228 A 
ATOM     21  O   UNL     1       2.504  -3.434  -6.929  0.00  0.00    -0.338 OA
ATOM     22  N   UNL     1       2.383  -2.402  -6.302  0.00  0.00    -0.063 NA
BRANCH  20  23
ATOM     23  C   UNL     1       4.263  -4.595  -8.348  0.00  0.00    +0.108 C 
BRANCH  23  24
ATOM     24  C   UNL     1       4.964  -5.626  -7.461  0.00  0.00    +0.105 C 
BRANCH  24  25
ATOM     25  C   UNL     1       5.511  -6.737  -8.320  0.00  0.00    +0.216 C 
ATOM     26  O   UNL     1       5.356  -6.707  -9.522  0.00  0.00    -0.276 OA
ATOM     27  N   UNL     1       6.173  -7.765  -7.752  0.00  0.00    -0.301 N 
ATOM     28  C   UNL     1       6.438  -7.923  -6.314  0.00  0.00    +0.108 C 
ATOM     29  C   UNL     1       7.242  -9.228  -6.137  0.00  0.00    +0.020 C 
ATOM     30  C   UNL     1       7.880  -9.433  -7.537  0.00  0.00    +0.020 C 
ATOM     31  C   UNL     1       6.758  -8.912  -8.469  0.00  0.00    +0.108 C 
ENDBRANCH  24  25
ENDBRANCH  23  24
ENDBRANCH  20  23
ENDBRANCH  17  18
ENDBRANCH   4  17
TORSDOF 7
