REMARK  Name = ZINC40911052
REMARK  18 active torsions:
REMARK  status: ('A' for Active; 'I' for Inactive)
REMARK    1  A    between atoms: C_1  and  C_2
REMARK    2  A    between atoms: C_2  and  C_3
REMARK    3  A    between atoms: C_3  and  C_4
REMARK    4  A    between atoms: C_4  and  C_5
REMARK    5  A    between atoms: C_5  and  C_6
REMARK    6  A    between atoms: C_6  and  O_7
REMARK    7  A    between atoms: O_7  and  C_8
REMARK    8  A    between atoms: C_11  and  C_16
REMARK    9  A    between atoms: C_13  and  O_14
REMARK   10  A    between atoms: O_14  and  C_15
REMARK   11  A    between atoms: N_17  and  N_18
REMARK   12  A    between atoms: C_19  and  C_21
REMARK   13  A    between atoms: C_21  and  O_22
REMARK   14  A    between atoms: O_22  and  C_23
REMARK   15  A    between atoms: C_28  and  C_29
REMARK   16  A    between atoms: C_29  and  C_30
REMARK   17  A    between atoms: C_29  and  C_31
REMARK   18  A    between atoms: C_29  and  C_32
REMARK                            x       y       z     vdW  Elec       q    Type
REMARK                         _______ _______ _______ _____ _____    ______ ____
ROOT
ATOM      1  C   UNL     1       2.578 -10.063  -4.375  0.00  0.00    +0.138 C 
ATOM      2  N   UNL     1       2.077 -10.862  -3.483  0.00  0.00    -0.188 NA
ENDROOT
BRANCH   1   6
ATOM      3  C   UNL     1       2.251  -5.857  -3.871  0.00  0.00    +0.162 A 
ATOM      4  C   UNL     1       1.715  -6.713  -2.919  0.00  0.00    +0.050 A 
ATOM      5  C   UNL     1       1.819  -8.079  -3.079  0.00  0.00    +0.013 A 
ATOM      6  C   UNL     1       2.465  -8.603  -4.202  0.00  0.00    -0.002 A 
ATOM      7  C   UNL     1       3.004  -7.740  -5.160  0.00  0.00    +0.059 A 
ATOM      8  C   UNL     1       2.891  -6.373  -4.995  0.00  0.00    +0.162 A 
BRANCH   8   9
ATOM      9  O   UNL     1       3.410  -5.530  -5.928  0.00  0.00    -0.491 OA
ATOM     10  C   UNL     1       4.053  -6.128  -7.056  0.00  0.00    +0.277 C 
ENDBRANCH   8   9
BRANCH   3  11
ATOM     11  O   UNL     1       2.145  -4.511  -3.708  0.00  0.00    -0.488 OA
BRANCH  11  12
ATOM     12  C   UNL     1       1.476  -4.051  -2.532  0.00  0.00    +0.229 C 
BRANCH  12  13
ATOM     13  C   UNL     1       1.455  -2.521  -2.524  0.00  0.00    +0.041 C 
BRANCH  13  14
ATOM     14  C   UNL     1       0.739  -2.027  -1.265  0.00  0.00    +0.003 C 
BRANCH  14  15
ATOM     15  C   UNL     1       0.718  -0.497  -1.257  0.00  0.00    -0.000 C 
BRANCH  15  17
ATOM     16  C   UNL     1      -0.019   1.526   0.010  0.00  0.00    +0.004 C 
ATOM     17  C   UNL     1       0.002  -0.004   0.002  0.00  0.00    -0.003 C 
ENDBRANCH  15  17
ENDBRANCH  14  15
ENDBRANCH  13  14
ENDBRANCH  12  13
ENDBRANCH  11  12
ENDBRANCH   3  11
ENDBRANCH   1   6
BRANCH   2  18
ATOM     18  N   UNL     1       2.185 -12.250  -3.648  0.00  0.00    -0.204 N 
ATOM     19  C   UNL     1       1.665 -13.080  -2.722  0.00  0.00    +0.270 C 
ATOM     20  O   UNL     1       1.104 -12.626  -1.747  0.00  0.00    -0.270 OA
ATOM     21  H   UNL     1       2.633 -12.612  -4.428  0.00  0.00    +0.177 HD
BRANCH  19  22
ATOM     22  C   UNL     1       1.780 -14.572  -2.899  0.00  0.00    +0.326 C 
BRANCH  22  23
ATOM     23  O   UNL     1       1.157 -15.232  -1.796  0.00  0.00    -0.482 OA
BRANCH  23  24
ATOM     24  C   UNL     1       1.173 -16.591  -1.800  0.00  0.00    +0.125 A 
ATOM     25  C   UNL     1       1.781 -17.275  -2.843  0.00  0.00    +0.047 A 
ATOM     26  C   UNL     1       1.796 -18.656  -2.846  0.00  0.00    +0.019 A 
ATOM     27  C   UNL     1       1.205 -19.358  -1.810  0.00  0.00    +0.018 A 
ATOM     28  C   UNL     1       0.598 -18.678  -0.770  0.00  0.00    +0.023 A 
ATOM     29  C   UNL     1       0.586 -17.296  -0.760  0.00  0.00    +0.001 A 
ATOM     30 BR   UNL     1       1.228 -21.249  -1.817  0.00  0.00    -0.050 Br
BRANCH  29  31
ATOM     31  C   UNL     1      -0.069 -16.556   0.377  0.00  0.00    -0.009 C 
ATOM     32  C   UNL     1      -0.633 -17.562   1.383  0.00  0.00    +0.015 C 
ATOM     33  C   UNL     1       0.965 -15.667   1.071  0.00  0.00    +0.015 C 
ATOM     34  C   UNL     1      -1.205 -15.687  -0.167  0.00  0.00    +0.015 C 
ENDBRANCH  29  31
ENDBRANCH  23  24
ENDBRANCH  22  23
ENDBRANCH  19  22
ENDBRANCH   2  18
TORSDOF 13
