REMARK  Name = ZINC40147620
REMARK  8 active torsions:
REMARK  status: ('A' for Active; 'I' for Inactive)
REMARK    1  A    between atoms: C_1  and  C_2
REMARK    2  A    between atoms: C_5  and  C_9
REMARK    3  A    between atoms: C_7  and  C_8
REMARK    4  A    between atoms: C_9  and  C_10
REMARK    5  A    between atoms: N_16  and  N_17
REMARK    6  A    between atoms: C_18  and  C_19
REMARK    7  A    between atoms: N_21  and  C_31
REMARK    8  A    between atoms: C_23  and  C_24
REMARK                            x       y       z     vdW  Elec       q    Type
REMARK                         _______ _______ _______ _____ _____    ______ ____
ROOT
ATOM      1  N   UNL     1       4.521  -5.842   3.552  0.00  0.00    -0.155 NA
ATOM      2  C   UNL     1       4.906  -6.449   4.642  0.00  0.00    +0.146 C 
ENDROOT
BRANCH   1   8
ATOM      3  C   UNL     1       2.882  -4.353  -0.666  0.00  0.00    +0.144 C 
ATOM      4  C   UNL     1       3.044  -5.843  -0.920  0.00  0.00    +0.232 C 
ATOM      5  O   UNL     1       2.752  -6.351  -1.982  0.00  0.00    -0.274 OA
ATOM      6  N   UNL     1       3.522  -6.551   0.089  0.00  0.00    -0.263 N 
ATOM      7  C   UNL     1       3.857  -5.980   1.300  0.00  0.00    +0.183 C 
ATOM      8  N   UNL     1       4.338  -6.572   2.371  0.00  0.00    -0.127 NA
ATOM      9  S   UNL     1       3.483  -4.247   1.071  0.00  0.00    -0.075 S 
ATOM     10  H   UNL     1       3.643  -7.506  -0.026  0.00  0.00    +0.157 HD
BRANCH   3  11
ATOM     11  C   UNL     1       1.416  -3.928  -0.772  0.00  0.00    +0.059 C 
BRANCH  11  16
ATOM     12  C   UNL     1       0.931   1.675   0.554  0.00  0.00    +0.044 C 
ATOM     13  C   UNL     1       1.057   0.214   0.208  0.00  0.00    -0.048 A 
ATOM     14  C   UNL     1       1.390  -0.165  -1.079  0.00  0.00    +0.004 A 
ATOM     15  C   UNL     1       1.507  -1.505  -1.396  0.00  0.00    +0.004 A 
ATOM     16  C   UNL     1       1.290  -2.467  -0.426  0.00  0.00    -0.046 A 
ATOM     17  C   UNL     1       0.958  -2.087   0.861  0.00  0.00    +0.007 A 
ATOM     18  C   UNL     1       0.846  -0.747   1.179  0.00  0.00    -0.047 A 
ATOM     19  C   UNL     1       0.489  -0.333   2.583  0.00  0.00    +0.044 C 
ENDBRANCH  11  16
ENDBRANCH   3  11
ENDBRANCH   1   8
BRANCH   2  20
ATOM     20  C   UNL     1       4.993  -5.704   5.908  0.00  0.00    +0.041 A 
ATOM     21  C   UNL     1       4.620  -4.394   6.122  0.00  0.00    +0.124 A 
ATOM     22  N   UNL     1       4.862  -4.101   7.417  0.00  0.00    -0.239 N 
ATOM     23  N   UNL     1       5.396  -5.223   8.057  0.00  0.00    -0.166 NA
ATOM     24  C   UNL     1       5.486  -6.210   7.192  0.00  0.00    +0.102 A 
BRANCH  24  25
ATOM     25  C   UNL     1       5.995  -7.576   7.464  0.00  0.00    +0.003 A 
ATOM     26  C   UNL     1       5.343  -8.685   6.925  0.00  0.00    +0.011 A 
ATOM     27  C   UNL     1       5.821  -9.954   7.181  0.00  0.00    +0.020 A 
ATOM     28  C   UNL     1       6.945 -10.127   7.971  0.00  0.00    +0.041 A 
ATOM     29  C   UNL     1       7.595  -9.029   8.508  0.00  0.00    +0.020 A 
ATOM     30  C   UNL     1       7.129  -7.755   8.255  0.00  0.00    +0.011 A 
ATOM     31 CL   UNL     1       7.540 -11.726   8.290  0.00  0.00    -0.084 Cl
ENDBRANCH  24  25
BRANCH  22  32
ATOM     32  C   UNL     1       4.617  -2.864   8.026  0.00  0.00    +0.065 A 
ATOM     33  C   UNL     1       4.077  -1.820   7.287  0.00  0.00    +0.028 A 
ATOM     34  C   UNL     1       3.836  -0.601   7.890  0.00  0.00    +0.002 A 
ATOM     35  C   UNL     1       4.132  -0.420   9.228  0.00  0.00    +0.000 A 
ATOM     36  C   UNL     1       4.670  -1.458   9.967  0.00  0.00    +0.002 A 
ATOM     37  C   UNL     1       4.907  -2.681   9.371  0.00  0.00    +0.028 A 
ENDBRANCH  22  32
ENDBRANCH   2  20
TORSDOF 6
