REMARK  Name = ZINC63529235
REMARK  7 active torsions:
REMARK  status: ('A' for Active; 'I' for Inactive)
REMARK    1  A    between atoms: C_1  and  O_2
REMARK    2  A    between atoms: O_2  and  C_3
REMARK    3  A    between atoms: C_6  and  C_9
REMARK    4  A    between atoms: C_12  and  C_13
REMARK    5  A    between atoms: N_20  and  C_21
REMARK    6  A    between atoms: C_21  and  C_22
REMARK    7  A    between atoms: C_22  and  C_23
REMARK                            x       y       z     vdW  Elec       q    Type
REMARK                         _______ _______ _______ _____ _____    ______ ____
ROOT
ATOM      1  C   UNL     1       2.498  -2.483  -4.337  0.00  0.00    +0.136 C 
ATOM      2  N   UNL     1       2.972  -1.843  -5.374  0.00  0.00    -0.226 NA
ATOM      3  C   UNL     1       3.486  -2.740  -6.260  0.00  0.00    +0.132 C 
ATOM      4  C   UNL     1       4.080  -2.458  -7.481  0.00  0.00    +0.079 C 
ATOM      5  C   UNL     1       3.284  -4.067  -5.661  0.00  0.00    +0.270 C 
ATOM      6  O   UNL     1       3.603  -5.145  -6.131  0.00  0.00    -0.268 OA
ATOM      7  N   UNL     1       2.675  -3.840  -4.476  0.00  0.00    -0.250 N 
ENDROOT
BRANCH   1  11
ATOM      8  C   UNL     1       0.672  -0.623  -0.984  0.00  0.00    +0.120 A 
ATOM      9  C   UNL     1       0.373  -1.945  -1.290  0.00  0.00    +0.046 A 
ATOM     10  C   UNL     1       0.964  -2.552  -2.377  0.00  0.00    +0.015 A 
ATOM     11  C   UNL     1       1.863  -1.837  -3.172  0.00  0.00    +0.016 A 
ATOM     12  C   UNL     1       2.159  -0.507  -2.861  0.00  0.00    +0.015 A 
ATOM     13  C   UNL     1       1.561   0.094  -1.775  0.00  0.00    +0.046 A 
BRANCH   8  15
ATOM     14  C   UNL     1      -0.816  -0.823   0.859  0.00  0.00    +0.277 C 
ATOM     15  O   UNL     1       0.088  -0.029   0.089  0.00  0.00    -0.495 OA
ENDBRANCH   8  15
ENDBRANCH   1  11
BRANCH   4  16
ATOM     16  C   UNL     1       4.199  -1.125  -7.915  0.00  0.00    +0.130 A 
ATOM     17  C   UNL     1       4.761  -0.701  -9.107  0.00  0.00    +0.049 A 
ATOM     18  C   UNL     1       4.664   0.697  -9.118  0.00  0.00    +0.042 A 
ATOM     19  C   UNL     1       4.062   1.067  -7.964  0.00  0.00    +0.195 A 
ATOM     20  O   UNL     1       3.778  -0.029  -7.247  0.00  0.00    -0.463 OA
ENDBRANCH   4  16
BRANCH   7  21
ATOM     21  C   UNL     1       2.272  -4.863  -3.507  0.00  0.00    +0.119 C 
BRANCH  21  22
ATOM     22  C   UNL     1       0.904  -5.425  -3.899  0.00  0.00    +0.066 C 
BRANCH  22  23
ATOM     23  C   UNL     1       0.422  -6.393  -2.817  0.00  0.00    +0.175 C 
ATOM     24  N   UNL     1       1.336  -7.537  -2.720  0.00  0.00    -0.363 N 
ATOM     25  C   UNL     1       0.649  -8.610  -2.990  0.00  0.00    +0.060 A 
ATOM     26  C   UNL     1       1.004 -10.034  -3.052  0.00  0.00    +0.027 A 
ATOM     27  C   UNL     1       0.059 -10.942  -3.366  0.00  0.00    +0.002 A 
ATOM     28  C   UNL     1      -1.274 -10.585  -3.642  0.00  0.00    +0.002 A 
ATOM     29  C   UNL     1      -1.705  -9.308  -3.613  0.00  0.00    +0.027 A 
ATOM     30  C   UNL     1      -0.761  -8.232  -3.281  0.00  0.00    +0.060 A 
ATOM     31  N   UNL     1      -0.891  -6.941  -3.180  0.00  0.00    -0.363 N 
ATOM     32  H   UNL     1       2.279  -7.501  -2.496  0.00  0.00    +0.162 HD
ATOM     33  H   UNL     1      -1.706  -6.434  -3.318  0.00  0.00    +0.162 HD
ENDBRANCH  22  23
ENDBRANCH  21  22
ENDBRANCH   7  21
TORSDOF 6
