REMARK  Name = ZINC03218395
REMARK  5 active torsions:
REMARK  status: ('A' for Active; 'I' for Inactive)
REMARK    1  A    between atoms: C_1  and  C_2
REMARK    2  A    between atoms: C_9  and  N_14
REMARK    3  A    between atoms: C_10  and  C_11
REMARK    4  A    between atoms: C_15  and  C_17
REMARK    5  A    between atoms: C_20  and  N_22
REMARK                            x       y       z     vdW  Elec       q    Type
REMARK                         _______ _______ _______ _____ _____    ______ ____
ROOT
ATOM      1  C   UNL     1      -1.434   3.622   2.530  0.00  0.00    +0.008 C 
ATOM      2  C   UNL     1      -0.937   3.098   1.180  0.00  0.00    -0.009 C 
ATOM      3  C   UNL     1      -0.734   1.582   1.262  0.00  0.00    +0.008 C 
ATOM      4  C   UNL     1      -0.013   1.086   0.008  0.00  0.00    +0.037 C 
ATOM      5  C   UNL     1      -0.755   1.593  -1.222  0.00  0.00    -0.023 A 
ATOM      6  C   UNL     1      -1.621   2.627  -1.135  0.00  0.00    -0.004 A 
ATOM      7  S   UNL     1      -2.225   2.851  -2.784  0.00  0.00    -0.077 S 
ATOM      8  C   UNL     1      -1.341   1.592  -3.580  0.00  0.00    +0.085 A 
ATOM      9  C   UNL     1      -0.600   1.027  -2.551  0.00  0.00    +0.068 A 
ATOM     10  C   UNL     1      -1.979   3.403   0.095  0.00  0.00    +0.046 C 
ENDROOT
BRANCH   9  11
ATOM     11  C   UNL     1       0.307  -0.099  -2.796  0.00  0.00    +0.244 C 
ATOM     12  O   UNL     1      -0.102  -1.241  -2.702  0.00  0.00    -0.270 OA
ATOM     13  N   UNL     1       1.593   0.132  -3.126  0.00  0.00    -0.325 N 
ATOM     14  H   UNL     1       1.919   1.042  -3.201  0.00  0.00    +0.145 HD
ATOM     15  H   UNL     1       2.193  -0.613  -3.288  0.00  0.00    +0.145 HD
ENDBRANCH   9  11
BRANCH   8  16
ATOM     16  N   UNL     1      -1.368   1.235  -4.918  0.00  0.00    -0.275 N 
ATOM     17  C   UNL     1      -2.159   1.906  -5.779  0.00  0.00    +0.255 C 
ATOM     18  O   UNL     1      -2.849   2.825  -5.380  0.00  0.00    -0.269 OA
ATOM     19  H   UNL     1      -0.817   0.502  -5.236  0.00  0.00    +0.156 HD
BRANCH  17  20
ATOM     20  C   UNL     1      -2.187   1.529  -7.194  0.00  0.00    +0.076 A 
ATOM     21  C   UNL     1      -2.921   2.082  -8.232  0.00  0.00    +0.023 A 
ATOM     22  C   UNL     1      -2.756   1.530  -9.478  0.00  0.00    +0.041 A 
ATOM     23  C   UNL     1      -1.899   0.488  -9.633  0.00  0.00    +0.164 A 
ATOM     24  S   UNL     1      -1.279   0.242  -8.033  0.00  0.00    -0.060 S 
BRANCH  23  25
ATOM     25  N   UNL     1      -1.569  -0.254 -10.871  0.00  0.00    +0.063 N 
ATOM     26  O   UNL     1      -2.096   0.054 -11.925  0.00  0.00    -0.126 OA
ATOM     27  O   UNL     1      -0.770  -1.173 -10.836  0.00  0.00    -0.126 OA
ENDBRANCH  23  25
ENDBRANCH  17  20
ENDBRANCH   8  16
TORSDOF 4
