REMARK  Name = ZINC67289814
REMARK  8 active torsions:
REMARK  status: ('A' for Active; 'I' for Inactive)
REMARK    1  A    between atoms: C_1  and  C_2
REMARK    2  A    between atoms: C_5  and  C_9
REMARK    3  A    between atoms: C_7  and  C_8
REMARK    4  A    between atoms: C_12  and  S_18
REMARK    5  A    between atoms: S_18  and  C_19
REMARK    6  A    between atoms: C_19  and  C_20
REMARK    7  A    between atoms: N_22  and  C_23
REMARK    8  A    between atoms: C_28  and  C_29
REMARK                            x       y       z     vdW  Elec       q    Type
REMARK                         _______ _______ _______ _____ _____    ______ ____
ROOT
ATOM      1  C   UNL     1       0.020  -4.258  -0.024  0.00  0.00    +0.094 A 
ATOM      2  C   UNL     1       0.138  -5.064  -1.158  0.00  0.00    +0.060 A 
ATOM      3  C   UNL     1       0.114  -6.381  -0.737  0.00  0.00    +0.099 A 
ATOM      4  C   UNL     1       0.192  -7.625  -1.411  0.00  0.00    +0.123 A 
ATOM      5  N   UNL     1       0.139  -8.745  -0.714  0.00  0.00    -0.245 NA
ATOM      6  C   UNL     1       0.012  -8.726   0.616  0.00  0.00    +0.132 A 
ATOM      7  C   UNL     1      -0.067  -7.567   1.300  0.00  0.00    +0.132 A 
ATOM      8  N   UNL     1      -0.017  -6.371   0.629  0.00  0.00    -0.235 N 
ATOM      9  N   UNL     1      -0.066  -5.037   1.043  0.00  0.00    -0.166 NA
ENDROOT
BRANCH   1  14
ATOM     10  C   UNL     1      -0.054   1.501   0.010  0.00  0.00    +0.044 C 
ATOM     11  C   UNL     1      -0.035  -0.006   0.001  0.00  0.00    -0.047 A 
ATOM     12  C   UNL     1      -0.022  -0.688  -1.202  0.00  0.00    +0.004 A 
ATOM     13  C   UNL     1      -0.004  -2.068  -1.216  0.00  0.00    +0.010 A 
ATOM     14  C   UNL     1       0.002  -2.774  -0.015  0.00  0.00    +0.002 A 
ATOM     15  C   UNL     1      -0.011  -2.082   1.194  0.00  0.00    +0.013 A 
ATOM     16  C   UNL     1      -0.024  -0.702   1.196  0.00  0.00    -0.047 A 
ATOM     17  C   UNL     1      -0.032   0.049   2.503  0.00  0.00    +0.044 C 
ENDBRANCH   1  14
BRANCH   4  18
ATOM     18  S   UNL     1       0.359  -7.676  -3.164  0.00  0.00    -0.094 S 
BRANCH  18  19
ATOM     19  C   UNL     1       0.417  -9.448  -3.548  0.00  0.00    +0.172 C 
BRANCH  19  20
ATOM     20  C   UNL     1       0.560  -9.635  -5.036  0.00  0.00    +0.227 C 
ATOM     21  O   UNL     1       0.618  -8.668  -5.766  0.00  0.00    -0.275 OA
ATOM     22  N   UNL     1       0.624 -10.877  -5.556  0.00  0.00    -0.285 N 
ATOM     23  H   UNL     1       0.659 -11.648  -4.968  0.00  0.00    +0.155 HD
BRANCH  22  24
ATOM     24  C   UNL     1       0.641 -11.055  -6.944  0.00  0.00    +0.038 A 
ATOM     25  C   UNL     1       0.093 -10.087  -7.776  0.00  0.00    +0.043 A 
ATOM     26  C   UNL     1       0.112 -10.265  -9.146  0.00  0.00    +0.043 A 
ATOM     27  C   UNL     1       0.676 -11.407  -9.689  0.00  0.00    +0.020 A 
ATOM     28  C   UNL     1       1.222 -12.371  -8.863  0.00  0.00    +0.006 A 
ATOM     29  C   UNL     1       1.211 -12.196  -7.493  0.00  0.00    -0.029 A 
ATOM     30  C   UNL     1       1.812 -13.245  -6.593  0.00  0.00    +0.045 C 
ATOM     31 CL   UNL     1      -0.573  -9.057 -10.188  0.00  0.00    -0.083 Cl
ENDBRANCH  22  24
ENDBRANCH  19  20
ENDBRANCH  18  19
ENDBRANCH   4  18
TORSDOF 5
