REMARK  Name = ZINC41308357
REMARK  9 active torsions:
REMARK  status: ('A' for Active; 'I' for Inactive)
REMARK    1  A    between atoms: C_1  and  C_2
REMARK    2  A    between atoms: C_9  and  C_11
REMARK    3  A    between atoms: N_13  and  C_14
REMARK    4  A    between atoms: C_15  and  C_28
REMARK    5  A    between atoms: C_20  and  C_24
REMARK    6  A    between atoms: C_24  and  C_25
REMARK    7  A    between atoms: C_24  and  C_26
REMARK    8  A    between atoms: C_24  and  C_27
REMARK    9  A    between atoms: N_30  and  C_31
REMARK                            x       y       z     vdW  Elec       q    Type
REMARK                         _______ _______ _______ _____ _____    ______ ____
ROOT
ATOM      1  C   UNL     1       0.125  -7.985   2.090  0.00  0.00    +0.085 A 
ATOM      2  C   UNL     1       0.145  -9.234   1.489  0.00  0.00    +0.069 A 
ATOM      3  C   UNL     1       0.164 -10.392   2.365  0.00  0.00    -0.023 A 
ATOM      4  C   UNL     1       0.160 -10.089   3.681  0.00  0.00    -0.004 A 
ATOM      5  S   UNL     1       0.139  -8.321   3.735  0.00  0.00    -0.077 S 
ATOM      6  C   UNL     1       0.175 -11.054   4.826  0.00  0.00    +0.046 C 
ATOM      7  C   UNL     1      -0.184 -12.447   4.288  0.00  0.00    -0.000 C 
ATOM      8  C   UNL     1       0.656 -12.727   3.039  0.00  0.00    +0.009 C 
ATOM      9  C   UNL     1       0.189 -11.836   1.886  0.00  0.00    +0.037 C 
ENDROOT
BRANCH   1  12
ATOM     10  C   UNL     1       0.092  -5.622   2.221  0.00  0.00    +0.284 C 
ATOM     11  O   UNL     1       0.099  -5.699   3.435  0.00  0.00    -0.266 OA
ATOM     12  N   UNL     1       0.104  -6.744   1.474  0.00  0.00    -0.273 N 
ATOM     13  H   UNL     1       0.098  -6.683   0.506  0.00  0.00    +0.156 HD
BRANCH  10  22
ATOM     14  C   UNL     1      -0.018   1.503   0.010  0.00  0.00    +0.044 C 
ATOM     15  C   UNL     1       0.002  -0.004   0.002  0.00  0.00    -0.050 A 
ATOM     16  C   UNL     1       0.006  -0.687  -1.207  0.00  0.00    +0.007 A 
ATOM     17  C   UNL     1       0.025  -2.064  -1.238  0.00  0.00    +0.047 A 
ATOM     18  C   UNL     1       0.041  -2.783  -0.048  0.00  0.00    +0.136 A 
ATOM     19  C   UNL     1       0.037  -2.086   1.175  0.00  0.00    +0.021 A 
ATOM     20  C   UNL     1       0.023  -0.689   1.184  0.00  0.00    +0.015 A 
ATOM     21  C   UNL     1       0.056  -3.112   2.216  0.00  0.00    +0.063 A 
ATOM     22  C   UNL     1       0.070  -4.306   1.568  0.00  0.00    +0.191 A 
ATOM     23  O   UNL     1       0.060  -4.100   0.235  0.00  0.00    -0.450 OA
ENDBRANCH  10  22
ENDBRANCH   1  12
BRANCH   7  24
ATOM     24  C   UNL     1       0.113 -13.501   5.356  0.00  0.00    -0.035 C 
ATOM     25  C   UNL     1      -0.719 -13.209   6.607  0.00  0.00    +0.011 C 
ATOM     26  C   UNL     1      -0.246 -14.888   4.818  0.00  0.00    +0.011 C 
ATOM     27  C   UNL     1       1.600 -13.461   5.712  0.00  0.00    +0.011 C 
ENDBRANCH   7  24
BRANCH   2  28
ATOM     28  C   UNL     1       0.146  -9.380   0.030  0.00  0.00    +0.247 C 
ATOM     29  O   UNL     1       1.200  -9.424  -0.577  0.00  0.00    -0.270 OA
ATOM     30  N   UNL     1      -1.021  -9.466  -0.640  0.00  0.00    -0.307 N 
ATOM     31  H   UNL     1      -1.861  -9.431  -0.156  0.00  0.00    +0.149 HD
BRANCH  30  32
ATOM     32  C   UNL     1      -1.020  -9.612  -2.097  0.00  0.00    +0.096 C 
ATOM     33  C   UNL     1      -0.882 -11.099  -2.462  0.00  0.00    +0.046 C 
ATOM     34  C   UNL     1      -1.197 -11.258  -3.976  0.00  0.00    +0.168 C 
ATOM     35  S   UNL     1      -2.627 -10.109  -4.146  0.00  0.00    -0.029 S 
ATOM     36  O   UNL     1      -3.832 -10.841  -3.963  0.00  0.00    -0.174 OA
ATOM     37  O   UNL     1      -2.455  -9.327  -5.319  0.00  0.00    -0.174 OA
ATOM     38  C   UNL     1      -2.343  -9.050  -2.671  0.00  0.00    +0.188 C 
ENDBRANCH  30  32
ENDBRANCH   2  28
TORSDOF 5
