REMARK  Name = ZINC02741513
REMARK  9 active torsions:
REMARK  status: ('A' for Active; 'I' for Inactive)
REMARK    1  A    between atoms: C_1  and  C_2
REMARK    2  A    between atoms: C_2  and  C_3
REMARK    3  A    between atoms: C_10  and  N_17
REMARK    4  A    between atoms: C_11  and  C_12
REMARK    5  A    between atoms: C_12  and  O_14
REMARK    6  A    between atoms: O_14  and  C_15
REMARK    7  A    between atoms: C_15  and  C_16
REMARK    8  A    between atoms: C_18  and  C_20
REMARK    9  A    between atoms: C_22  and  C_30
REMARK                            x       y       z     vdW  Elec       q    Type
REMARK                         _______ _______ _______ _____ _____    ______ ____
ROOT
ATOM      1  N   UNL     1      -0.764  -2.310  -2.523  0.00  0.00    -0.275 N 
ATOM      2  C   UNL     1      -0.981  -3.166  -3.541  0.00  0.00    +0.249 C 
ATOM      3  O   UNL     1      -1.040  -4.361  -3.329  0.00  0.00    -0.270 OA
ATOM      4  H   UNL     1      -0.711  -1.229  -2.715  0.00  0.00    +0.156 HD
ENDROOT
BRANCH   2   5
ATOM      5  C   UNL     1      -1.146  -2.651  -4.917  0.00  0.00    +0.048 A 
ATOM      6  C   UNL     1      -1.200  -1.288  -5.176  0.00  0.00    +0.042 A 
ATOM      7  C   UNL     1      -1.357  -0.844  -6.498  0.00  0.00    +0.074 A 
ATOM      8  N   UNL     1      -1.456  -1.677  -7.512  0.00  0.00    -0.247 NA
ATOM      9  C   UNL     1      -1.414  -3.001  -7.355  0.00  0.00    +0.072 A 
ATOM     10  C   UNL     1      -1.252  -3.557  -6.061  0.00  0.00    +0.013 A 
ATOM     11  C   UNL     1      -1.203  -4.946  -5.901  0.00  0.00    +0.011 A 
ATOM     12  C   UNL     1      -1.306  -5.754  -6.995  0.00  0.00    +0.001 A 
ATOM     13  C   UNL     1      -1.460  -5.213  -8.270  0.00  0.00    +0.002 A 
ATOM     14  C   UNL     1      -1.522  -3.867  -8.460  0.00  0.00    +0.028 A 
BRANCH   7  15
ATOM     15  C   UNL     1      -1.414   0.614  -6.761  0.00  0.00    +0.019 A 
ATOM     16  C   UNL     1      -2.242   1.431  -5.993  0.00  0.00    +0.011 A 
ATOM     17  C   UNL     1      -2.291   2.788  -6.242  0.00  0.00    +0.001 A 
ATOM     18  C   UNL     1      -1.520   3.337  -7.251  0.00  0.00    +0.001 A 
ATOM     19  C   UNL     1      -0.696   2.533  -8.016  0.00  0.00    +0.020 A 
ATOM     20  C   UNL     1      -0.635   1.174  -7.773  0.00  0.00    +0.050 A 
ATOM     21 CL   UNL     1       0.404   0.165  -8.730  0.00  0.00    -0.083 Cl
ENDBRANCH   7  15
ENDBRANCH   2   5
BRANCH   1  28
ATOM     22  C   UNL     1      -0.405  -4.475   3.481  0.00  0.00    -0.006 C 
ATOM     23  C   UNL     1       0.536  -3.267   3.483  0.00  0.00    +0.008 C 
ATOM     24  C   UNL     1       0.008  -2.194   2.529  0.00  0.00    +0.037 C 
ATOM     25  C   UNL     1      -0.249  -2.832   1.169  0.00  0.00    -0.021 A 
ATOM     26  C   UNL     1      -0.376  -4.170   1.041  0.00  0.00    -0.004 A 
ATOM     27  S   UNL     1      -0.653  -4.436  -0.688  0.00  0.00    -0.077 S 
ATOM     28  C   UNL     1      -0.610  -2.793  -1.234  0.00  0.00    +0.087 A 
ATOM     29  C   UNL     1      -0.382  -2.077  -0.066  0.00  0.00    +0.091 A 
ATOM     30  C   UNL     1      -0.293  -5.194   2.131  0.00  0.00    +0.046 C 
BRANCH  22  32
ATOM     31  C   UNL     1      -1.032  -6.572   4.685  0.00  0.00    +0.004 C 
ATOM     32  C   UNL     1      -0.016  -5.430   4.611  0.00  0.00    +0.000 C 
ENDBRANCH  22  32
BRANCH  29  33
ATOM     33  C   UNL     1      -0.274  -0.616  -0.079  0.00  0.00    +0.342 C 
ATOM     34  O   UNL     1      -1.268   0.069   0.071  0.00  0.00    -0.245 OA
BRANCH  33  35
ATOM     35  O   UNL     1       0.928  -0.031  -0.256  0.00  0.00    -0.461 OA
BRANCH  35  36
ATOM     36  C   UNL     1       0.961   1.421  -0.258  0.00  0.00    +0.229 C 
ATOM     37  C   UNL     1       2.398   1.899  -0.470  0.00  0.00    +0.048 C 
ENDBRANCH  35  36
ENDBRANCH  33  35
ENDBRANCH  29  33
ENDBRANCH   1  28
TORSDOF 7
