REMARK  Name = ZINC66703138
REMARK  12 active torsions:
REMARK  status: ('A' for Active; 'I' for Inactive)
REMARK    1  A    between atoms: C_1  and  C_2
REMARK    2  A    between atoms: C_2  and  C_3
REMARK    3  A    between atoms: C_3  and  C_5
REMARK    4  A    between atoms: C_3  and  N_6
REMARK    5  A    between atoms: N_6  and  C_7
REMARK    6  A    between atoms: N_6  and  C_8
REMARK    7  A    between atoms: C_8  and  C_9
REMARK    8  A    between atoms: C_9  and  N_10
REMARK    9  A    between atoms: C_16  and  C_19
REMARK   10  A    between atoms: C_19  and  C_20
REMARK   11  A    between atoms: N_25  and  C_28
REMARK   12  A    between atoms: C_28  and  C_29
REMARK                            x       y       z     vdW  Elec       q    Type
REMARK                         _______ _______ _______ _____ _____    ______ ____
ROOT
ATOM      1  N   UNL     1       5.644   2.872   0.202  0.00  0.00    -0.301 N 
ATOM      2  C   UNL     1       4.469   3.529   0.253  0.00  0.00    +0.302 C 
ATOM      3  O   UNL     1       3.455   2.938   0.571  0.00  0.00    -0.253 OA
ATOM      4  N   UNL     1       4.416   4.841  -0.050  0.00  0.00    -0.286 N 
ATOM      5  C   UNL     1       3.166   5.596   0.107  0.00  0.00    +0.109 C 
ATOM      6  C   UNL     1       3.439   6.827   0.978  0.00  0.00    +0.023 C 
ATOM      7  C   UNL     1       4.588   7.633   0.368  0.00  0.00    +0.001 C 
ATOM      8  C   UNL     1       5.854   6.775   0.333  0.00  0.00    +0.023 C 
ATOM      9  C   UNL     1       5.610   5.545  -0.539  0.00  0.00    +0.109 C 
ATOM     10  H   UNL     1       6.464   3.358   0.017  0.00  0.00    +0.150 HD
ENDROOT
BRANCH   1  11
ATOM     11  C   UNL     1       5.686   1.425   0.426  0.00  0.00    +0.087 C 
BRANCH  11  12
ATOM     12  C   UNL     1       7.130   0.932   0.314  0.00  0.00    -0.060 C 
BRANCH  12  13
ATOM     13  N   UNL     1       7.171  -0.519   0.540  0.00  0.00    +0.381 N 
ATOM     14  C   UNL     1       6.474  -1.204  -0.557  0.00  0.00    -0.096 C 
ATOM     15  H   UNL     1       6.718  -0.736   1.414  0.00  0.00    -0.082 HD
BRANCH  13  16
ATOM     16  C   UNL     1       8.569  -0.967   0.588  0.00  0.00    -0.072 C 
ATOM     17  C   UNL     1       9.257  -0.635  -0.738  0.00  0.00    -0.013 C 
BRANCH  16  19
ATOM     18  C   UNL     1       7.985  -2.804   2.177  0.00  0.00    +0.002 C 
ATOM     19  C   UNL     1       8.611  -2.479   0.820  0.00  0.00    -0.019 C 
ENDBRANCH  16  19
ENDBRANCH  13  16
ENDBRANCH  12  13
ENDBRANCH  11  12
ENDBRANCH   1  11
BRANCH   7  20
ATOM     20  C   UNL     1       4.841   8.881   1.216  0.00  0.00    +0.099 C 
BRANCH  20  21
ATOM     21  C   UNL     1       5.888   9.738   0.549  0.00  0.00    +0.216 C 
ATOM     22  O   UNL     1       6.382   9.384  -0.500  0.00  0.00    -0.276 OA
ATOM     23  N   UNL     1       6.274  10.896   1.120  0.00  0.00    -0.305 N 
ATOM     24  C   UNL     1       5.692  11.341   2.396  0.00  0.00    +0.089 C 
ATOM     25  C   UNL     1       6.835  11.705   3.350  0.00  0.00    -0.060 C 
ATOM     26  N   UNL     1       7.713  12.690   2.707  0.00  0.00    +0.382 N 
ATOM     27  C   UNL     1       8.356  12.094   1.529  0.00  0.00    -0.060 C 
ATOM     28  C   UNL     1       7.293  11.748   0.488  0.00  0.00    +0.089 C 
ATOM     29  H   UNL     1       7.168  13.490   2.422  0.00  0.00    -0.082 HD
BRANCH  26  30
ATOM     30  C   UNL     1       8.745  13.120   3.660  0.00  0.00    -0.082 C 
ATOM     31  C   UNL     1       9.584  14.237   3.036  0.00  0.00    -0.017 C 
ENDBRANCH  26  30
ENDBRANCH  20  21
ENDBRANCH   7  20
TORSDOF 8
