REMARK  Name = ZINC58066058
REMARK  4 active torsions:
REMARK  status: ('A' for Active; 'I' for Inactive)
REMARK    1  A    between atoms: C_6  and  S_7
REMARK    2  A    between atoms: S_7  and  N_10
REMARK    3  A    between atoms: C_13  and  C_16
REMARK    4  A    between atoms: C_21  and  N_24
REMARK                            x       y       z     vdW  Elec       q    Type
REMARK                         _______ _______ _______ _____ _____    ______ ____
ROOT
ATOM      1  N   UNL     1      -1.946  -1.132  -1.578  0.00  0.00    -0.177 NA
ATOM      2  C   UNL     1      -2.795  -0.156  -2.275  0.00  0.00    +0.110 C 
ATOM      3  C   UNL     1      -4.003  -0.888  -2.868  0.00  0.00    +0.030 C 
ATOM      4  C   UNL     1      -3.515  -2.039  -3.750  0.00  0.00    +0.078 C 
ATOM      5  C   UNL     1      -2.717  -3.032  -2.901  0.00  0.00    +0.030 C 
ATOM      6  C   UNL     1      -1.490  -2.322  -2.310  0.00  0.00    +0.110 C 
ENDROOT
BRANCH   4   7
ATOM      7  C   UNL     1      -4.700  -2.741  -4.362  0.00  0.00    +0.219 C 
ATOM      8  O   UNL     1      -5.733  -2.846  -3.735  0.00  0.00    -0.275 OA
ATOM      9  N   UNL     1      -4.612  -3.251  -5.606  0.00  0.00    -0.301 N 
ATOM     10  C   UNL     1      -3.333  -3.243  -6.331  0.00  0.00    +0.109 C 
ATOM     11  C   UNL     1      -3.022  -4.668  -6.798  0.00  0.00    +0.041 C 
ATOM     12  C   UNL     1      -4.202  -5.203  -7.613  0.00  0.00    +0.081 C 
ATOM     13  C   UNL     1      -5.453  -5.246  -6.733  0.00  0.00    +0.041 C 
ATOM     14  C   UNL     1      -5.791  -3.833  -6.262  0.00  0.00    +0.109 C 
BRANCH  12  15
ATOM     15  N   UNL     1      -3.893  -6.553  -8.089  0.00  0.00    -0.281 N 
ATOM     16  C   UNL     1      -3.828  -6.965  -9.499  0.00  0.00    +0.128 C 
ATOM     17  C   UNL     1      -3.473  -8.463  -9.431  0.00  0.00    +0.124 C 
ATOM     18  N   UNL     1      -3.376  -8.736  -7.989  0.00  0.00    -0.298 N 
ATOM     19  C   UNL     1      -3.621  -7.608  -7.310  0.00  0.00    +0.303 C 
ATOM     20  O   UNL     1      -3.601  -7.548  -6.096  0.00  0.00    -0.253 OA
ATOM     21  H   UNL     1      -3.164  -9.596  -7.593  0.00  0.00    +0.150 HD
ENDBRANCH  12  15
ENDBRANCH   4   7
BRANCH   1  22
ATOM     22  S   UNL     1      -1.506  -0.892   0.000  0.00  0.00    +0.061 S 
ATOM     23  O   UNL     1      -1.201  -2.173   0.536  0.00  0.00    -0.153 OA
ATOM     24  O   UNL     1      -2.492  -0.043   0.572  0.00  0.00    -0.153 OA
BRANCH  22  30
ATOM     25  C   UNL     1      -0.030   1.402   0.001  0.00  0.00    +0.032 A 
ATOM     26  C   UNL     1       1.150   2.122  -0.010  0.00  0.00    +0.051 A 
ATOM     27  C   UNL     1       2.368   1.460  -0.033  0.00  0.00    +0.162 A 
ATOM     28  C   UNL     1       2.398   0.070  -0.043  0.00  0.00    +0.164 A 
ATOM     29  C   UNL     1       1.211  -0.646  -0.034  0.00  0.00    +0.078 A 
ATOM     30  C   UNL     1       0.000   0.021  -0.012  0.00  0.00    +0.109 A 
ATOM     31  O   UNL     1       3.583  -0.600  -0.059  0.00  0.00    -0.485 OA
ATOM     32  C   UNL     1       4.741   0.148  -0.444  0.00  0.00    +0.270 C 
ATOM     33  C   UNL     1       4.721   1.486   0.308  0.00  0.00    +0.270 C 
ATOM     34  O   UNL     1       3.521   2.182  -0.048  0.00  0.00    -0.485 OA
ENDBRANCH  22  30
ENDBRANCH   1  22
TORSDOF 4
