REMARK  Name = ZINC04461363
REMARK  9 active torsions:
REMARK  status: ('A' for Active; 'I' for Inactive)
REMARK    1  A    between atoms: C_1  and  C_2
REMARK    2  A    between atoms: C_2  and  C_4
REMARK    3  A    between atoms: C_2  and  N_10
REMARK    4  A    between atoms: C_16  and  C_23
REMARK    5  A    between atoms: N_21  and  C_22
REMARK    6  A    between atoms: C_27  and  O_31
REMARK    7  A    between atoms: C_28  and  O_29
REMARK    8  A    between atoms: O_29  and  C_30
REMARK    9  A    between atoms: O_31  and  C_32
REMARK                            x       y       z     vdW  Elec       q    Type
REMARK                         _______ _______ _______ _____ _____    ______ ____
ROOT
ATOM      1  N   UNL     1      -0.610  -2.171  -0.041  0.00  0.00    -0.285 N 
ATOM      2  C   UNL     1       0.846  -1.980  -0.126  0.00  0.00    +0.160 C 
ATOM      3  C   UNL     1       1.041  -0.481  -0.135  0.00  0.00    +0.042 C 
ATOM      4  C   UNL     1      -0.191   0.063  -0.063  0.00  0.00    +0.058 C 
ATOM      5  C   UNL     1      -1.171  -0.949  -0.007  0.00  0.00    +0.247 C 
ATOM      6  O   UNL     1      -2.369  -0.743   0.064  0.00  0.00    -0.270 OA
ATOM      7  C   UNL     1      -0.294   1.575  -0.054  0.00  0.00    +0.145 C 
ATOM      8  N   UNL     1       0.969   2.330  -0.126  0.00  0.00    -0.288 N 
ATOM      9  C   UNL     1       2.125   1.641  -0.195  0.00  0.00    +0.307 C 
ATOM     10  O   UNL     1       3.172   2.256  -0.255  0.00  0.00    -0.252 OA
ATOM     11  N   UNL     1       2.158   0.303  -0.199  0.00  0.00    -0.260 N 
ATOM     12  C   UNL     1       3.463  -0.358  -0.277  0.00  0.00    +0.139 C 
ATOM     13  H   UNL     1       0.968   3.300  -0.124  0.00  0.00    +0.151 HD
ENDROOT
BRANCH   7  14
ATOM     14  C   UNL     1      -1.150   1.989  -1.222  0.00  0.00    +0.023 A 
ATOM     15  C   UNL     1      -0.559   2.355  -2.417  0.00  0.00    +0.009 A 
ATOM     16  C   UNL     1      -1.342   2.730  -3.493  0.00  0.00    +0.004 A 
ATOM     17  C   UNL     1      -2.719   2.752  -3.375  0.00  0.00    +0.049 A 
ATOM     18  C   UNL     1      -3.318   2.392  -2.179  0.00  0.00    +0.162 A 
ATOM     19  C   UNL     1      -2.530   2.009  -1.098  0.00  0.00    +0.167 A 
BRANCH  19  20
ATOM     20  O   UNL     1      -3.113   1.654   0.079  0.00  0.00    -0.491 OA
ATOM     21  C   UNL     1      -3.339   2.695   1.031  0.00  0.00    +0.277 C 
ENDBRANCH  19  20
BRANCH  18  22
ATOM     22  O   UNL     1      -4.673   2.412  -2.062  0.00  0.00    -0.491 OA
ATOM     23  C   UNL     1      -5.418   2.815  -3.213  0.00  0.00    +0.277 C 
ENDBRANCH  18  22
ENDBRANCH   7  14
BRANCH   1  25
ATOM     24  C   UNL     1      -2.293  -3.534  -1.177  0.00  0.00    +0.033 C 
ATOM     25  C   UNL     1      -1.317  -3.453  -0.001  0.00  0.00    +0.104 C 
BRANCH  25  26
ATOM     26  C   UNL     1      -2.080  -3.566   1.293  0.00  0.00    -0.027 A 
ATOM     27  C   UNL     1      -1.567  -3.007   2.449  0.00  0.00    +0.005 A 
ATOM     28  C   UNL     1      -2.269  -3.107   3.635  0.00  0.00    +0.000 A 
ATOM     29  C   UNL     1      -3.480  -3.773   3.669  0.00  0.00    +0.000 A 
ATOM     30  C   UNL     1      -3.990  -4.337   2.514  0.00  0.00    +0.000 A 
ATOM     31  C   UNL     1      -3.291  -4.233   1.327  0.00  0.00    +0.005 A 
ENDBRANCH  25  26
ENDBRANCH   1  25
TORSDOF 5
