REMARK  Name = ZINC50370002
REMARK  4 active torsions:
REMARK  status: ('A' for Active; 'I' for Inactive)
REMARK    1  A    between atoms: C_1  and  O_2
REMARK    2  A    between atoms: O_2  and  C_3
REMARK    3  A    between atoms: C_8  and  N_10
REMARK    4  A    between atoms: N_10  and  C_11
REMARK                            x       y       z     vdW  Elec       q    Type
REMARK                         _______ _______ _______ _____ _____    ______ ____
ROOT
ATOM      1  C   UNL     1      -1.974  -3.173  -2.647  0.00  0.00    +0.049 C 
ATOM      2  C   UNL     1      -2.848  -3.144  -3.880  0.00  0.00    -0.030 A 
ATOM      3  C   UNL     1      -2.929  -2.282  -4.950  0.00  0.00    +0.024 A 
ATOM      4  C   UNL     1      -3.851  -2.516  -5.957  0.00  0.00    +0.041 A 
ATOM      5  C   UNL     1      -4.686  -3.617  -5.882  0.00  0.00    +0.022 A 
ATOM      6  C   UNL     1      -4.606  -4.482  -4.811  0.00  0.00    +0.025 A 
ATOM      7  C   UNL     1      -3.681  -4.252  -3.794  0.00  0.00    +0.035 A 
ATOM      8  N   UNL     1      -3.411  -4.969  -2.627  0.00  0.00    -0.286 N 
ATOM      9  C   UNL     1      -2.426  -4.409  -1.899  0.00  0.00    +0.208 C 
ATOM     10  O   UNL     1      -1.985  -4.815  -0.845  0.00  0.00    -0.277 OA
ATOM     11 CL   UNL     1      -3.958  -1.431  -7.308  0.00  0.00    -0.084 Cl
ATOM     12  H   UNL     1      -3.879  -5.779  -2.370  0.00  0.00    +0.155 HD
ENDROOT
BRANCH   1  13
ATOM     13  N   UNL     1      -2.192  -1.970  -1.833  0.00  0.00    +0.393 N 
ATOM     14  H   UNL     1      -3.155  -1.939  -1.531  0.00  0.00    -0.084 HD
ATOM     15  H   UNL     1      -1.986  -1.149  -2.383  0.00  0.00    -0.084 HD
BRANCH  13  20
ATOM     16  C   UNL     1       0.160  -1.909  -1.100  0.00  0.00    +0.104 C 
ATOM     17  C   UNL     1       0.732  -0.632  -0.451  0.00  0.00    +0.030 C 
ATOM     18  C   UNL     1      -0.513   0.251  -0.189  0.00  0.00    +0.001 C 
ATOM     19  C   UNL     1      -1.581  -0.784   0.245  0.00  0.00    -0.013 C 
ATOM     20  C   UNL     1      -1.311  -2.006  -0.658  0.00  0.00    -0.041 C 
BRANCH  16  22
ATOM     21  C   UNL     1       1.983  -3.417  -1.484  0.00  0.00    +0.194 C 
ATOM     22  O   UNL     1       0.884  -3.055  -0.646  0.00  0.00    -0.381 OA
ENDBRANCH  16  22
ENDBRANCH  13  20
ENDBRANCH   1  13
TORSDOF 3
