REMARK  Name = ZINC62254098
REMARK  7 active torsions:
REMARK  status: ('A' for Active; 'I' for Inactive)
REMARK    1  A    between atoms: C_1  and  C_2
REMARK    2  A    between atoms: C_4  and  C_17
REMARK    3  A    between atoms: C_7  and  N_8
REMARK    4  A    between atoms: N_8  and  C_9
REMARK    5  A    between atoms: N_8  and  C_10
REMARK    6  A    between atoms: C_10  and  C_11
REMARK    7  A    between atoms: N_15  and  C_16
REMARK                            x       y       z     vdW  Elec       q    Type
REMARK                         _______ _______ _______ _____ _____    ______ ____
ROOT
ATOM      1  N   UNL     1       0.025  -0.016   2.415  0.00  0.00    -0.326 N 
ATOM      2  C   UNL     1       1.295   0.363   3.040  0.00  0.00    +0.129 C 
ENDROOT
BRANCH   1   9
ATOM      3  C   UNL     1      -0.018   1.503   0.010  0.00  0.00    +0.045 C 
ATOM      4  C   UNL     1       0.002  -0.004   0.002  0.00  0.00    -0.029 A 
ATOM      5  C   UNL     1       0.006  -0.689  -1.198  0.00  0.00    +0.010 A 
ATOM      6  C   UNL     1       0.024  -2.071  -1.206  0.00  0.00    -0.032 A 
ATOM      7  C   UNL     1       0.039  -2.773  -0.014  0.00  0.00    +0.006 A 
ATOM      8  C   UNL     1       0.036  -2.095   1.188  0.00  0.00    +0.024 A 
ATOM      9  C   UNL     1       0.023  -0.706   1.200  0.00  0.00    +0.033 A 
BRANCH   6  10
ATOM     10  C   UNL     1       0.027  -2.815  -2.517  0.00  0.00    +0.143 C 
ATOM     11 CL   UNL     1       1.728  -3.089  -3.048  0.00  0.00    -0.120 Cl
ENDBRANCH   6  10
ENDBRANCH   1   9
BRANCH   1  12
ATOM     12  C   UNL     1      -1.242   0.328   3.064  0.00  0.00    +0.177 C 
BRANCH  12  13
ATOM     13  C   UNL     1      -1.653  -0.789   3.988  0.00  0.00    +0.104 A 
ATOM     14  N   UNL     1      -1.412  -0.845   5.269  0.00  0.00    -0.348 N 
ATOM     15  C   UNL     1      -1.924  -1.980   5.767  0.00  0.00    +0.101 A 
ATOM     16  C   UNL     1      -2.504  -2.654   4.756  0.00  0.00    +0.104 A 
ATOM     17  N   UNL     1      -2.338  -1.897   3.628  0.00  0.00    -0.338 N 
ATOM     18  C   UNL     1      -2.811  -2.227   2.281  0.00  0.00    +0.150 C 
ATOM     19  H   UNL     1      -0.938  -0.171   5.781  0.00  0.00    +0.166 HD
ENDBRANCH  12  13
ENDBRANCH   1  12
TORSDOF 4
