REMARK  Name = ZINC39499336
REMARK  7 active torsions:
REMARK  status: ('A' for Active; 'I' for Inactive)
REMARK    1  A    between atoms: C_1  and  C_2
REMARK    2  A    between atoms: C_2  and  C_3
REMARK    3  A    between atoms: C_2  and  S_4
REMARK    4  A    between atoms: S_4  and  C_7
REMARK    5  A    between atoms: C_12  and  S_13
REMARK    6  A    between atoms: S_13  and  C_14
REMARK    7  A    between atoms: C_18  and  C_19
REMARK                            x       y       z     vdW  Elec       q    Type
REMARK                         _______ _______ _______ _____ _____    ______ ____
ROOT
ATOM      1  C   UNL     1      -0.724  -0.074   2.342  0.00  0.00    +0.102 A 
ATOM      2  C   UNL     1      -1.149  -0.921   3.341  0.00  0.00    +0.038 A 
ATOM      3  C   UNL     1      -1.562  -0.400   4.571  0.00  0.00    +0.005 A 
ATOM      4  C   UNL     1      -1.540   0.983   4.776  0.00  0.00    -0.017 A 
ATOM      5  C   UNL     1      -1.115   1.825   3.776  0.00  0.00    +0.022 A 
ATOM      6  C   UNL     1      -0.699   1.301   2.554  0.00  0.00    +0.033 A 
ATOM      7  C   UNL     1      -2.036   1.233   6.178  0.00  0.00    +0.177 C 
ATOM      8  N   UNL     1      -2.339  -0.082   6.755  0.00  0.00    -0.167 N 
ATOM      9  C   UNL     1      -2.057  -1.048   5.799  0.00  0.00    +0.069 C 
ATOM     10  C   UNL     1      -2.212  -2.381   5.969  0.00  0.00    +0.034 C 
ATOM     11  F   UNL     1      -2.793  -0.303   7.953  0.00  0.00    -0.109 F 
ENDROOT
BRANCH  10  12
ATOM     12  C   UNL     1      -2.887  -2.896   7.170  0.00  0.00    -0.023 A 
ATOM     13  C   UNL     1      -4.064  -2.294   7.627  0.00  0.00    +0.008 A 
ATOM     14  C   UNL     1      -4.692  -2.783   8.754  0.00  0.00    +0.001 A 
ATOM     15  C   UNL     1      -4.159  -3.866   9.431  0.00  0.00    +0.000 A 
ATOM     16  C   UNL     1      -2.995  -4.467   8.986  0.00  0.00    +0.001 A 
ATOM     17  C   UNL     1      -2.359  -3.993   7.857  0.00  0.00    +0.008 A 
ENDBRANCH  10  12
BRANCH   1  18
ATOM     18  S   UNL     1      -0.203  -0.734   0.794  0.00  0.00    +0.000 S 
ATOM     19  O   UNL     1      -0.928   0.007  -0.178  0.00  0.00    -0.169 OA
ATOM     20  O   UNL     1      -0.384  -2.138   0.918  0.00  0.00    -0.169 OA
BRANCH  18  22
ATOM     21  C   UNL     1       2.310  -1.033   1.832  0.00  0.00    +0.032 C 
ATOM     22  C   UNL     1       1.565  -0.339   0.690  0.00  0.00    +0.130 C 
ATOM     23  C   UNL     1       2.118  -0.826  -0.651  0.00  0.00    +0.032 C 
ENDBRANCH  18  22
ENDBRANCH   1  18
BRANCH   6  24
ATOM     24  S   UNL     1      -0.148   2.379   1.275  0.00  0.00    -0.127 S 
ATOM     25  C   UNL     1      -0.293   4.034   2.003  0.00  0.00    +0.090 C 
ENDBRANCH   6  24
TORSDOF 4
