REMARK  Name = ZINC38705165
REMARK  14 active torsions:
REMARK  status: ('A' for Active; 'I' for Inactive)
REMARK    1  A    between atoms: C_1  and  C_2
REMARK    2  A    between atoms: C_2  and  C_3
REMARK    3  A    between atoms: C_3  and  O_4
REMARK    4  A    between atoms: O_4  and  C_5
REMARK    5  A    between atoms: C_8  and  C_11
REMARK    6  A    between atoms: C_14  and  C_32
REMARK    7  A    between atoms: N_21  and  C_22
REMARK    8  A    between atoms: C_22  and  C_23
REMARK    9  A    between atoms: C_23  and  C_24
REMARK   10  A    between atoms: C_27  and  O_30
REMARK   11  A    between atoms: O_30  and  C_31
REMARK   12  A    between atoms: C_33  and  C_40
REMARK   13  A    between atoms: C_35  and  C_39
REMARK   14  A    between atoms: C_37  and  O_38
REMARK                            x       y       z     vdW  Elec       q    Type
REMARK                         _______ _______ _______ _____ _____    ______ ____
ROOT
ATOM      1  C   UNL     1       3.062  -4.484   5.247  0.00  0.00    +0.141 C 
ATOM      2  C   UNL     1       2.215  -4.870   6.428  0.00  0.00    +0.035 A 
ATOM      3  C   UNL     1       1.360  -4.452   7.453  0.00  0.00    +0.102 A 
ATOM      4  N   UNL     1       1.007  -5.524   8.134  0.00  0.00    -0.173 NA
ATOM      5  N   UNL     1       1.554  -6.578   7.641  0.00  0.00    -0.272 N 
ATOM      6  H   UNL     1       1.436  -7.478   7.981  0.00  0.00    +0.189 HD
ATOM      7  C   UNL     1       2.327  -6.241   6.567  0.00  0.00    +0.126 A 
ATOM      8  C   UNL     1       3.217  -6.745   5.515  0.00  0.00    +0.265 C 
ATOM      9  O   UNL     1       3.520  -7.913   5.363  0.00  0.00    -0.268 OA
ATOM     10  N   UNL     1       3.651  -5.731   4.741  0.00  0.00    -0.285 N 
ENDROOT
BRANCH   3  11
ATOM     11  C   UNL     1       0.930  -3.058   7.724  0.00  0.00    +0.047 A 
ATOM     12  C   UNL     1      -0.417  -2.770   7.933  0.00  0.00    -0.037 A 
ATOM     13  C   UNL     1      -0.812  -1.471   8.184  0.00  0.00    +0.007 A 
ATOM     14  C   UNL     1       0.125  -0.454   8.230  0.00  0.00    -0.047 A 
ATOM     15  C   UNL     1       1.463  -0.729   8.024  0.00  0.00    +0.049 A 
ATOM     16  C   UNL     1       1.874  -2.029   7.776  0.00  0.00    +0.127 A 
ATOM     17  C   UNL     1      -0.317   0.960   8.505  0.00  0.00    +0.044 C 
ATOM     18  C   UNL     1      -1.441  -3.874   7.883  0.00  0.00    +0.044 C 
BRANCH  16  19
ATOM     19  O   UNL     1       3.191  -2.302   7.580  0.00  0.00    -0.506 OA
ATOM     20  H   UNL     1       3.484  -2.188   6.666  0.00  0.00    +0.292 HD
ENDBRANCH  16  19
ENDBRANCH   3  11
BRANCH   1  24
ATOM     21  C   UNL     1       0.639  -2.674   2.228  0.00  0.00    +0.121 A 
ATOM     22  C   UNL     1       1.529  -1.901   2.960  0.00  0.00    +0.046 A 
ATOM     23  C   UNL     1       2.311  -2.489   3.936  0.00  0.00    +0.009 A 
ATOM     24  C   UNL     1       2.208  -3.846   4.182  0.00  0.00    -0.022 A 
ATOM     25  C   UNL     1       1.322  -4.617   3.453  0.00  0.00    +0.009 A 
ATOM     26  C   UNL     1       0.533  -4.034   2.481  0.00  0.00    +0.046 A 
BRANCH  21  27
ATOM     27  O   UNL     1      -0.131  -2.098   1.268  0.00  0.00    -0.492 OA
BRANCH  27  28
ATOM     28  C   UNL     1       0.031  -0.693   1.062  0.00  0.00    +0.229 C 
BRANCH  28  30
ATOM     29  C   UNL     1      -0.739   1.276  -0.270  0.00  0.00    +0.007 C 
ATOM     30  C   UNL     1      -0.913  -0.228  -0.049  0.00  0.00    +0.038 C 
ENDBRANCH  28  30
ENDBRANCH  27  28
ENDBRANCH  21  27
ENDBRANCH   1  24
BRANCH  10  31
ATOM     31  C   UNL     1       4.554  -5.851   3.594  0.00  0.00    +0.114 C 
BRANCH  31  32
ATOM     32  C   UNL     1       6.002  -5.711   4.067  0.00  0.00    +0.054 C 
BRANCH  32  33
ATOM     33  C   UNL     1       6.930  -5.834   2.886  0.00  0.00    -0.046 A 
ATOM     34  C   UNL     1       7.410  -7.076   2.512  0.00  0.00    +0.007 A 
ATOM     35  C   UNL     1       8.262  -7.192   1.431  0.00  0.00    +0.046 A 
ATOM     36  C   UNL     1       8.635  -6.061   0.719  0.00  0.00    +0.120 A 
ATOM     37  C   UNL     1       8.152  -4.816   1.097  0.00  0.00    +0.046 A 
ATOM     38  C   UNL     1       7.297  -4.706   2.176  0.00  0.00    +0.007 A 
BRANCH  36  39
ATOM     39  O   UNL     1       9.473  -6.172  -0.345  0.00  0.00    -0.495 OA
ATOM     40  C   UNL     1       9.815  -4.965  -1.030  0.00  0.00    +0.277 C 
ENDBRANCH  36  39
ENDBRANCH  32  33
ENDBRANCH  31  32
ENDBRANCH  10  31
TORSDOF 10
