REMARK  Name = ZINC02786771
REMARK  3 active torsions:
REMARK  status: ('A' for Active; 'I' for Inactive)
REMARK    1  A    between atoms: C_4  and  C_7
REMARK    2  A    between atoms: C_10  and  C_33
REMARK    3  A    between atoms: C_14  and  C_17
REMARK                            x       y       z     vdW  Elec       q    Type
REMARK                         _______ _______ _______ _____ _____    ______ ____
ROOT
ATOM      1  C   UNL     1       3.711  -0.707  -0.038  0.00  0.00    +0.104 C 
ATOM      2  C   UNL     1       4.048  -1.193   1.377  0.00  0.00    +0.059 C 
ATOM      3  C   UNL     1       2.914  -2.077   1.908  0.00  0.00    +0.177 C 
ATOM      4  N   UNL     1       2.590  -3.090   0.898  0.00  0.00    -0.242 N 
ATOM      5  C   UNL     1       2.925  -2.980  -0.413  0.00  0.00    +0.129 A 
ATOM      6  C   UNL     1       2.467  -4.104  -1.056  0.00  0.00    +0.080 A 
ATOM      7  C   UNL     1       1.834  -4.908  -0.083  0.00  0.00    +0.148 A 
ATOM      8  N   UNL     1       1.913  -4.296   1.071  0.00  0.00    -0.177 NA
ATOM      9  N   UNL     1       3.612  -1.880  -0.929  0.00  0.00    -0.322 N 
ATOM     10  H   UNL     1       4.002  -1.884  -1.817  0.00  0.00    +0.148 HD
ENDROOT
BRANCH   6  11
ATOM     11  C   UNL     1       2.610  -4.414  -2.498  0.00  0.00    +0.187 A 
ATOM     12  N   UNL     1       2.150  -5.514  -3.103  0.00  0.00    -0.206 NA
ATOM     13  C   UNL     1       2.448  -5.468  -4.386  0.00  0.00    +0.168 A 
ATOM     14  C   UNL     1       2.200  -6.380  -5.518  0.00  0.00    +0.055 A 
ATOM     15  C   UNL     1       1.508  -7.675  -5.519  0.00  0.00    -0.024 A 
ATOM     16  C   UNL     1       1.416  -8.315  -6.699  0.00  0.00    -0.004 A 
ATOM     17  S   UNL     1       2.232  -7.248  -7.864  0.00  0.00    -0.073 S 
ATOM     18  C   UNL     1       2.696  -5.945  -6.755  0.00  0.00    +0.114 A 
ATOM     19  N   UNL     1       3.342  -4.792  -6.888  0.00  0.00    -0.228 NA
ATOM     20  C   UNL     1       3.554  -3.996  -5.876  0.00  0.00    +0.226 A 
ATOM     21  N   UNL     1       3.122  -4.304  -4.624  0.00  0.00    -0.201 N 
ATOM     22  N   UNL     1       3.206  -3.644  -3.389  0.00  0.00    -0.143 NA
ATOM     23  C   UNL     1       0.693  -9.629  -6.577  0.00  0.00    +0.043 C 
ATOM     24  C   UNL     1       0.709  -9.942  -5.065  0.00  0.00    +0.010 C 
ATOM     25  C   UNL     1       0.818  -8.532  -4.453  0.00  0.00    +0.037 C 
ENDBRANCH   6  11
BRANCH   1  29
ATOM     26  C   UNL     1      -0.017   1.378   0.010  0.00  0.00    +0.000 A 
ATOM     27  C   UNL     1       1.171   2.086   0.002  0.00  0.00    +0.000 A 
ATOM     28  C   UNL     1       2.377   1.411  -0.013  0.00  0.00    +0.005 A 
ATOM     29  C   UNL     1       2.396   0.029  -0.020  0.00  0.00    -0.027 A 
ATOM     30  C   UNL     1       1.208  -0.679  -0.012  0.00  0.00    +0.005 A 
ATOM     31  C   UNL     1       0.002  -0.004   0.002  0.00  0.00    +0.000 A 
ENDBRANCH   1  29
BRANCH   3  32
ATOM     32  C   UNL     1       3.362  -2.764   3.200  0.00  0.00    +0.365 C 
ATOM     33  F   UNL     1       2.325  -3.570   3.683  0.00  0.00    -0.207 F 
ATOM     34  F   UNL     1       4.487  -3.554   2.942  0.00  0.00    -0.207 F 
ENDBRANCH   3  32
TORSDOF 3
