REMARK  Name = ZINC15785784
REMARK  11 active torsions:
REMARK  status: ('A' for Active; 'I' for Inactive)
REMARK    1  A    between atoms: C_1  and  C_2
REMARK    2  A    between atoms: C_2  and  C_3
REMARK    3  A    between atoms: C_9  and  C_13
REMARK    4  A    between atoms: C_13  and  S_14
REMARK    5  A    between atoms: S_14  and  C_15
REMARK    6  A    between atoms: C_20  and  N_24
REMARK    7  A    between atoms: C_25  and  C_27
REMARK    8  A    between atoms: C_27  and  C_28
REMARK    9  A    between atoms: C_27  and  C_30
REMARK   10  A    between atoms: C_28  and  C_29
REMARK   11  A    between atoms: C_30  and  C_31
REMARK                            x       y       z     vdW  Elec       q    Type
REMARK                         _______ _______ _______ _____ _____    ______ ____
ROOT
ATOM      1  C   UNL     1       1.160  -1.783   9.235  0.00  0.00    +0.136 A 
ATOM      2  N   UNL     1       2.120  -2.231  10.013  0.00  0.00    -0.233 NA
ATOM      3  C   UNL     1       1.875  -2.776  11.226  0.00  0.00    +0.080 A 
ATOM      4  C   UNL     1       2.810  -3.292  12.154  0.00  0.00    +0.031 A 
ATOM      5  C   UNL     1       2.396  -3.815  13.350  0.00  0.00    +0.025 A 
ATOM      6  C   UNL     1       1.047  -3.859  13.695  0.00  0.00    +0.035 A 
ATOM      7  C   UNL     1       0.104  -3.361  12.806  0.00  0.00    +0.040 A 
ATOM      8  C   UNL     1       0.516  -2.836  11.607  0.00  0.00    +0.042 A 
ATOM      9  S   UNL     1      -0.303  -2.104  10.210  0.00  0.00    -0.061 S 
ENDROOT
BRANCH   6  10
ATOM     10  N   UNL     1       0.647  -4.400  14.925  0.00  0.00    -0.285 N 
ATOM     11  C   UNL     1      -0.406  -3.874  15.581  0.00  0.00    +0.220 C 
ATOM     12  O   UNL     1      -1.062  -2.992  15.068  0.00  0.00    -0.275 OA
ATOM     13  H   UNL     1       1.128  -5.152  15.303  0.00  0.00    +0.155 HD
BRANCH  11  14
ATOM     14  C   UNL     1      -0.770  -4.383  16.952  0.00  0.00    +0.075 C 
BRANCH  14  15
ATOM     15  C   UNL     1       0.406  -4.165  17.906  0.00  0.00    +0.009 C 
ATOM     16  C   UNL     1       0.087  -4.794  19.263  0.00  0.00    +0.004 C 
ENDBRANCH  14  15
BRANCH  14  17
ATOM     17  C   UNL     1      -1.994  -3.625  17.470  0.00  0.00    +0.009 C 
ATOM     18  C   UNL     1      -3.211  -3.975  16.612  0.00  0.00    +0.004 C 
ENDBRANCH  14  17
ENDBRANCH  11  14
ENDBRANCH   6  10
BRANCH   1  19
ATOM     19  S   UNL     1       1.285  -1.047   7.639  0.00  0.00    -0.093 S 
BRANCH  19  20
ATOM     20  C   UNL     1       3.065  -1.050   7.292  0.00  0.00    +0.132 C 
BRANCH  20  27
ATOM     21  C   UNL     1       2.340   1.469   2.055  0.00  0.00    +0.153 A 
ATOM     22  N   UNL     1       3.620   1.261   2.246  0.00  0.00    -0.146 NA
ATOM     23  N   UNL     1       3.756   0.659   3.503  0.00  0.00    -0.159 N 
ATOM     24  C   UNL     1       4.829   0.223   4.222  0.00  0.00    +0.276 A 
ATOM     25  O   UNL     1       6.082   0.340   3.726  0.00  0.00    -0.266 OA
ATOM     26  C   UNL     1       4.618  -0.334   5.454  0.00  0.00    +0.096 A 
ATOM     27  C   UNL     1       3.314  -0.439   5.937  0.00  0.00    +0.061 A 
ATOM     28  N   UNL     1       2.300  -0.008   5.218  0.00  0.00    -0.215 NA
ATOM     29  C   UNL     1       2.493   0.538   4.012  0.00  0.00    +0.256 A 
ATOM     30  N   UNL     1       1.657   1.044   3.111  0.00  0.00    -0.194 NA
BRANCH  21  32
ATOM     31  C   UNL     1       1.658   3.616   1.019  0.00  0.00    +0.012 C 
ATOM     32  C   UNL     1       1.736   2.100   0.828  0.00  0.00    +0.075 C 
ENDBRANCH  21  32
ENDBRANCH  20  27
ENDBRANCH  19  20
ENDBRANCH   1  19
TORSDOF 8
