REMARK  Name = ZINC13123747
REMARK  5 active torsions:
REMARK  status: ('A' for Active; 'I' for Inactive)
REMARK    1  A    between atoms: C_1  and  C_2
REMARK    2  A    between atoms: C_5  and  C_8
REMARK    3  A    between atoms: C_11  and  C_18
REMARK    4  A    between atoms: C_23  and  O_24
REMARK    5  A    between atoms: O_24  and  C_25
REMARK                            x       y       z     vdW  Elec       q    Type
REMARK                         _______ _______ _______ _____ _____    ______ ____
ROOT
ATOM      1  C   UNL     1       0.047  -4.151   0.047  0.00  0.00    +0.165 C 
ATOM      2  C   UNL     1      -1.172  -4.682   0.751  0.00  0.00    +0.028 C 
ATOM      3  C   UNL     1      -1.119  -5.367   1.886  0.00  0.00    +0.043 C 
ATOM      4  N   UNL     1       0.096  -5.658   2.520  0.00  0.00    -0.283 N 
ATOM      5  C   UNL     1       1.257  -5.440   1.792  0.00  0.00    +0.219 A 
ATOM      6  N   UNL     1       1.248  -4.741   0.630  0.00  0.00    -0.222 N 
ATOM      7  N   UNL     1       2.564  -4.724   0.171  0.00  0.00    -0.156 NA
ATOM      8  C   UNL     1       3.279  -5.384   1.047  0.00  0.00    +0.247 A 
ATOM      9  N   UNL     1       2.484  -5.815   2.028  0.00  0.00    -0.201 NA
ATOM     10  H   UNL     1       0.125  -5.997   3.428  0.00  0.00    +0.155 HD
ENDROOT
BRANCH   1  15
ATOM     11  C   UNL     1       0.248   1.595   0.626  0.00  0.00    +0.044 C 
ATOM     12  C   UNL     1       0.195   0.096   0.475  0.00  0.00    -0.050 A 
ATOM     13  C   UNL     1       0.126  -0.469  -0.784  0.00  0.00    +0.004 A 
ATOM     14  C   UNL     1       0.078  -1.844  -0.923  0.00  0.00    +0.006 A 
ATOM     15  C   UNL     1       0.100  -2.653   0.198  0.00  0.00    -0.019 A 
ATOM     16  C   UNL     1       0.170  -2.087   1.457  0.00  0.00    +0.006 A 
ATOM     17  C   UNL     1       0.222  -0.713   1.596  0.00  0.00    +0.004 A 
ENDBRANCH   1  15
BRANCH   3  18
ATOM     18  C   UNL     1      -2.380  -5.837   2.501  0.00  0.00    +0.038 A 
ATOM     19  C   UNL     1      -3.258  -6.640   1.774  0.00  0.00    +0.013 A 
ATOM     20  C   UNL     1      -4.432  -7.075   2.352  0.00  0.00    +0.001 A 
ATOM     21  C   UNL     1      -4.744  -6.718   3.652  0.00  0.00    +0.004 A 
ATOM     22  C   UNL     1      -3.881  -5.922   4.383  0.00  0.00    +0.046 A 
ATOM     23  C   UNL     1      -2.695  -5.483   3.818  0.00  0.00    +0.136 A 
BRANCH  23  24
ATOM     24  O   UNL     1      -1.844  -4.706   4.537  0.00  0.00    -0.434 OA
BRANCH  24  25
ATOM     25  C   UNL     1      -2.231  -4.385   5.874  0.00  0.00    +0.541 C 
ATOM     26  F   UNL     1      -3.446  -3.692   5.854  0.00  0.00    -0.166 F 
ATOM     27  F   UNL     1      -2.380  -5.564   6.613  0.00  0.00    -0.166 F 
ENDBRANCH  24  25
ENDBRANCH  23  24
ENDBRANCH   3  18
TORSDOF 4
