REMARK  Name = ZINC27528744
REMARK  8 active torsions:
REMARK  status: ('A' for Active; 'I' for Inactive)
REMARK    1  A    between atoms: C_1  and  C_2
REMARK    2  A    between atoms: C_5  and  N_8
REMARK    3  A    between atoms: N_8  and  C_9
REMARK    4  A    between atoms: C_9  and  C_10
REMARK    5  A    between atoms: C_10  and  C_11
REMARK    6  A    between atoms: C_14  and  N_17
REMARK    7  A    between atoms: N_17  and  C_18
REMARK    8  A    between atoms: C_18  and  C_19
REMARK                            x       y       z     vdW  Elec       q    Type
REMARK                         _______ _______ _______ _____ _____    ______ ____
ROOT
ATOM      1  C   UNL     1       1.156   3.166   0.008  0.00  0.00    -0.046 A 
ATOM      2  C   UNL     1       1.173   1.783   0.000  0.00  0.00    +0.005 A 
ATOM      3  C   UNL     1      -0.013   1.076   0.008  0.00  0.00    +0.023 A 
ATOM      4  C   UNL     1      -1.224   1.755   0.017  0.00  0.00    +0.027 A 
ATOM      5  C   UNL     1      -1.239   3.144   0.030  0.00  0.00    +0.023 A 
ATOM      6  C   UNL     1      -0.049   3.845   0.023  0.00  0.00    +0.005 A 
ENDROOT
BRANCH   4   7
ATOM      7  N   UNL     1      -2.426   1.042   0.019  0.00  0.00    -0.343 N 
ATOM      8  H   UNL     1      -2.413  -0.058   0.013  0.00  0.00    +0.146 HD
BRANCH   7   9
ATOM      9  C   UNL     1      -3.703   1.760   0.029  0.00  0.00    +0.109 C 
BRANCH   9  10
ATOM     10  C   UNL     1      -4.854   0.752   0.029  0.00  0.00    +0.060 C 
ATOM     11  C   UNL     1      -4.883  -0.052   1.349  0.00  0.00    +0.129 C 
ATOM     12  C   UNL     1      -6.014   0.557   2.149  0.00  0.00    +0.308 C 
ATOM     13  O   UNL     1      -6.380   0.175   3.235  0.00  0.00    -0.251 OA
ATOM     14  O   UNL     1      -6.549   1.585   1.473  0.00  0.00    -0.458 OA
ATOM     15  C   UNL     1      -6.216   1.473   0.062  0.00  0.00    +0.118 C 
ATOM     16  C   UNL     1      -7.264   0.641  -0.671  0.00  0.00    +0.048 C 
ATOM     17  C   UNL     1      -8.614   1.360  -0.621  0.00  0.00    +0.004 C 
ATOM     18  C   UNL     1      -8.483   2.736  -1.277  0.00  0.00    +0.000 C 
ATOM     19  C   UNL     1      -7.445   3.567  -0.520  0.00  0.00    +0.004 C 
ATOM     20  C   UNL     1      -6.090   2.856  -0.570  0.00  0.00    +0.048 C 
ENDBRANCH   9  10
ENDBRANCH   7   9
ENDBRANCH   4   7
BRANCH   1  21
ATOM     21  C   UNL     1       2.452   3.935  -0.000  0.00  0.00    +0.054 C 
BRANCH  21  22
ATOM     22  C   UNL     1       2.877   4.203  -1.445  0.00  0.00    +0.106 C 
BRANCH  22  23
ATOM     23  N   UNL     1       4.137   4.950  -1.453  0.00  0.00    -0.344 N 
ATOM     24  H   UNL     1       4.619   5.225  -0.504  0.00  0.00    +0.146 HD
BRANCH  23  29
ATOM     25  C   UNL     1       6.529   6.422  -6.380  0.00  0.00    +0.044 C 
ATOM     26  C   UNL     1       5.893   6.030  -5.071  0.00  0.00    -0.050 A 
ATOM     27  C   UNL     1       6.501   6.378  -3.878  0.00  0.00    +0.005 A 
ATOM     28  C   UNL     1       5.921   6.021  -2.676  0.00  0.00    +0.023 A 
ATOM     29  C   UNL     1       4.726   5.313  -2.667  0.00  0.00    +0.027 A 
ATOM     30  C   UNL     1       4.121   4.961  -3.867  0.00  0.00    +0.023 A 
ATOM     31  C   UNL     1       4.704   5.325  -5.065  0.00  0.00    +0.005 A 
ENDBRANCH  23  29
ENDBRANCH  22  23
ENDBRANCH  21  22
ENDBRANCH   1  21
TORSDOF 7
