REMARK  Name = ZINC20990124
REMARK  6 active torsions:
REMARK  status: ('A' for Active; 'I' for Inactive)
REMARK    1  A    between atoms: C_1  and  C_2
REMARK    2  A    between atoms: C_7  and  S_8
REMARK    3  A    between atoms: S_8  and  N_11
REMARK    4  A    between atoms: N_11  and  C_12
REMARK    5  A    between atoms: C_12  and  C_13
REMARK    6  A    between atoms: C_13  and  C_14
REMARK                            x       y       z     vdW  Elec       q    Type
REMARK                         _______ _______ _______ _____ _____    ______ ____
ROOT
ATOM      1  C   UNL     1      -1.479   1.860   0.659  0.00  0.00    +0.046 C 
ATOM      2  C   UNL     1      -0.303   1.053   0.173  0.00  0.00    -0.023 A 
ATOM      3  C   UNL     1      -0.448  -0.297  -0.064  0.00  0.00    +0.016 A 
ATOM      4  C   UNL     1       0.637  -1.042  -0.519  0.00  0.00    +0.011 A 
ATOM      5  C   UNL     1       1.877  -0.413  -0.735  0.00  0.00    +0.049 A 
ATOM      6  C   UNL     1       2.003   0.949  -0.489  0.00  0.00    +0.055 A 
ATOM      7  C   UNL     1       0.920   1.672  -0.040  0.00  0.00    +0.110 A 
ATOM      8  N   UNL     1       2.767  -1.374  -1.180  0.00  0.00    -0.357 N 
ATOM      9  H   UNL     1       3.807  -1.098  -1.409  0.00  0.00    +0.166 HD
ATOM     10  C   UNL     1       2.169  -2.570  -1.265  0.00  0.00    +0.028 A 
ATOM     11  C   UNL     1       0.846  -2.449  -0.867  0.00  0.00    +0.046 A 
ATOM     12  C   UNL     1      -0.048  -3.547  -0.840  0.00  0.00    +0.165 C 
ATOM     13  O   UNL     1      -1.210  -3.405  -0.520  0.00  0.00    -0.292 OA
ATOM     14  C   UNL     1       0.499  -4.905  -1.224  0.00  0.00    +0.080 C 
ATOM     15  C   UNL     1       1.604  -4.748  -2.268  0.00  0.00    +0.014 C 
ATOM     16  C   UNL     1       2.749  -3.890  -1.714  0.00  0.00    +0.054 C 
ENDROOT
BRANCH   7  17
ATOM     17  S   UNL     1       1.089   3.399   0.268  0.00  0.00    +0.059 S 
ATOM     18  O   UNL     1       2.453   3.722   0.034  0.00  0.00    -0.153 OA
ATOM     19  O   UNL     1       0.025   4.041  -0.422  0.00  0.00    -0.153 OA
BRANCH  17  20
ATOM     20  N   UNL     1       0.817   3.637   1.884  0.00  0.00    -0.190 NA
ATOM     21  H   UNL     1      -0.145   4.059   2.211  0.00  0.00    +0.148 HD
BRANCH  20  22
ATOM     22  C   UNL     1       1.751   3.092   2.872  0.00  0.00    +0.110 C 
BRANCH  22  23
ATOM     23  C   UNL     1       1.477   3.727   4.237  0.00  0.00    +0.047 C 
BRANCH  23  24
ATOM     24  C   UNL     1       2.439   3.166   5.254  0.00  0.00    -0.072 C 
ATOM     25  C   UNL     1       3.523   3.831   5.495  0.00  0.00    -0.028 C 
ATOM     26  C   UNL     1       4.577   3.395   6.470  0.00  0.00    +0.027 C 
ATOM     27  C   UNL     1       4.012   2.334   7.417  0.00  0.00    +0.004 C 
ATOM     28  C   UNL     1       3.317   1.255   6.577  0.00  0.00    +0.005 C 
ATOM     29  C   UNL     1       2.076   1.876   5.928  0.00  0.00    +0.030 C 
ENDBRANCH  23  24
ENDBRANCH  22  23
ENDBRANCH  20  22
ENDBRANCH  17  20
ENDBRANCH   7  17
TORSDOF 5
