REMARK  Name = ZINC12735789
REMARK  10 active torsions:
REMARK  status: ('A' for Active; 'I' for Inactive)
REMARK    1  A    between atoms: C_1  and  C_2
REMARK    2  A    between atoms: C_2  and  C_3
REMARK    3  A    between atoms: C_3  and  N_4
REMARK    4  A    between atoms: N_4  and  C_5
REMARK    5  A    between atoms: N_4  and  C_17
REMARK    6  A    between atoms: C_5  and  C_6
REMARK    7  A    between atoms: C_17  and  C_18
REMARK    8  A    between atoms: N_20  and  C_21
REMARK    9  A    between atoms: C_23  and  C_31
REMARK   10  A    between atoms: C_25  and  C_27
REMARK                            x       y       z     vdW  Elec       q    Type
REMARK                         _______ _______ _______ _____ _____    ______ ____
ROOT
ATOM      1  C   UNL     1       1.156  -2.891   2.421  0.00  0.00    +0.019 C 
ENDROOT
BRANCH   1   2
ATOM      2  C   UNL     1       0.250  -2.651   3.601  0.00  0.00    +0.201 C 
ATOM      3  O   UNL     1      -0.737  -1.958   3.476  0.00  0.00    -0.278 OA
ATOM      4  N   UNL     1       0.537  -3.207   4.795  0.00  0.00    -0.287 N 
ATOM      5  H   UNL     1       1.361  -3.705   4.912  0.00  0.00    +0.155 HD
BRANCH   4   6
ATOM      6  C   UNL     1      -0.354  -3.066   5.864  0.00  0.00    +0.034 A 
ATOM      7  C   UNL     1       0.128  -2.953   7.162  0.00  0.00    +0.035 A 
ATOM      8  C   UNL     1      -0.754  -2.813   8.215  0.00  0.00    +0.057 A 
ATOM      9  C   UNL     1      -2.116  -2.786   7.979  0.00  0.00    +0.024 A 
ATOM     10  C   UNL     1      -2.600  -2.898   6.689  0.00  0.00    +0.057 A 
ATOM     11  C   UNL     1      -1.723  -3.032   5.630  0.00  0.00    +0.035 A 
BRANCH  10  12
ATOM     12  C   UNL     1      -4.085  -2.869   6.436  0.00  0.00    +0.417 C 
ATOM     13  F   UNL     1      -4.496  -1.548   6.225  0.00  0.00    -0.166 F 
ATOM     14  F   UNL     1      -4.381  -3.636   5.304  0.00  0.00    -0.166 F 
ATOM     15  F   UNL     1      -4.757  -3.395   7.545  0.00  0.00    -0.166 F 
ENDBRANCH  10  12
BRANCH   8  16
ATOM     16  C   UNL     1      -0.231  -2.691   9.623  0.00  0.00    +0.417 C 
ATOM     17  F   UNL     1       1.167  -2.745   9.608  0.00  0.00    -0.166 F 
ATOM     18  F   UNL     1      -0.645  -1.471  10.170  0.00  0.00    -0.166 F 
ATOM     19  F   UNL     1      -0.730  -3.743  10.399  0.00  0.00    -0.166 F 
ENDBRANCH   8  16
ENDBRANCH   4   6
ENDBRANCH   1   2
BRANCH   1  20
ATOM     20  N   UNL     1       0.630  -2.183   1.247  0.00  0.00    +0.390 N 
ATOM     21  H   UNL     1      -0.326  -2.464   1.084  0.00  0.00    -0.081 HD
BRANCH  20  22
ATOM     22  C   UNL     1       0.679  -0.734   1.486  0.00  0.00    -0.078 C 
BRANCH  22  24
ATOM     23  C   UNL     1      -0.062   1.495   0.636  0.00  0.00    +0.002 C 
ATOM     24  C   UNL     1       0.003  -0.002   0.326  0.00  0.00    -0.022 C 
ENDBRANCH  22  24
ENDBRANCH  20  22
BRANCH  20  25
ATOM     25  C   UNL     1       1.444  -2.512   0.070  0.00  0.00    -0.003 C 
BRANCH  25  26
ATOM     26  C   UNL     1       1.246  -3.963  -0.288  0.00  0.00    +0.094 A 
ATOM     27  N   UNL     1       1.870  -4.447  -1.394  0.00  0.00    -0.311 N 
ATOM     28  H   UNL     1       2.429  -3.867  -1.934  0.00  0.00    +0.170 HD
ATOM     29  C   UNL     1       1.706  -5.748  -1.733  0.00  0.00    +0.266 A 
ATOM     30  O   UNL     1       2.253  -6.213  -2.719  0.00  0.00    -0.267 OA
ATOM     31  C   UNL     1       0.893  -6.542  -0.923  0.00  0.00    +0.102 A 
ATOM     32  C   UNL     1       0.258  -6.016   0.216  0.00  0.00    +0.085 A 
ATOM     33  N   UNL     1       0.493  -4.688   0.476  0.00  0.00    -0.235 NA
ATOM     34  C   UNL     1      -0.529  -6.921   0.940  0.00  0.00    +0.036 A 
ATOM     35  C   UNL     1      -0.639  -8.204   0.532  0.00  0.00    +0.048 A 
ATOM     36  S   UNL     1       0.377  -8.238  -0.936  0.00  0.00    -0.090 S 
ENDBRANCH  25  26
ENDBRANCH  20  25
ENDBRANCH   1  20
TORSDOF 9
