REMARK  Name = ZINC38708100
REMARK  8 active torsions:
REMARK  status: ('A' for Active; 'I' for Inactive)
REMARK    1  A    between atoms: C_1  and  C_2
REMARK    2  A    between atoms: C_2  and  C_3
REMARK    3  A    between atoms: C_2  and  C_4
REMARK    4  A    between atoms: C_4  and  N_5
REMARK    5  A    between atoms: C_8  and  N_19
REMARK    6  A    between atoms: C_14  and  C_17
REMARK    7  A    between atoms: C_14  and  C_18
REMARK    8  A    between atoms: C_20  and  C_22
REMARK                            x       y       z     vdW  Elec       q    Type
REMARK                         _______ _______ _______ _____ _____    ______ ____
ROOT
ATOM      1  N   UNL     1      -2.236   0.026  -1.163  0.00  0.00    -0.267 N 
ATOM      2  C   UNL     1      -2.739   1.321  -1.349  0.00  0.00    +0.080 A 
ATOM      3  C   UNL     1      -2.041   2.421  -0.882  0.00  0.00    +0.050 A 
ATOM      4  C   UNL     1      -2.557   3.697  -1.072  0.00  0.00    +0.036 A 
ATOM      5  C   UNL     1      -3.770   3.866  -1.728  0.00  0.00    +0.027 A 
ATOM      6  C   UNL     1      -4.465   2.767  -2.196  0.00  0.00    +0.049 A 
ATOM      7  C   UNL     1      -3.954   1.493  -2.011  0.00  0.00    +0.142 A 
ATOM      8  O   UNL     1      -4.626   0.408  -2.480  0.00  0.00    -0.489 OA
ATOM      9  C   UNL     1      -4.119  -0.214  -3.657  0.00  0.00    +0.244 C 
ATOM     10  C   UNL     1      -2.599  -0.342  -3.581  0.00  0.00    +0.076 C 
ATOM     11  C   UNL     1      -2.183  -0.822  -2.215  0.00  0.00    +0.229 C 
ATOM     12  O   UNL     1      -1.807  -1.964  -2.058  0.00  0.00    -0.275 OA
ATOM     13  C   UNL     1      -2.120  -1.342  -4.635  0.00  0.00    +0.024 C 
ATOM     14  C   UNL     1      -1.961   1.021  -3.852  0.00  0.00    +0.024 C 
ENDROOT
BRANCH   4  15
ATOM     15  N   UNL     1      -1.855   4.812  -0.602  0.00  0.00    -0.279 N 
ATOM     16  C   UNL     1      -1.870   5.963  -1.303  0.00  0.00    +0.284 C 
ATOM     17  O   UNL     1      -2.562   6.059  -2.297  0.00  0.00    -0.266 OA
ATOM     18  H   UNL     1      -1.358   4.757   0.230  0.00  0.00    +0.155 HD
BRANCH  16  19
ATOM     19  C   UNL     1      -1.042   7.110  -0.863  0.00  0.00    +0.194 A 
ATOM     20  C   UNL     1      -1.083   8.256  -1.586  0.00  0.00    +0.103 A 
ATOM     21  C   UNL     1      -0.244   9.385  -1.150  0.00  0.00    +0.193 A 
ATOM     22  O   UNL     1      -0.387  10.507  -1.602  0.00  0.00    -0.287 OA
ATOM     23  C   UNL     1       0.780   9.076  -0.132  0.00  0.00    +0.064 A 
ATOM     24  C   UNL     1       1.796   9.978   0.177  0.00  0.00    +0.015 A 
ATOM     25  C   UNL     1       2.728   9.648   1.123  0.00  0.00    +0.001 A 
ATOM     26  C   UNL     1       2.667   8.423   1.771  0.00  0.00    +0.004 A 
ATOM     27  C   UNL     1       1.668   7.519   1.479  0.00  0.00    +0.047 A 
ATOM     28  C   UNL     1       0.706   7.835   0.524  0.00  0.00    +0.139 A 
ATOM     29  O   UNL     1      -0.289   6.973   0.238  0.00  0.00    -0.450 OA
ENDBRANCH  16  19
ENDBRANCH   4  15
BRANCH   1  30
ATOM     30  C   UNL     1      -1.767  -0.403   0.157  0.00  0.00    +0.116 C 
BRANCH  30  32
ATOM     31  C   UNL     1      -3.565  -2.130   0.315  0.00  0.00    +0.009 C 
ATOM     32  C   UNL     1      -2.955  -0.897   0.985  0.00  0.00    +0.001 C 
ATOM     33  C   UNL     1      -2.478  -1.265   2.392  0.00  0.00    +0.009 C 
ENDBRANCH  30  32
ENDBRANCH   1  30
TORSDOF 4
