REMARK  Name = ZINC39909565
REMARK  12 active torsions:
REMARK  status: ('A' for Active; 'I' for Inactive)
REMARK    1  A    between atoms: C_1  and  C_2
REMARK    2  A    between atoms: C_2  and  C_3
REMARK    3  A    between atoms: C_3  and  C_4
REMARK    4  A    between atoms: C_4  and  C_5
REMARK    5  A    between atoms: C_5  and  C_6
REMARK    6  A    between atoms: C_6  and  O_7
REMARK    7  A    between atoms: O_7  and  C_8
REMARK    8  A    between atoms: C_11  and  C_15
REMARK    9  A    between atoms: N_17  and  C_18
REMARK   10  A    between atoms: N_17  and  C_25
REMARK   11  A    between atoms: C_18  and  C_19
REMARK   12  A    between atoms: C_20  and  C_24
REMARK                            x       y       z     vdW  Elec       q    Type
REMARK                         _______ _______ _______ _____ _____    ______ ____
ROOT
ATOM      1  C   UNL     1       2.697 -10.072  -4.642  0.00  0.00    +0.247 C 
ATOM      2  O   UNL     1       3.211 -10.206  -3.549  0.00  0.00    -0.270 OA
ATOM      3  N   UNL     1       1.574 -10.751  -4.947  0.00  0.00    -0.288 N 
ENDROOT
BRANCH   1   7
ATOM      4  C   UNL     1       4.443  -7.464  -7.505  0.00  0.00    +0.157 A 
ATOM      5  C   UNL     1       4.727  -8.825  -7.543  0.00  0.00    +0.085 A 
ATOM      6  C   UNL     1       4.162  -9.674  -6.615  0.00  0.00    +0.036 A 
ATOM      7  C   UNL     1       3.304  -9.166  -5.637  0.00  0.00    +0.040 A 
ATOM      8  C   UNL     1       3.021  -7.798  -5.603  0.00  0.00    +0.036 A 
ATOM      9  C   UNL     1       3.594  -6.954  -6.530  0.00  0.00    +0.085 A 
ATOM     10 CL   UNL     1       3.248  -5.254  -6.484  0.00  0.00    -0.080 Cl
ATOM     11 CL   UNL     1       5.793  -9.455  -8.759  0.00  0.00    -0.080 Cl
BRANCH   4  12
ATOM     12  O   UNL     1       5.001  -6.631  -8.420  0.00  0.00    -0.489 OA
BRANCH  12  13
ATOM     13  C   UNL     1       6.264  -6.051  -8.085  0.00  0.00    +0.229 C 
BRANCH  13  14
ATOM     14  C   UNL     1       6.731  -5.149  -9.229  0.00  0.00    +0.041 C 
BRANCH  14  15
ATOM     15  C   UNL     1       8.082  -4.529  -8.870  0.00  0.00    +0.003 C 
BRANCH  15  16
ATOM     16  C   UNL     1       8.549  -3.626 -10.013  0.00  0.00    -0.000 C 
BRANCH  16  18
ATOM     17  C   UNL     1      10.368  -2.103 -10.798  0.00  0.00    +0.004 C 
ATOM     18  C   UNL     1       9.901  -3.006  -9.654  0.00  0.00    -0.003 C 
ENDBRANCH  16  18
ENDBRANCH  15  16
ENDBRANCH  14  15
ENDBRANCH  13  14
ENDBRANCH  12  13
ENDBRANCH   4  12
ENDBRANCH   1   7
BRANCH   3  19
ATOM     19  C   UNL     1       0.413 -10.041  -5.489  0.00  0.00    +0.099 C 
ATOM     20  C   UNL     1       0.853  -9.142  -6.657  0.00  0.00    +0.047 C 
ATOM     21  C   UNL     1      -0.285  -8.159  -7.024  0.00  0.00    +0.168 C 
ATOM     22  S   UNL     1      -1.177  -7.960  -5.428  0.00  0.00    -0.029 S 
ATOM     23  O   UNL     1      -2.501  -8.452  -5.574  0.00  0.00    -0.174 OA
ATOM     24  O   UNL     1      -0.971  -6.639  -4.946  0.00  0.00    -0.174 OA
ATOM     25  C   UNL     1      -0.210  -9.135  -4.389  0.00  0.00    +0.188 C 
ENDBRANCH   3  19
BRANCH   3  26
ATOM     26  C   UNL     1       1.513 -12.200  -4.735  0.00  0.00    +0.151 C 
BRANCH  26  27
ATOM     27  C   UNL     1       1.006 -12.483  -3.344  0.00  0.00    +0.010 A 
ATOM     28  C   UNL     1      -0.269 -12.661  -2.920  0.00  0.00    -0.039 A 
ATOM     29  C   UNL     1      -0.500 -12.914  -1.581  0.00  0.00    +0.011 A 
ATOM     30  C   UNL     1       0.554 -12.976  -0.732  0.00  0.00    +0.046 A 
ATOM     31  S   UNL     1       1.931 -12.680  -1.829  0.00  0.00    -0.100 S 
ATOM     32  C   UNL     1      -1.416 -12.583  -3.893  0.00  0.00    +0.044 C 
ENDBRANCH  26  27
ENDBRANCH   3  26
TORSDOF 10
