REMARK  Name = ZINC08073086
REMARK  11 active torsions:
REMARK  status: ('A' for Active; 'I' for Inactive)
REMARK    1  A    between atoms: C_1  and  C_2
REMARK    2  A    between atoms: C_6  and  C_29
REMARK    3  A    between atoms: C_7  and  O_8
REMARK    4  A    between atoms: O_8  and  C_9
REMARK    5  A    between atoms: C_9  and  C_10
REMARK    6  A    between atoms: N_12  and  N_13
REMARK    7  A    between atoms: C_14  and  C_16
REMARK    8  A    between atoms: C_16  and  C_18
REMARK    9  A    between atoms: C_16  and  O_19
REMARK   10  A    between atoms: O_19  and  C_20
REMARK   11  A    between atoms: C_25  and  N_26
REMARK                            x       y       z     vdW  Elec       q    Type
REMARK                         _______ _______ _______ _____ _____    ______ ____
ROOT
ATOM      1  N   UNL     1       0.035   1.228   0.349  0.00  0.00    -0.231 N 
ATOM      2  C   UNL     1      -1.180   1.788   0.184  0.00  0.00    +0.270 C 
ATOM      3  O   UNL     1      -1.277   2.983   0.000  0.00  0.00    -0.270 OA
ATOM      4  H   UNL     1       0.112   0.273   0.496  0.00  0.00    +0.173 HD
ENDROOT
BRANCH   1   7
ATOM      5  C   UNL     1       2.401   1.465   0.462  0.00  0.00    +0.267 C 
ATOM      6  O   UNL     1       2.498   0.270   0.645  0.00  0.00    -0.271 OA
ATOM      7  N   UNL     1       1.186   2.026   0.302  0.00  0.00    -0.231 N 
ATOM      8  H   UNL     1       1.108   2.981   0.155  0.00  0.00    +0.173 HD
BRANCH   5   9
ATOM      9  C   UNL     1       3.639   2.322   0.411  0.00  0.00    +0.326 C 
BRANCH   9  10
ATOM     10  O   UNL     1       4.794   1.503   0.605  0.00  0.00    -0.482 OA
BRANCH  10  17
ATOM     11  C   UNL     1       6.111   1.721  -1.884  0.00  0.00    +0.047 C 
ATOM     12  C   UNL     1       6.696   2.263  -0.606  0.00  0.00    -0.009 A 
ATOM     13  C   UNL     1       7.921   2.901  -0.621  0.00  0.00    +0.007 A 
ATOM     14  C   UNL     1       8.460   3.393   0.553  0.00  0.00    +0.001 A 
ATOM     15  C   UNL     1       7.773   3.253   1.744  0.00  0.00    +0.007 A 
ATOM     16  C   UNL     1       6.545   2.621   1.764  0.00  0.00    -0.009 A 
ATOM     17  C   UNL     1       6.002   2.126   0.588  0.00  0.00    +0.127 A 
ATOM     18  C   UNL     1       5.796   2.469   3.063  0.00  0.00    +0.047 C 
ENDBRANCH  10  17
ENDBRANCH   9  10
ENDBRANCH   5   9
ENDBRANCH   1   7
BRANCH   2  19
ATOM     19  C   UNL     1      -2.418   0.930   0.228  0.00  0.00    +0.257 C 
ATOM     20  C   UNL     1      -2.405  -0.045  -0.951  0.00  0.00    +0.062 C 
BRANCH  19  21
ATOM     21  O   UNL     1      -3.578   1.761   0.146  0.00  0.00    -0.478 OA
BRANCH  21  22
ATOM     22  C   UNL     1      -4.728   1.270   0.677  0.00  0.00    +0.152 A 
ATOM     23  C   UNL     1      -4.770  -0.029   1.163  0.00  0.00    +0.048 A 
ATOM     24  C   UNL     1      -5.940  -0.525   1.704  0.00  0.00    +0.004 A 
ATOM     25  C   UNL     1      -7.069   0.271   1.760  0.00  0.00    +0.002 A 
ATOM     26  C   UNL     1      -7.030   1.565   1.277  0.00  0.00    +0.036 A 
ATOM     27  C   UNL     1      -5.861   2.068   0.740  0.00  0.00    +0.168 A 
BRANCH  27  28
ATOM     28  N   UNL     1      -5.818   3.456   0.228  0.00  0.00    +0.060 N 
ATOM     29  O   UNL     1      -6.812   4.157   0.283  0.00  0.00    -0.126 OA
ATOM     30  O   UNL     1      -4.788   3.898  -0.249  0.00  0.00    -0.126 OA
ENDBRANCH  27  28
ENDBRANCH  21  22
ENDBRANCH  19  21
ENDBRANCH   2  19
TORSDOF 8
