REMARK  Name = ZINC08845353
REMARK  8 active torsions:
REMARK  status: ('A' for Active; 'I' for Inactive)
REMARK    1  A    between atoms: C_1  and  C_2
REMARK    2  A    between atoms: C_2  and  O_3
REMARK    3  A    between atoms: O_3  and  C_4
REMARK    4  A    between atoms: C_7  and  C_10
REMARK    5  A    between atoms: C_13  and  C_28
REMARK    6  A    between atoms: N_20  and  C_21
REMARK    7  A    between atoms: C_21  and  C_22
REMARK    8  A    between atoms: C_33  and  O_34
REMARK                            x       y       z     vdW  Elec       q    Type
REMARK                         _______ _______ _______ _____ _____    ______ ____
ROOT
ATOM      1  C   UNL     1       1.396  -5.624   1.866  0.00  0.00    +0.142 C 
ATOM      2  C   UNL     1       2.580  -6.345   1.281  0.00  0.00    +0.035 A 
ATOM      3  C   UNL     1       3.333  -6.643   0.140  0.00  0.00    +0.102 A 
ATOM      4  N   UNL     1       4.324  -7.428   0.516  0.00  0.00    -0.173 NA
ATOM      5  N   UNL     1       4.271  -7.654   1.780  0.00  0.00    -0.272 N 
ATOM      6  H   UNL     1       4.899  -8.204   2.274  0.00  0.00    +0.189 HD
ATOM      7  C   UNL     1       3.200  -7.005   2.325  0.00  0.00    +0.126 A 
ATOM      8  C   UNL     1       2.454  -6.731   3.558  0.00  0.00    +0.266 C 
ATOM      9  O   UNL     1       2.744  -7.167   4.656  0.00  0.00    -0.268 OA
ATOM     10  N   UNL     1       1.402  -5.929   3.303  0.00  0.00    -0.281 N 
ENDROOT
BRANCH   1  14
ATOM     11  C   UNL     1       1.791  -1.413   1.256  0.00  0.00    +0.121 A 
ATOM     12  C   UNL     1       2.646  -2.072   2.127  0.00  0.00    +0.046 A 
ATOM     13  C   UNL     1       2.516  -3.433   2.323  0.00  0.00    +0.009 A 
ATOM     14  C   UNL     1       1.535  -4.139   1.651  0.00  0.00    -0.022 A 
ATOM     15  C   UNL     1       0.682  -3.485   0.782  0.00  0.00    +0.009 A 
ATOM     16  C   UNL     1       0.804  -2.122   0.588  0.00  0.00    +0.046 A 
BRANCH  11  17
ATOM     17  O   UNL     1       1.916  -0.073   1.062  0.00  0.00    -0.492 OA
BRANCH  17  19
ATOM     18  C   UNL     1       2.940   2.083   1.439  0.00  0.00    +0.048 C 
ATOM     19  C   UNL     1       2.954   0.592   1.784  0.00  0.00    +0.225 C 
ENDBRANCH  17  19
ENDBRANCH  11  17
ENDBRANCH   1  14
BRANCH   3  20
ATOM     20  C   UNL     1       3.066  -6.165  -1.239  0.00  0.00    +0.044 A 
ATOM     21  C   UNL     1       1.910  -5.439  -1.516  0.00  0.00    +0.014 A 
ATOM     22  C   UNL     1       1.665  -4.996  -2.800  0.00  0.00    +0.001 A 
ATOM     23  C   UNL     1       2.565  -5.271  -3.815  0.00  0.00    +0.004 A 
ATOM     24  C   UNL     1       3.715  -5.991  -3.551  0.00  0.00    +0.046 A 
ATOM     25  C   UNL     1       3.975  -6.436  -2.265  0.00  0.00    +0.126 A 
BRANCH  25  26
ATOM     26  O   UNL     1       5.109  -7.138  -2.003  0.00  0.00    -0.506 OA
ATOM     27  H   UNL     1       5.011  -8.095  -2.105  0.00  0.00    +0.292 HD
ENDBRANCH  25  26
ENDBRANCH   3  20
BRANCH  10  28
ATOM     28  C   UNL     1       0.432  -5.444   4.287  0.00  0.00    +0.145 C 
BRANCH  28  29
ATOM     29  C   UNL     1      -0.714  -6.419   4.386  0.00  0.00    -0.012 A 
ATOM     30  C   UNL     1      -1.823  -6.283   3.565  0.00  0.00    +0.008 A 
ATOM     31  C   UNL     1      -2.853  -7.202   3.691  0.00  0.00    +0.020 A 
ATOM     32  C   UNL     1      -2.740  -8.217   4.623  0.00  0.00    +0.111 A 
ATOM     33  N   UNL     1      -1.670  -8.315   5.387  0.00  0.00    -0.263 NA
ATOM     34  C   UNL     1      -0.669  -7.462   5.291  0.00  0.00    +0.115 A 
ENDBRANCH  28  29
ENDBRANCH  10  28
TORSDOF 7
