REMARK  Name = ZINC09585015
REMARK  7 active torsions:
REMARK  status: ('A' for Active; 'I' for Inactive)
REMARK    1  A    between atoms: C_1  and  C_2
REMARK    2  A    between atoms: C_5  and  C_21
REMARK    3  A    between atoms: C_8  and  C_10
REMARK    4  A    between atoms: C_10  and  S_11
REMARK    5  A    between atoms: S_11  and  C_12
REMARK    6  A    between atoms: C_26  and  O_27
REMARK    7  A    between atoms: O_27  and  C_28
REMARK                            x       y       z     vdW  Elec       q    Type
REMARK                         _______ _______ _______ _____ _____    ______ ____
ROOT
ATOM      1  C   UNL     1       2.036  -6.172  -0.209  0.00  0.00    +0.111 C 
ATOM      2  C   UNL     1       1.770  -4.696  -0.068  0.00  0.00    +0.235 C 
ATOM      3  O   UNL     1       2.691  -3.927   0.110  0.00  0.00    -0.274 OA
ATOM      4  N   UNL     1       0.506  -4.229  -0.141  0.00  0.00    -0.146 N 
ATOM      5  C   UNL     1       0.062  -2.828  -0.027  0.00  0.00    +0.323 C 
ATOM      6  O   UNL     1      -1.364  -2.899  -0.175  0.00  0.00    -0.450 OA
ATOM      7  C   UNL     1      -1.691  -4.199  -0.356  0.00  0.00    +0.218 C 
ATOM      8  N   UNL     1      -0.667  -4.972  -0.342  0.00  0.00    -0.140 NA
ENDROOT
BRANCH   5   9
ATOM      9  C   UNL     1       0.666  -1.991  -1.125  0.00  0.00    +0.055 A 
ATOM     10  C   UNL     1       1.275  -2.602  -2.204  0.00  0.00    +0.012 A 
ATOM     11  C   UNL     1       1.834  -1.835  -3.209  0.00  0.00    +0.001 A 
ATOM     12  C   UNL     1       1.781  -0.455  -3.139  0.00  0.00    +0.004 A 
ATOM     13  C   UNL     1       1.168   0.161  -2.065  0.00  0.00    +0.046 A 
ATOM     14  C   UNL     1       0.606  -0.607  -1.056  0.00  0.00    +0.128 A 
BRANCH  14  15
ATOM     15  O   UNL     1       0.002  -0.004   0.002  0.00  0.00    -0.495 OA
ATOM     16  C   UNL     1      -0.017   1.425   0.010  0.00  0.00    +0.277 C 
ENDBRANCH  14  15
ENDBRANCH   5   9
BRANCH   7  17
ATOM     17  C   UNL     1      -3.103  -4.686  -0.552  0.00  0.00    +0.175 C 
BRANCH  17  18
ATOM     18  S   UNL     1      -3.099  -6.485  -0.756  0.00  0.00    -0.058 S 
BRANCH  18  19
ATOM     19  C   UNL     1      -4.825  -6.774  -0.961  0.00  0.00    +0.258 A 
ATOM     20  N   UNL     1      -5.748  -5.846  -0.942  0.00  0.00    -0.203 NA
ATOM     21  C   UNL     1      -6.961  -6.434  -1.135  0.00  0.00    +0.110 A 
ATOM     22  C   UNL     1      -8.267  -5.947  -1.210  0.00  0.00    +0.031 A 
ATOM     23  C   UNL     1      -9.312  -6.822  -1.413  0.00  0.00    +0.002 A 
ATOM     24  C   UNL     1      -9.073  -8.181  -1.543  0.00  0.00    +0.004 A 
ATOM     25  C   UNL     1      -7.786  -8.676  -1.471  0.00  0.00    +0.048 A 
ATOM     26  C   UNL     1      -6.724  -7.811  -1.267  0.00  0.00    +0.156 A 
ATOM     27  O   UNL     1      -5.387  -7.981  -1.153  0.00  0.00    -0.431 OA
ENDBRANCH  18  19
ENDBRANCH  17  18
ENDBRANCH   7  17
TORSDOF 5
