REMARK  Name = ZINC65301359
REMARK  12 active torsions:
REMARK  status: ('A' for Active; 'I' for Inactive)
REMARK    1  A    between atoms: C_1  and  C_2
REMARK    2  A    between atoms: C_2  and  N_3
REMARK    3  A    between atoms: N_3  and  C_4
REMARK    4  A    between atoms: C_4  and  C_5
REMARK    5  A    between atoms: C_6  and  C_8
REMARK    6  A    between atoms: C_13  and  N_14
REMARK    7  A    between atoms: C_17  and  C_20
REMARK    8  A    between atoms: N_22  and  C_23
REMARK    9  A    between atoms: C_26  and  C_29
REMARK   10  A    between atoms: C_29  and  C_30
REMARK   11  A    between atoms: C_29  and  C_31
REMARK   12  A    between atoms: C_32  and  C_35
REMARK                            x       y       z     vdW  Elec       q    Type
REMARK                         _______ _______ _______ _____ _____    ______ ____
ROOT
ATOM      1  N   UNL     1      -1.769  -1.733  -5.191  0.00  0.00    -0.329 N 
ATOM      2  C   UNL     1      -2.564  -2.954  -5.000  0.00  0.00    +0.106 C 
ATOM      3  C   UNL     1      -3.434  -3.175  -6.241  0.00  0.00    +0.031 C 
ATOM      4  C   UNL     1      -4.266  -1.919  -6.506  0.00  0.00    +0.078 C 
ATOM      5  C   UNL     1      -3.334  -0.735  -6.776  0.00  0.00    +0.031 C 
ATOM      6  C   UNL     1      -2.463  -0.485  -5.535  0.00  0.00    +0.106 C 
ENDROOT
BRANCH   1  12
ATOM      7  C   UNL     1       0.440  -1.903  -6.161  0.00  0.00    +0.074 A 
ATOM      8  C   UNL     1       1.831  -1.921  -5.994  0.00  0.00    +0.098 A 
ATOM      9  N   UNL     1       2.360  -1.807  -4.795  0.00  0.00    -0.353 N 
ATOM     10  C   UNL     1       1.613  -1.673  -3.718  0.00  0.00    +0.107 A 
ATOM     11  C   UNL     1       0.200  -1.642  -3.763  0.00  0.00    +0.050 A 
ATOM     12  C   UNL     1      -0.397  -1.758  -5.046  0.00  0.00    +0.055 A 
ATOM     13  C   UNL     1      -0.384  -1.493  -2.494  0.00  0.00    +0.058 A 
ATOM     14  N   UNL     1       0.354  -1.400  -1.431  0.00  0.00    -0.213 NA
ATOM     15  S   UNL     1       1.935  -1.498  -1.981  0.00  0.00    +0.030 S 
ATOM     16  C   UNL     1      -1.885  -1.441  -2.366  0.00  0.00    +0.067 C 
ATOM     17  H   UNL     1       3.326  -1.821  -4.701  0.00  0.00    +0.166 HD
BRANCH   7  19
ATOM     18  N   UNL     1       0.121  -1.102  -8.447  0.00  0.00    -0.298 N 
ATOM     19  C   UNL     1      -0.141  -2.032  -7.507  0.00  0.00    +0.250 C 
ATOM     20  O   UNL     1      -0.859  -2.978  -7.772  0.00  0.00    -0.270 OA
BRANCH  18  22
ATOM     21  C   UNL     1       0.287  -2.006 -10.713  0.00  0.00    +0.024 C 
ATOM     22  C   UNL     1      -0.550  -1.164  -9.747  0.00  0.00    +0.104 C 
ENDBRANCH  18  22
BRANCH  18  23
ATOM     23  C   UNL     1       1.077  -0.028  -8.166  0.00  0.00    +0.104 C 
ATOM     24  C   UNL     1       0.326   1.204  -7.656  0.00  0.00    +0.024 C 
ENDBRANCH  18  23
ENDBRANCH   7  19
ENDBRANCH   1  12
BRANCH   4  25
ATOM     25  C   UNL     1      -5.149  -2.145  -7.707  0.00  0.00    +0.220 C 
ATOM     26  O   UNL     1      -5.116  -3.207  -8.292  0.00  0.00    -0.275 OA
ATOM     27  N   UNL     1      -5.975  -1.168  -8.130  0.00  0.00    -0.285 N 
ATOM     28  H   UNL     1      -5.946  -0.294  -7.711  0.00  0.00    +0.155 HD
BRANCH  27  29
ATOM     29  C   UNL     1      -6.873  -1.415  -9.174  0.00  0.00    +0.033 A 
ATOM     30  C   UNL     1      -7.190  -0.405 -10.073  0.00  0.00    +0.023 A 
ATOM     31  C   UNL     1      -8.077  -0.652 -11.102  0.00  0.00    +0.006 A 
ATOM     32  C   UNL     1      -8.651  -1.903 -11.238  0.00  0.00    -0.045 A 
ATOM     33  C   UNL     1      -8.338  -2.910 -10.344  0.00  0.00    +0.006 A 
ATOM     34  C   UNL     1      -7.447  -2.672  -9.316  0.00  0.00    +0.023 A 
BRANCH  32  35
ATOM     35  C   UNL     1      -9.618  -2.169 -12.362  0.00  0.00    +0.013 C 
ATOM     36  C   UNL     1      -9.077  -3.294 -13.246  0.00  0.00    +0.012 C 
ATOM     37  C   UNL     1     -10.972  -2.583 -11.782  0.00  0.00    +0.012 C 
ENDBRANCH  32  35
ENDBRANCH  27  29
ENDBRANCH   4  25
TORSDOF 7
