REMARK  Name = ZINC20867434
REMARK  5 active torsions:
REMARK  status: ('A' for Active; 'I' for Inactive)
REMARK    1  A    between atoms: C_1  and  C_2
REMARK    2  A    between atoms: C_2  and  C_3
REMARK    3  A    between atoms: C_6  and  N_9
REMARK    4  A    between atoms: N_9  and  C_10
REMARK    5  A    between atoms: C_10  and  C_11
REMARK                            x       y       z     vdW  Elec       q    Type
REMARK                         _______ _______ _______ _____ _____    ______ ____
ROOT
ATOM      1  N   UNL     1      -1.951  -1.787   2.464  0.00  0.00    -0.277 N 
ATOM      2  C   UNL     1      -0.815  -1.358   1.815  0.00  0.00    +0.136 C 
ATOM      3  N   UNL     1      -0.748  -0.594   0.784  0.00  0.00    -0.362 N 
ATOM      4  C   UNL     1       0.510  -0.189   0.186  0.00  0.00    +0.117 C 
ATOM      5  C   UNL     1       0.570   1.356   0.138  0.00  0.00    +0.191 C 
ATOM      6  S   UNL     1       2.362   1.677   0.431  0.00  0.00    -0.028 S 
ATOM      7  O   UNL     1       3.071   1.544  -0.794  0.00  0.00    -0.174 OA
ATOM      8  O   UNL     1       2.508   2.860   1.205  0.00  0.00    -0.174 OA
ATOM      9  C   UNL     1       2.680   0.206   1.518  0.00  0.00    +0.182 C 
ATOM     10  C   UNL     1       1.716  -0.822   0.897  0.00  0.00    +0.099 C 
ATOM     11  S   UNL     1       0.873  -1.741   2.239  0.00  0.00    -0.085 S 
ATOM     12  H   UNL     1      -1.670  -0.218   0.318  0.00  0.00    +0.162 HD
ENDROOT
BRANCH   1  16
ATOM     13  C   UNL     1      -1.658  -4.530   5.585  0.00  0.00    -0.048 A 
ATOM     14  C   UNL     1      -1.261  -4.890   4.311  0.00  0.00    +0.005 A 
ATOM     15  C   UNL     1      -1.357  -3.983   3.274  0.00  0.00    +0.024 A 
ATOM     16  C   UNL     1      -1.852  -2.708   3.512  0.00  0.00    +0.036 A 
ATOM     17  C   UNL     1      -2.244  -2.347   4.795  0.00  0.00    +0.024 A 
ATOM     18  C   UNL     1      -2.151  -3.261   5.826  0.00  0.00    +0.005 A 
BRANCH  13  20
ATOM     19  C   UNL     1      -0.180  -5.393   7.380  0.00  0.00    +0.009 C 
ATOM     20  C   UNL     1      -1.552  -5.522   6.715  0.00  0.00    +0.032 C 
ENDBRANCH  13  20
ENDBRANCH   1  16
BRANCH   1  21
ATOM     21  C   UNL     1      -3.263  -1.278   2.058  0.00  0.00    +0.149 C 
BRANCH  21  22
ATOM     22  C   UNL     1      -3.794  -2.110   0.919  0.00  0.00    -0.011 A 
ATOM     23  C   UNL     1      -3.691  -1.649  -0.381  0.00  0.00    +0.006 A 
ATOM     24  C   UNL     1      -4.173  -2.414  -1.426  0.00  0.00    +0.000 A 
ATOM     25  C   UNL     1      -4.768  -3.636  -1.172  0.00  0.00    +0.001 A 
ATOM     26  C   UNL     1      -4.876  -4.095   0.127  0.00  0.00    +0.020 A 
ATOM     27  C   UNL     1      -4.389  -3.332   1.173  0.00  0.00    +0.046 A 
ATOM     28 CL   UNL     1      -4.525  -3.909   2.805  0.00  0.00    -0.083 Cl
ENDBRANCH  21  22
ENDBRANCH   1  21
TORSDOF 4
