REMARK  Name = ZINC65135686
REMARK  13 active torsions:
REMARK  status: ('A' for Active; 'I' for Inactive)
REMARK    1  A    between atoms: C_1  and  C_2
REMARK    2  A    between atoms: C_4  and  N_19
REMARK    3  A    between atoms: C_6  and  C_7
REMARK    4  A    between atoms: N_9  and  N_10
REMARK    5  A    between atoms: N_13  and  C_14
REMARK    6  A    between atoms: C_14  and  C_15
REMARK    7  A    between atoms: C_15  and  C_16
REMARK    8  A    between atoms: C_16  and  C_17
REMARK    9  A    between atoms: C_16  and  C_18
REMARK   10  A    between atoms: C_20  and  C_22
REMARK   11  A    between atoms: C_22  and  C_23
REMARK   12  A    between atoms: C_22  and  C_24
REMARK   13  A    between atoms: C_22  and  C_25
REMARK                            x       y       z     vdW  Elec       q    Type
REMARK                         _______ _______ _______ _____ _____    ______ ____
ROOT
ATOM      1  C   UNL     1       0.030  -0.278   2.559  0.00  0.00    +0.267 C 
ATOM      2  O   UNL     1       0.017   0.917   2.797  0.00  0.00    -0.268 OA
ATOM      3  N   UNL     1       0.052  -1.167   3.572  0.00  0.00    -0.229 N 
ATOM      4  H   UNL     1       0.063  -2.118   3.382  0.00  0.00    +0.173 HD
ENDROOT
BRANCH   1  10
ATOM      5  C   UNL     1      -0.018   1.503   0.010  0.00  0.00    +0.045 C 
ATOM      6  C   UNL     1       0.002  -0.004   0.002  0.00  0.00    -0.029 A 
ATOM      7  C   UNL     1       0.007  -0.725  -1.164  0.00  0.00    +0.035 A 
ATOM      8  C   UNL     1       0.025  -2.098  -1.090  0.00  0.00    +0.073 A 
ATOM      9  S   UNL     1       0.037  -2.419   0.559  0.00  0.00    -0.069 S 
ATOM     10  C   UNL     1       0.023  -0.747   1.175  0.00  0.00    +0.080 A 
BRANCH   8  11
ATOM     11  N   UNL     1       0.033  -3.010  -2.139  0.00  0.00    -0.280 N 
ATOM     12  C   UNL     1       0.052  -4.333  -1.881  0.00  0.00    +0.223 C 
ATOM     13  O   UNL     1       0.063  -4.727  -0.734  0.00  0.00    -0.275 OA
ATOM     14  H   UNL     1       0.024  -2.695  -3.056  0.00  0.00    +0.155 HD
BRANCH  12  15
ATOM     15  C   UNL     1       0.060  -5.322  -3.018  0.00  0.00    +0.039 C 
ATOM     16  C   UNL     1       0.082  -6.745  -2.456  0.00  0.00    +0.020 C 
ATOM     17  C   UNL     1      -1.196  -5.130  -3.870  0.00  0.00    +0.020 C 
ATOM     18  C   UNL     1       1.302  -5.096  -3.882  0.00  0.00    +0.020 C 
ENDBRANCH  12  15
ENDBRANCH   8  11
ENDBRANCH   1  10
BRANCH   3  19
ATOM     19  N   UNL     1       0.059  -0.717   4.899  0.00  0.00    -0.218 N 
ATOM     20  C   UNL     1       0.080  -1.606   5.911  0.00  0.00    +0.316 C 
ATOM     21  O   UNL     1       0.086  -1.216   7.063  0.00  0.00    -0.251 OA
ATOM     22  N   UNL     1       0.096  -2.928   5.647  0.00  0.00    -0.298 N 
ATOM     23  H   UNL     1       0.048   0.234   5.088  0.00  0.00    +0.174 HD
ATOM     24  H   UNL     1       0.091  -3.239   4.729  0.00  0.00    +0.150 HD
BRANCH  22  25
ATOM     25  C   UNL     1       0.119  -3.894   6.748  0.00  0.00    +0.106 C 
BRANCH  25  26
ATOM     26  C   UNL     1       0.133  -5.314   6.180  0.00  0.00    +0.022 C 
BRANCH  26  27
ATOM     27  C   UNL     1       0.157  -6.324   7.329  0.00  0.00    -0.016 C 
ATOM     28  C   UNL     1      -1.144  -6.219   8.127  0.00  0.00    +0.007 C 
ATOM     29  C   UNL     1       0.296  -7.738   6.763  0.00  0.00    +0.007 C 
ENDBRANCH  26  27
ENDBRANCH  25  26
ENDBRANCH  22  25
ENDBRANCH   3  19
TORSDOF 7
