REMARK  Name = ZINC63375854
REMARK  9 active torsions:
REMARK  status: ('A' for Active; 'I' for Inactive)
REMARK    1  A    between atoms: C_1  and  C_2
REMARK    2  A    between atoms: C_2  and  C_3
REMARK    3  A    between atoms: C_2  and  C_4
REMARK    4  A    between atoms: C_4  and  N_5
REMARK    5  A    between atoms: C_6  and  C_8
REMARK    6  A    between atoms: C_11  and  N_14
REMARK    7  A    between atoms: C_30  and  C_35
REMARK    8  A    between atoms: C_38  and  O_41
REMARK    9  A    between atoms: O_41  and  C_42
REMARK                            x       y       z     vdW  Elec       q    Type
REMARK                         _______ _______ _______ _____ _____    ______ ____
ROOT
ATOM      1  N   UNL     1      -2.582  -8.351  -0.585  0.00  0.00    -0.193 N 
ATOM      2  C   UNL     1      -3.661  -9.156  -0.507  0.00  0.00    +0.248 C 
ATOM      3  O   UNL     1      -4.807  -8.827  -0.289  0.00  0.00    -0.273 OA
ATOM      4  C   UNL     1      -3.144 -10.557  -0.751  0.00  0.00    +0.169 C 
ATOM      5  C   UNL     1      -3.467 -11.455   0.456  0.00  0.00    +0.065 C 
ATOM      6  C   UNL     1      -2.463 -12.582   0.429  0.00  0.00    -0.034 C 
ATOM      7  C   UNL     1      -2.639 -13.900   0.436  0.00  0.00    -0.001 A 
ATOM      8  C   UNL     1      -3.851 -14.723   0.569  0.00  0.00    +0.010 A 
ATOM      9  C   UNL     1      -3.670 -16.070   0.512  0.00  0.00    +0.001 A 
ATOM     10  C   UNL     1      -2.419 -16.671   0.340  0.00  0.00    +0.002 A 
ATOM     11  C   UNL     1      -1.251 -15.990   0.218  0.00  0.00    +0.026 A 
ATOM     12  C   UNL     1      -1.312 -14.568   0.269  0.00  0.00    +0.043 A 
ATOM     13  N   UNL     1      -0.364 -13.682   0.199  0.00  0.00    -0.375 N 
ATOM     14  C   UNL     1      -0.958 -12.354   0.366  0.00  0.00    +0.131 C 
ATOM     15  C   UNL     1      -0.692 -11.459  -0.853  0.00  0.00    +0.135 C 
ATOM     16  N   UNL     1      -1.681 -10.369  -0.830  0.00  0.00    -0.264 N 
ATOM     17  C   UNL     1      -1.459  -9.048  -0.804  0.00  0.00    +0.317 C 
ATOM     18  O   UNL     1      -0.365  -8.542  -0.957  0.00  0.00    -0.252 OA
ATOM     19  H   UNL     1       0.578 -13.869   0.059  0.00  0.00    +0.160 HD
ENDROOT
BRANCH   1  23
ATOM     20  C   UNL     1      -2.726  -4.202  -0.206  0.00  0.00    +0.037 A 
ATOM     21  C   UNL     1      -1.494  -4.854  -0.306  0.00  0.00    +0.015 A 
ATOM     22  C   UNL     1      -1.450  -6.224  -0.431  0.00  0.00    +0.025 A 
ATOM     23  C   UNL     1      -2.630  -6.960  -0.458  0.00  0.00    +0.045 A 
ATOM     24  C   UNL     1      -3.858  -6.314  -0.359  0.00  0.00    +0.025 A 
ATOM     25  C   UNL     1      -3.909  -4.944  -0.228  0.00  0.00    +0.015 A 
BRANCH  20  27
ATOM     26  N   UNL     1      -1.634  -2.018  -0.051  0.00  0.00    -0.311 N 
ATOM     27  C   UNL     1      -2.777  -2.732  -0.071  0.00  0.00    +0.244 C 
ATOM     28  O   UNL     1      -3.849  -2.167   0.021  0.00  0.00    -0.270 OA
ATOM     29  H   UNL     1      -0.779  -2.469  -0.124  0.00  0.00    +0.149 HD
BRANCH  26  30
ATOM     30  C   UNL     1      -1.685  -0.560   0.083  0.00  0.00    +0.107 C 
BRANCH  30  32
ATOM     31  C   UNL     1      -0.317   1.531   0.093  0.00  0.00    +0.009 C 
ATOM     32  C   UNL     1      -0.262   0.002   0.079  0.00  0.00    -0.000 C 
ATOM     33  C   UNL     1       0.485  -0.492   1.319  0.00  0.00    +0.009 C 
ENDBRANCH  30  32
ENDBRANCH  26  30
ENDBRANCH  20  27
ENDBRANCH   1  23
BRANCH  15  34
ATOM     34  C   UNL     1      -0.858 -12.255  -2.122  0.00  0.00    -0.024 A 
ATOM     35  C   UNL     1      -2.107 -12.728  -2.482  0.00  0.00    +0.009 A 
ATOM     36  C   UNL     1      -2.261 -13.458  -3.644  0.00  0.00    +0.046 A 
ATOM     37  C   UNL     1      -1.163 -13.717  -4.451  0.00  0.00    +0.120 A 
ATOM     38  C   UNL     1       0.089 -13.242  -4.087  0.00  0.00    +0.046 A 
ATOM     39  C   UNL     1       0.237 -12.507  -2.927  0.00  0.00    +0.009 A 
BRANCH  37  40
ATOM     40  O   UNL     1      -1.312 -14.436  -5.594  0.00  0.00    -0.495 OA
ATOM     41  C   UNL     1      -0.138 -14.664  -6.375  0.00  0.00    +0.277 C 
ENDBRANCH  37  40
ENDBRANCH  15  34
TORSDOF 6
