REMARK  Name = ZINC63398503
REMARK  9 active torsions:
REMARK  status: ('A' for Active; 'I' for Inactive)
REMARK    1  A    between atoms: C_1  and  C_2
REMARK    2  A    between atoms: C_7  and  C_30
REMARK    3  A    between atoms: C_9  and  N_12
REMARK    4  A    between atoms: C_13  and  C_15
REMARK    5  A    between atoms: C_15  and  N_16
REMARK    6  A    between atoms: N_19  and  C_22
REMARK    7  A    between atoms: C_27  and  C_28
REMARK    8  A    between atoms: C_30  and  O_32
REMARK    9  A    between atoms: O_32  and  C_33
REMARK                            x       y       z     vdW  Elec       q    Type
REMARK                         _______ _______ _______ _____ _____    ______ ____
ROOT
ATOM      1  N   UNL     1       0.322  -2.654   3.616  0.00  0.00    -0.285 N 
ATOM      2  C   UNL     1       0.160  -1.379   4.021  0.00  0.00    +0.231 C 
ATOM      3  O   UNL     1      -0.169  -0.527   3.224  0.00  0.00    -0.274 OA
ATOM      4  H   UNL     1       0.503  -3.350   4.267  0.00  0.00    +0.155 HD
ENDROOT
BRANCH   1  12
ATOM      5  C   UNL     1       0.292  -7.990   2.103  0.00  0.00    +0.044 C 
ATOM      6  C   UNL     1       0.227  -6.615   1.489  0.00  0.00    -0.050 A 
ATOM      7  C   UNL     1       0.126  -6.493   0.100  0.00  0.00    +0.005 A 
ATOM      8  C   UNL     1       0.064  -5.285  -0.509  0.00  0.00    +0.026 A 
ATOM      9  C   UNL     1       0.102  -4.098   0.269  0.00  0.00    +0.045 A 
ATOM     10  N   UNL     1       0.059  -2.827  -0.076  0.00  0.00    -0.367 N 
ATOM     11  C   UNL     1       0.134  -2.000   1.132  0.00  0.00    +0.234 C 
ATOM     12  C   UNL     1       0.231  -2.965   2.293  0.00  0.00    +0.053 C 
ATOM     13  C   UNL     1       0.209  -4.231   1.732  0.00  0.00    +0.018 A 
ATOM     14  C   UNL     1       0.264  -5.527   2.297  0.00  0.00    +0.015 A 
ATOM     15  H   UNL     1      -0.011  -2.493  -0.984  0.00  0.00    +0.161 HD
BRANCH  11  16
ATOM     16  C   UNL     1       1.355  -1.119   1.084  0.00  0.00    +0.335 C 
ATOM     17  O   UNL     1       2.310  -1.447   0.419  0.00  0.00    -0.248 OA
BRANCH  16  18
ATOM     18  O   UNL     1       1.383   0.028   1.779  0.00  0.00    -0.466 OA
ATOM     19  C   UNL     1       2.574   0.814   1.687  0.00  0.00    +0.280 C 
ENDBRANCH  16  18
ENDBRANCH  11  16
ENDBRANCH   1  12
BRANCH   2  20
ATOM     20  C   UNL     1       0.390  -1.012   5.464  0.00  0.00    +0.180 C 
BRANCH  20  21
ATOM     21  N   UNL     1       0.151   0.426   5.648  0.00  0.00    -0.291 NA
ATOM     22  C   UNL     1      -1.261   0.760   5.415  0.00  0.00    +0.104 C 
ATOM     23  C   UNL     1      -1.433   2.282   5.437  0.00  0.00    +0.120 C 
ATOM     24  N   UNL     1      -0.872   2.798   6.694  0.00  0.00    -0.327 N 
ATOM     25  C   UNL     1       0.493   2.394   7.064  0.00  0.00    +0.120 C 
ATOM     26  C   UNL     1       0.590   0.867   6.978  0.00  0.00    +0.104 C 
BRANCH  24  27
ATOM     27  C   UNL     1      -1.615   3.648   7.516  0.00  0.00    +0.034 A 
ATOM     28  C   UNL     1      -2.422   3.120   8.516  0.00  0.00    +0.043 A 
ATOM     29  C   UNL     1      -3.157   3.965   9.326  0.00  0.00    +0.043 A 
ATOM     30  C   UNL     1      -3.088   5.335   9.142  0.00  0.00    +0.020 A 
ATOM     31  C   UNL     1      -2.286   5.863   8.148  0.00  0.00    +0.006 A 
ATOM     32  C   UNL     1      -1.545   5.024   7.338  0.00  0.00    -0.029 A 
ATOM     33  C   UNL     1      -0.665   5.601   6.259  0.00  0.00    +0.045 C 
ATOM     34 CL   UNL     1      -4.166   3.307  10.576  0.00  0.00    -0.083 Cl
ENDBRANCH  24  27
ENDBRANCH  20  21
ENDBRANCH   2  20
TORSDOF 6
