REMARK  Name = ZINC34261833
REMARK  7 active torsions:
REMARK  status: ('A' for Active; 'I' for Inactive)
REMARK    1  A    between atoms: C_2  and  C_3
REMARK    2  A    between atoms: C_3  and  N_4
REMARK    3  A    between atoms: C_9  and  C_31
REMARK    4  A    between atoms: C_12  and  C_17
REMARK    5  A    between atoms: C_12  and  C_28
REMARK    6  A    between atoms: C_17  and  C_18
REMARK    7  A    between atoms: C_35  and  C_37
REMARK                            x       y       z     vdW  Elec       q    Type
REMARK                         _______ _______ _______ _____ _____    ______ ____
ROOT
ATOM      1  N   UNL     1       1.357   1.975  -0.000  0.00  0.00    -0.230 N 
ATOM      2  C   UNL     1       2.083   2.226   1.137  0.00  0.00    +0.225 C 
ATOM      3  O   UNL     1       1.825   1.882   2.271  0.00  0.00    -0.275 OA
ATOM      4  C   UNL     1       3.220   2.991   0.686  0.00  0.00    +0.077 C 
ATOM      5  C   UNL     1       4.583   3.356   1.107  0.00  0.00    -0.027 C 
ATOM      6  N   UNL     1       5.136   3.996  -0.137  0.00  0.00    +0.396 N 
ATOM      7  C   UNL     1       4.354   3.481  -1.300  0.00  0.00    +0.052 C 
ATOM      8  C   UNL     1       3.497   2.342  -0.728  0.00  0.00    +0.086 C 
ATOM      9  C   UNL     1       2.056   2.243  -1.143  0.00  0.00    +0.226 C 
ATOM     10  O   UNL     1       1.607   2.376  -2.261  0.00  0.00    -0.275 OA
ATOM     11  H   UNL     1       5.039   4.998  -0.077  0.00  0.00    -0.083 HD
ATOM     12  H   UNL     1       6.109   3.751  -0.243  0.00  0.00    -0.083 HD
ENDROOT
BRANCH   5  13
ATOM     13  C   UNL     1       4.548   4.340   2.248  0.00  0.00    -0.060 A 
ATOM     14  C   UNL     1       4.317   5.680   1.999  0.00  0.00    +0.002 A 
ATOM     15  C   UNL     1       4.285   6.582   3.045  0.00  0.00    +0.001 A 
ATOM     16  C   UNL     1       4.483   6.145   4.342  0.00  0.00    +0.012 A 
ATOM     17  C   UNL     1       4.714   4.805   4.591  0.00  0.00    +0.055 A 
ATOM     18  C   UNL     1       4.742   3.902   3.545  0.00  0.00    +0.014 A 
BRANCH  17  19
ATOM     19  C   UNL     1       4.931   4.328   6.004  0.00  0.00    +0.417 C 
ATOM     20  F   UNL     1       4.854   5.416   6.880  0.00  0.00    -0.166 F 
ATOM     21  F   UNL     1       3.947   3.391   6.337  0.00  0.00    -0.166 F 
ATOM     22  F   UNL     1       6.194   3.735   6.107  0.00  0.00    -0.166 F 
ENDBRANCH  17  19
ENDBRANCH   5  13
BRANCH   7  23
ATOM     23  C   UNL     1       5.285   2.938  -2.354  0.00  0.00    +0.347 C 
ATOM     24  O   UNL     1       6.492   2.990  -2.188  0.00  0.00    -0.248 OA
ATOM     25  O   UNL     1       4.831   2.446  -3.374  0.00  0.00    -0.248 OA
ENDBRANCH   7  23
BRANCH   1  26
ATOM     26  C   UNL     1      -0.018   1.468   0.010  0.00  0.00    +0.204 C 
BRANCH  26  28
ATOM     27  C   UNL     1       0.018  -1.178  -0.004  0.00  0.00    +0.005 C 
ATOM     28  C   UNL     1       0.002  -0.004   0.002  0.00  0.00    -0.086 C 
ENDBRANCH  26  28
ENDBRANCH   1  26
BRANCH   7  29
ATOM     29  C   UNL     1       3.481   4.592  -1.885  0.00  0.00    +0.037 C 
BRANCH  29  30
ATOM     30  C   UNL     1       4.358   5.715  -2.377  0.00  0.00    -0.023 A 
ATOM     31  C   UNL     1       4.697   6.820  -1.695  0.00  0.00    +0.087 A 
ATOM     32  N   UNL     1       5.506   7.613  -2.463  0.00  0.00    -0.360 N 
ATOM     33  H   UNL     1       5.878   8.464  -2.186  0.00  0.00    +0.165 HD
ATOM     34  C   UNL     1       5.713   7.021  -3.689  0.00  0.00    +0.047 A 
ATOM     35  C   UNL     1       5.008   5.803  -3.687  0.00  0.00    +0.003 A 
ATOM     36  C   UNL     1       5.042   4.977  -4.811  0.00  0.00    +0.010 A 
ATOM     37  C   UNL     1       5.762   5.354  -5.909  0.00  0.00    +0.001 A 
ATOM     38  C   UNL     1       6.462   6.552  -5.915  0.00  0.00    +0.002 A 
ATOM     39  C   UNL     1       6.436   7.387  -4.820  0.00  0.00    +0.026 A 
ENDBRANCH  29  30
ENDBRANCH   7  29
TORSDOF 7
