REMARK  Name = ZINC43619451
REMARK  7 active torsions:
REMARK  status: ('A' for Active; 'I' for Inactive)
REMARK    1  A    between atoms: C_1  and  C_2
REMARK    2  A    between atoms: C_2  and  C_18
REMARK    3  A    between atoms: N_5  and  C_9
REMARK    4  A    between atoms: N_21  and  C_24
REMARK    5  A    between atoms: C_24  and  C_25
REMARK    6  A    between atoms: C_33  and  C_34
REMARK    7  A    between atoms: C_33  and  C_35
REMARK                            x       y       z     vdW  Elec       q    Type
REMARK                         _______ _______ _______ _____ _____    ______ ____
ROOT
ATOM      1  C   UNL     1      -0.019   1.526   0.010  0.00  0.00    +0.042 C 
ATOM      2  C   UNL     1       0.002  -0.004   0.002  0.00  0.00    +0.112 C 
ATOM      3  C   UNL     1       0.815  -0.520  -1.169  0.00  0.00    +0.247 C 
ATOM      4  O   UNL     1       0.595  -0.342  -2.348  0.00  0.00    -0.273 OA
ATOM      5  N   UNL     1       1.833  -1.217  -0.627  0.00  0.00    -0.221 N 
ATOM      6  C   UNL     1       1.777  -1.214   0.710  0.00  0.00    +0.310 C 
ATOM      7  O   UNL     1       2.586  -1.776   1.421  0.00  0.00    -0.252 OA
ATOM      8  N   UNL     1       0.724  -0.519   1.178  0.00  0.00    -0.285 N 
ATOM      9  H   UNL     1       0.487  -0.383   2.109  0.00  0.00    +0.151 HD
ENDROOT
BRANCH   5  10
ATOM     10  C   UNL     1       2.871  -1.896  -1.406  0.00  0.00    +0.094 C 
ATOM     11  C   UNL     1       2.993  -3.376  -0.985  0.00  0.00    +0.058 C 
ATOM     12  C   UNL     1       4.468  -3.699  -1.095  0.00  0.00    -0.042 A 
ATOM     13  C   UNL     1       5.117  -4.921  -1.151  0.00  0.00    +0.004 A 
ATOM     14  C   UNL     1       6.494  -4.973  -1.251  0.00  0.00    +0.000 A 
ATOM     15  C   UNL     1       7.227  -3.801  -1.295  0.00  0.00    +0.000 A 
ATOM     16  C   UNL     1       6.581  -2.582  -1.238  0.00  0.00    +0.004 A 
ATOM     17  C   UNL     1       5.201  -2.528  -1.138  0.00  0.00    -0.042 A 
ATOM     18  C   UNL     1       4.268  -1.338  -1.061  0.00  0.00    +0.058 C 
ENDBRANCH   5  10
BRANCH   2  19
ATOM     19  C   UNL     1      -1.423  -0.560  -0.041  0.00  0.00    +0.018 C 
ATOM     20  C   UNL     1      -1.376  -2.091  -0.021  0.00  0.00    -0.013 C 
ATOM     21  C   UNL     1      -2.804  -2.638   0.017  0.00  0.00    -0.078 C 
ATOM     22  N   UNL     1      -3.487  -2.152   1.222  0.00  0.00    +0.382 N 
ATOM     23  C   UNL     1      -3.599  -0.690   1.175  0.00  0.00    -0.078 C 
ATOM     24  C   UNL     1      -2.202  -0.067   1.182  0.00  0.00    -0.013 C 
ATOM     25  H   UNL     1      -2.959  -2.422   2.038  0.00  0.00    -0.081 HD
BRANCH  22  26
ATOM     26  C   UNL     1      -4.830  -2.743   1.294  0.00  0.00    -0.047 C 
BRANCH  26  27
ATOM     27  C   UNL     1      -5.486  -2.343   2.590  0.00  0.00    -0.086 C 
ATOM     28  C   UNL     1      -6.293  -1.308   2.656  0.00  0.00    -0.029 C 
ATOM     29  C   UNL     1      -6.936  -0.947   3.973  0.00  0.00    +0.031 C 
ATOM     30  C   UNL     1      -6.425  -1.886   5.073  0.00  0.00    -0.000 C 
ATOM     31  C   UNL     1      -4.902  -2.096   5.020  0.00  0.00    +0.012 C 
ATOM     32  C   UNL     1      -5.245  -3.125   3.870  0.00  0.00    +0.019 C 
ATOM     33  C   UNL     1      -6.554  -3.361   4.639  0.00  0.00    -0.025 C 
ATOM     34  C   UNL     1      -7.757  -3.638   3.736  0.00  0.00    +0.012 C 
ATOM     35  C   UNL     1      -6.424  -4.359   5.791  0.00  0.00    +0.012 C 
ENDBRANCH  26  27
ENDBRANCH  22  26
ENDBRANCH   2  19
TORSDOF 4
