REMARK  Name = ZINC40146152
REMARK  10 active torsions:
REMARK  status: ('A' for Active; 'I' for Inactive)
REMARK    1  A    between atoms: C_1  and  C_2
REMARK    2  A    between atoms: C_2  and  C_3
REMARK    3  A    between atoms: C_3  and  C_5
REMARK    4  A    between atoms: C_3  and  C_6
REMARK    5  A    between atoms: C_6  and  C_8
REMARK    6  A    between atoms: C_6  and  N_18
REMARK    7  A    between atoms: C_19  and  C_21
REMARK    8  A    between atoms: C_21  and  C_22
REMARK    9  A    between atoms: C_22  and  N_23
REMARK   10  A    between atoms: C_24  and  C_26
REMARK                            x       y       z     vdW  Elec       q    Type
REMARK                         _______ _______ _______ _____ _____    ______ ____
ROOT
ATOM      1  N   UNL     1      -0.769  -2.425  -1.496  0.00  0.00    -0.305 N 
ATOM      2  C   UNL     1      -1.315  -2.464  -2.727  0.00  0.00    +0.215 C 
ATOM      3  O   UNL     1      -0.649  -2.168  -3.697  0.00  0.00    -0.276 OA
ATOM      4  H   UNL     1      -1.301  -2.662  -0.721  0.00  0.00    +0.149 HD
ENDROOT
BRANCH   1   5
ATOM      5  C   UNL     1       0.630  -2.023  -1.329  0.00  0.00    +0.142 C 
BRANCH   5   6
ATOM      6  C   UNL     1       1.175  -2.618  -0.055  0.00  0.00    +0.129 A 
ATOM      7  N   UNL     1       0.503  -3.487   0.748  0.00  0.00    -0.340 N 
ATOM      8  H   UNL     1      -0.394  -3.826   0.605  0.00  0.00    +0.167 HD
ATOM      9  C   UNL     1       1.336  -3.796   1.805  0.00  0.00    +0.066 A 
ATOM     10  C   UNL     1       1.217  -4.609   2.924  0.00  0.00    +0.028 A 
ATOM     11  C   UNL     1       2.264  -4.701   3.815  0.00  0.00    +0.002 A 
ATOM     12  C   UNL     1       3.435  -3.988   3.601  0.00  0.00    +0.002 A 
ATOM     13  C   UNL     1       3.570  -3.183   2.506  0.00  0.00    +0.030 A 
ATOM     14  C   UNL     1       2.522  -3.074   1.589  0.00  0.00    +0.089 A 
ATOM     15  N   UNL     1       2.357  -2.381   0.432  0.00  0.00    -0.231 NA
ENDBRANCH   5   6
BRANCH   5  16
ATOM     16  C   UNL     1       0.718  -0.497  -1.257  0.00  0.00    +0.013 C 
ATOM     17  C   UNL     1       2.187  -0.073  -1.207  0.00  0.00    +0.010 C 
BRANCH  16  19
ATOM     18  C   UNL     1      -0.019   1.526   0.010  0.00  0.00    +0.004 C 
ATOM     19  C   UNL     1       0.002  -0.004   0.002  0.00  0.00    +0.002 C 
ENDBRANCH  16  19
ENDBRANCH   5  16
ENDBRANCH   1   5
BRANCH   2  20
ATOM     20  C   UNL     1      -2.755  -2.877  -2.900  0.00  0.00    +0.114 C 
BRANCH  20  21
ATOM     21  C   UNL     1      -3.122  -2.837  -4.384  0.00  0.00    +0.113 C 
BRANCH  21  22
ATOM     22  N   UNL     1      -4.521  -3.239  -4.552  0.00  0.00    -0.314 N 
ATOM     23  C   UNL     1      -5.068  -3.278  -5.783  0.00  0.00    +0.219 C 
ATOM     24  O   UNL     1      -4.402  -2.982  -6.752  0.00  0.00    -0.275 OA
ATOM     25  H   UNL     1      -5.054  -3.476  -3.777  0.00  0.00    +0.149 HD
BRANCH  23  26
ATOM     26  C   UNL     1      -6.507  -3.691  -5.955  0.00  0.00    +0.048 C 
ATOM     27  C   UNL     1      -6.698  -5.112  -5.420  0.00  0.00    +0.019 C 
ATOM     28  C   UNL     1      -8.159  -5.531  -5.596  0.00  0.00    -0.009 C 
ATOM     29  C   UNL     1      -8.526  -5.491  -7.080  0.00  0.00    +0.007 C 
ATOM     30  C   UNL     1      -8.336  -4.071  -7.615  0.00  0.00    -0.009 C 
ATOM     31  C   UNL     1      -6.875  -3.651  -7.440  0.00  0.00    +0.019 C 
ATOM     32  C   UNL     1      -9.239  -3.108  -6.841  0.00  0.00    +0.007 C 
ATOM     33  C   UNL     1      -8.871  -3.148  -5.356  0.00  0.00    -0.009 C 
ATOM     34  C   UNL     1      -9.062  -4.568  -4.821  0.00  0.00    +0.007 C 
ATOM     35  C   UNL     1      -7.410  -2.729  -5.181  0.00  0.00    +0.019 C 
ENDBRANCH  23  26
ENDBRANCH  21  22
ENDBRANCH  20  21
ENDBRANCH   2  20
TORSDOF 8
