REMARK  Name = ZINC41592044
REMARK  6 active torsions:
REMARK  status: ('A' for Active; 'I' for Inactive)
REMARK    1  A    between atoms: C_3  and  C_8
REMARK    2  A    between atoms: C_8  and  C_10
REMARK    3  A    between atoms: C_8  and  N_24
REMARK    4  A    between atoms: C_10  and  N_11
REMARK    5  A    between atoms: C_12  and  C_14
REMARK    6  A    between atoms: N_16  and  C_17
REMARK                            x       y       z     vdW  Elec       q    Type
REMARK                         _______ _______ _______ _____ _____    ______ ____
ROOT
ATOM      1  C   UNL     1       4.231   2.344   1.780  0.00  0.00    +0.094 C 
ENDROOT
BRANCH   1   2
ATOM      2  N   UNL     1       3.230   3.211   2.406  0.00  0.00    -0.309 N 
ATOM      3  C   UNL     1       3.365   3.571   3.698  0.00  0.00    +0.299 C 
ATOM      4  O   UNL     1       4.315   3.177   4.342  0.00  0.00    -0.265 OA
ATOM      5  H   UNL     1       2.470   3.525   1.892  0.00  0.00    +0.149 HD
BRANCH   3   6
ATOM      6  C   UNL     1       2.344   4.454   4.337  0.00  0.00    +0.303 C 
ATOM      7  O   UNL     1       1.393   4.848   3.693  0.00  0.00    -0.265 OA
ATOM      8  N   UNL     1       2.478   4.814   5.629  0.00  0.00    -0.278 N 
ATOM      9  H   UNL     1       3.198   4.444   6.163  0.00  0.00    +0.155 HD
BRANCH   8  10
ATOM     10  C   UNL     1       1.581   5.721   6.199  0.00  0.00    +0.037 A 
ATOM     11  C   UNL     1       2.024   6.638   7.144  0.00  0.00    +0.023 A 
ATOM     12  C   UNL     1       1.135   7.533   7.706  0.00  0.00    +0.005 A 
ATOM     13  C   UNL     1      -0.195   7.519   7.329  0.00  0.00    +0.038 A 
ATOM     14  C   UNL     1      -0.641   6.606   6.388  0.00  0.00    +0.125 A 
ATOM     15  C   UNL     1       0.246   5.711   5.817  0.00  0.00    +0.061 A 
ATOM     16  F   UNL     1      -1.942   6.594   6.022  0.00  0.00    -0.205 F 
ENDBRANCH   8  10
ENDBRANCH   3   6
ENDBRANCH   1   2
BRANCH   1  17
ATOM     17  C   UNL     1       3.912   2.189   0.291  0.00  0.00    -0.020 C 
BRANCH  17  20
ATOM     18  C   UNL     1       0.245   1.488  -0.277  0.00  0.00    +0.002 A 
ATOM     19  C   UNL     1       1.445   2.160  -0.131  0.00  0.00    +0.002 A 
ATOM     20  C   UNL     1       2.605   1.456   0.132  0.00  0.00    -0.058 A 
ATOM     21  C   UNL     1       2.567   0.079   0.247  0.00  0.00    +0.022 A 
ATOM     22  C   UNL     1       1.367  -0.594   0.101  0.00  0.00    +0.041 A 
ATOM     23  C   UNL     1       0.206   0.111  -0.161  0.00  0.00    +0.020 A 
ATOM     24 CL   UNL     1       1.319  -2.324   0.246  0.00  0.00    -0.084 Cl
ENDBRANCH  17  20
BRANCH  17  25
ATOM     25  N   UNL     1       4.984   1.428  -0.363  0.00  0.00    +0.385 N 
ATOM     26  C   UNL     1       4.782   1.420  -1.835  0.00  0.00    -0.078 C 
ATOM     27  C   UNL     1       6.197   1.113  -2.385  0.00  0.00    -0.020 C 
ATOM     28  C   UNL     1       7.120   1.891  -1.420  0.00  0.00    -0.020 C 
ATOM     29  C   UNL     1       6.288   2.087  -0.139  0.00  0.00    -0.078 C 
ATOM     30  H   UNL     1       5.006   0.483  -0.009  0.00  0.00    -0.081 HD
ENDBRANCH  17  25
ENDBRANCH   1  17
TORSDOF 6
