REMARK  Name = ZINC49035384
REMARK  8 active torsions:
REMARK  status: ('A' for Active; 'I' for Inactive)
REMARK    1  A    between atoms: C_1  and  C_2
REMARK    2  A    between atoms: C_2  and  C_4
REMARK    3  A    between atoms: C_2  and  C_17
REMARK    4  A    between atoms: C_4  and  C_5
REMARK    5  A    between atoms: C_13  and  O_16
REMARK    6  A    between atoms: N_19  and  C_20
REMARK    7  A    between atoms: C_21  and  C_35
REMARK    8  A    between atoms: C_23  and  C_27
REMARK                            x       y       z     vdW  Elec       q    Type
REMARK                         _______ _______ _______ _____ _____    ______ ____
ROOT
ATOM      1  C   UNL     1       0.727  -0.445   1.237  0.00  0.00    +0.220 C 
ATOM      2  O   UNL     1       1.726  -1.118   1.101  0.00  0.00    -0.275 OA
ATOM      3  N   UNL     1       0.269  -0.161   2.472  0.00  0.00    -0.288 N 
ATOM      4  H   UNL     1      -0.489   0.433   2.583  0.00  0.00    +0.155 HD
ENDROOT
BRANCH   3   5
ATOM      5  C   UNL     1       0.874  -0.713   3.572  0.00  0.00    +0.021 C 
ATOM      6  C   UNL     1       0.137  -1.476   4.384  0.00  0.00    +0.058 C 
ATOM      7  C   UNL     1       0.675  -2.126   5.626  0.00  0.00    +0.052 C 
ATOM      8  C   UNL     1       2.204  -2.155   5.584  0.00  0.00    +0.024 C 
ATOM      9  C   UNL     1       2.710  -0.748   5.246  0.00  0.00    +0.014 C 
ATOM     10  C   UNL     1       2.332  -0.432   3.796  0.00  0.00    +0.052 C 
BRANCH   8  11
ATOM     11  C   UNL     1       2.738  -2.579   6.928  0.00  0.00    -0.039 A 
ATOM     12  C   UNL     1       2.446  -1.833   8.054  0.00  0.00    +0.042 A 
ATOM     13  C   UNL     1       2.937  -2.222   9.289  0.00  0.00    +0.126 A 
ATOM     14  C   UNL     1       3.721  -3.358   9.395  0.00  0.00    +0.076 A 
ATOM     15  C   UNL     1       4.012  -4.104   8.267  0.00  0.00    +0.126 A 
ATOM     16  C   UNL     1       3.516  -3.717   7.034  0.00  0.00    +0.042 A 
ATOM     17  F   UNL     1       4.777  -5.214   8.369  0.00  0.00    -0.205 F 
ATOM     18  F   UNL     1       2.652  -1.492  10.390  0.00  0.00    -0.205 F 
ENDBRANCH   8  11
BRANCH   6  19
ATOM     19  C   UNL     1      -1.220  -1.682   4.057  0.00  0.00    +0.384 C 
ATOM     20  O   UNL     1      -1.666  -1.258   2.997  0.00  0.00    -0.241 OA
ATOM     21  O   UNL     1      -1.953  -2.285   4.833  0.00  0.00    -0.241 OA
ENDBRANCH   6  19
ENDBRANCH   3   5
BRANCH   1  23
ATOM     22  C   UNL     1      -0.035   1.602   0.064  0.00  0.00    +0.017 C 
ATOM     23  C   UNL     1      -0.003   0.073   0.025  0.00  0.00    +0.078 C 
BRANCH  23  24
ATOM     24  C   UNL     1       0.720  -0.389  -1.242  0.00  0.00    +0.069 C 
BRANCH  24  25
ATOM     25  C   UNL     1      -0.076   0.024  -2.453  0.00  0.00    +0.064 A 
ATOM     26  C   UNL     1       0.404   0.778  -3.530  0.00  0.00    +0.045 A 
ATOM     27  C   UNL     1      -0.609   0.937  -4.413  0.00  0.00    +0.116 A 
ATOM     28  N   UNL     1      -1.698   0.302  -3.907  0.00  0.00    -0.222 N 
ATOM     29  N   UNL     1      -1.332  -0.265  -2.680  0.00  0.00    -0.170 NA
ATOM     30  C   UNL     1      -2.960   0.225  -4.508  0.00  0.00    +0.154 A 
ATOM     31  C   UNL     1      -3.985  -0.459  -3.865  0.00  0.00    +0.052 A 
ATOM     32  C   UNL     1      -5.229  -0.529  -4.468  0.00  0.00    +0.050 A 
ATOM     33  C   UNL     1      -5.404   0.091  -5.702  0.00  0.00    +0.135 A 
ATOM     34  C   UNL     1      -4.335   0.755  -6.282  0.00  0.00    +0.158 A 
ATOM     35  N   UNL     1      -3.164   0.807  -5.677  0.00  0.00    -0.233 NA
BRANCH  33  36
ATOM     36  O   UNL     1      -6.609   0.046  -6.329  0.00  0.00    -0.505 OA
ATOM     37  H   UNL     1      -7.199   0.779  -6.102  0.00  0.00    +0.292 HD
ENDBRANCH  33  36
ENDBRANCH  24  25
ENDBRANCH  23  24
ENDBRANCH   1  23
TORSDOF 7
