REMARK  Name = ZINC63051143
REMARK  8 active torsions:
REMARK  status: ('A' for Active; 'I' for Inactive)
REMARK    1  A    between atoms: C_1  and  N_2
REMARK    2  A    between atoms: N_2  and  C_3
REMARK    3  A    between atoms: N_2  and  C_10
REMARK    4  A    between atoms: C_3  and  C_4
REMARK    5  A    between atoms: C_4  and  N_5
REMARK    6  A    between atoms: C_10  and  C_12
REMARK    7  A    between atoms: C_10  and  C_14
REMARK    8  A    between atoms: C_12  and  N_13
REMARK                            x       y       z     vdW  Elec       q    Type
REMARK                         _______ _______ _______ _____ _____    ______ ____
ROOT
ATOM      1  C   UNL     1      -1.396  -0.472   0.207  0.00  0.00    +0.069 C 
ENDROOT
BRANCH   1   2
ATOM      2  C   UNL     1      -2.088  -0.175  -1.098  0.00  0.00    -0.029 A 
ATOM      3  C   UNL     1      -1.410  -0.337  -2.292  0.00  0.00    +0.025 A 
ATOM      4  C   UNL     1      -2.044  -0.064  -3.490  0.00  0.00    +0.043 A 
ATOM      5  C   UNL     1      -3.357   0.371  -3.495  0.00  0.00    +0.040 A 
ATOM      6  C   UNL     1      -4.035   0.533  -2.300  0.00  0.00    +0.043 A 
ATOM      7  C   UNL     1      -3.402   0.255  -1.102  0.00  0.00    +0.025 A 
ATOM      8 CL   UNL     1      -5.683   1.080  -2.304  0.00  0.00    -0.083 Cl
ATOM      9 CL   UNL     1      -1.192  -0.268  -4.989  0.00  0.00    -0.083 Cl
ENDBRANCH   1   2
BRANCH   1  11
ATOM     10  C   UNL     1       0.028   1.446  -0.187  0.00  0.00    +0.105 C 
ATOM     11  N   UNL     1      -0.012   0.016   0.151  0.00  0.00    -0.302 NA
BRANCH  11  12
ATOM     12  C   UNL     1       0.691  -0.246   1.413  0.00  0.00    +0.066 C 
BRANCH  12  13
ATOM     13  C   UNL     1       2.179   0.065   1.243  0.00  0.00    -0.063 C 
BRANCH  13  14
ATOM     14  N   UNL     1       2.882  -0.198   2.506  0.00  0.00    +0.381 N 
ATOM     15  C   UNL     1       2.903  -1.656   2.786  0.00  0.00    -0.079 C 
ATOM     16  C   UNL     1       4.097  -1.812   3.761  0.00  0.00    -0.020 C 
ATOM     17  C   UNL     1       5.126  -0.798   3.213  0.00  0.00    -0.020 C 
ATOM     18  C   UNL     1       4.299   0.212   2.395  0.00  0.00    -0.079 C 
ATOM     19  H   UNL     1       2.435   0.297   3.263  0.00  0.00    -0.082 HD
ENDBRANCH  13  14
ENDBRANCH  12  13
ENDBRANCH  11  12
ENDBRANCH   1  11
BRANCH   1  20
ATOM     20  C   UNL     1      -1.395  -1.982   0.452  0.00  0.00    -0.063 C 
BRANCH  20  21
ATOM     21  N   UNL     1      -2.776  -2.454   0.613  0.00  0.00    +0.379 N 
ATOM     22  H   UNL     1      -3.315  -2.202  -0.202  0.00  0.00    -0.090 HD
ATOM     23  H   UNL     1      -2.779  -3.457   0.721  0.00  0.00    -0.090 HD
ATOM     24  H   UNL     1      -3.184  -2.027   1.431  0.00  0.00    -0.090 HD
ENDBRANCH  20  21
ENDBRANCH   1  20
TORSDOF 7
