REMARK  Name = ZINC35504997
REMARK  3 active torsions:
REMARK  status: ('A' for Active; 'I' for Inactive)
REMARK    1  A    between atoms: C_13  and  C_15
REMARK    2  A    between atoms: C_15  and  C_16
REMARK    3  A    between atoms: C_16  and  C_17
REMARK                            x       y       z     vdW  Elec       q    Type
REMARK                         _______ _______ _______ _____ _____    ______ ____
ROOT
ATOM      1  C   UNL     1       0.496  -8.145   1.226  0.00  0.00    +0.105 C 
ENDROOT
BRANCH   1   2
ATOM      2  C   UNL     1      -0.785  -8.931   1.341  0.00  0.00    +0.216 C 
ATOM      3  O   UNL     1      -1.845  -8.351   1.442  0.00  0.00    -0.276 OA
ATOM      4  N   UNL     1      -0.752 -10.278   1.333  0.00  0.00    -0.298 N 
ATOM      5  C   UNL     1       0.526 -10.995   1.219  0.00  0.00    +0.126 C 
ATOM      6  C   UNL     1       0.653 -11.961   2.403  0.00  0.00    +0.126 C 
ATOM      7  N   UNL     1      -0.589 -12.740   2.509  0.00  0.00    -0.307 N 
ATOM      8  C   UNL     1      -1.867 -12.024   2.623  0.00  0.00    +0.126 C 
ATOM      9  C   UNL     1      -1.994 -11.057   1.445  0.00  0.00    +0.126 C 
ATOM     10  C   UNL     1      -0.555 -14.120   2.501  0.00  0.00    +0.163 A 
ATOM     11  N   UNL     1      -1.555 -14.968   2.580  0.00  0.00    -0.223 NA
ATOM     12  C   UNL     1      -1.372 -16.305   2.559  0.00  0.00    +0.099 A 
ATOM     13  C   UNL     1      -2.347 -17.327   2.636  0.00  0.00    +0.032 A 
ATOM     14  C   UNL     1      -1.943 -18.642   2.597  0.00  0.00    +0.022 A 
ATOM     15  C   UNL     1      -0.601 -18.963   2.484  0.00  0.00    +0.112 A 
ATOM     16  N   UNL     1       0.308 -18.006   2.413  0.00  0.00    -0.246 NA
ATOM     17  C   UNL     1      -0.031 -16.744   2.446  0.00  0.00    +0.129 A 
ATOM     18  S   UNL     1       0.858 -15.205   2.372  0.00  0.00    -0.033 S 
ENDBRANCH   1   2
BRANCH   1  19
ATOM     19  C   UNL     1       0.181  -6.649   1.261  0.00  0.00    +0.105 C 
BRANCH  19  32
ATOM     20  C   UNL     1       2.370   1.437   0.014  0.00  0.00    +0.005 A 
ATOM     21  C   UNL     1       1.127   2.057   0.003  0.00  0.00    +0.018 A 
ATOM     22  C   UNL     1      -0.015   1.282  -0.017  0.00  0.00    +0.084 A 
ATOM     23  N   UNL     1       0.061  -0.036  -0.024  0.00  0.00    -0.350 N 
ATOM     24  C   UNL     1       1.227  -0.664  -0.014  0.00  0.00    +0.099 A 
ATOM     25  C   UNL     1       2.418   0.054   0.005  0.00  0.00    +0.042 A 
ATOM     26  N   UNL     1       1.260  -2.054  -0.022  0.00  0.00    -0.314 N 
ATOM     27  C   UNL     1       2.538  -2.770  -0.142  0.00  0.00    +0.125 C 
ATOM     28  C   UNL     1       2.671  -3.737   1.041  0.00  0.00    +0.126 C 
ATOM     29  N   UNL     1       1.430  -4.516   1.153  0.00  0.00    -0.298 N 
ATOM     30  C   UNL     1       0.152  -3.799   1.273  0.00  0.00    +0.126 C 
ATOM     31  C   UNL     1       0.020  -2.833   0.096  0.00  0.00    +0.125 C 
ATOM     32  C   UNL     1       1.462  -5.863   1.145  0.00  0.00    +0.216 C 
ATOM     33  O   UNL     1       2.522  -6.443   1.045  0.00  0.00    -0.276 OA
ATOM     34  H   UNL     1      -0.757  -0.557  -0.038  0.00  0.00    +0.166 HD
ENDBRANCH  19  32
ENDBRANCH   1  19
TORSDOF 3
