REMARK  Name = ZINC08928260
REMARK  5 active torsions:
REMARK  status: ('A' for Active; 'I' for Inactive)
REMARK    1  A    between atoms: C_6  and  S_7
REMARK    2  A    between atoms: S_7  and  N_10
REMARK    3  A    between atoms: C_14  and  C_16
REMARK    4  A    between atoms: N_18  and  C_19
REMARK    5  A    between atoms: C_20  and  C_28
REMARK                            x       y       z     vdW  Elec       q    Type
REMARK                         _______ _______ _______ _____ _____    ______ ____
ROOT
ATOM      1  C   UNL     1       1.147   1.655   0.000  0.00  0.00    +0.236 C 
ATOM      2  O   UNL     1       1.130   2.868   0.007  0.00  0.00    -0.274 OA
ATOM      3  N   UNL     1      -0.011   0.966   0.007  0.00  0.00    -0.278 N 
ATOM      4  H   UNL     1       0.002  -0.004   0.002  0.00  0.00    +0.155 HD
ENDROOT
BRANCH   3   5
ATOM      5  C   UNL     1      -1.221   1.643   0.017  0.00  0.00    +0.084 A 
ATOM      6  C   UNL     1      -2.505   1.115   0.020  0.00  0.00    +0.068 A 
ATOM      7  C   UNL     1      -3.616   2.051   0.030  0.00  0.00    -0.023 A 
ATOM      8  C   UNL     1      -3.268   3.356   0.035  0.00  0.00    -0.004 A 
ATOM      9  S   UNL     1      -1.498   3.353   0.035  0.00  0.00    -0.077 S 
ATOM     10  C   UNL     1      -4.190   4.536   0.045  0.00  0.00    +0.043 C 
ATOM     11  C   UNL     1      -5.599   4.052  -0.330  0.00  0.00    +0.005 C 
ATOM     12  C   UNL     1      -5.931   2.810   0.502  0.00  0.00    +0.005 C 
ATOM     13  C   UNL     1      -5.080   1.628   0.036  0.00  0.00    +0.037 C 
BRANCH   6  14
ATOM     14  C   UNL     1      -2.731  -0.334   0.013  0.00  0.00    +0.244 C 
ATOM     15  O   UNL     1      -2.820  -0.941   1.064  0.00  0.00    -0.270 OA
ATOM     16  N   UNL     1      -2.840  -0.993  -1.158  0.00  0.00    -0.325 N 
ATOM     17  H   UNL     1      -2.769  -0.509  -1.995  0.00  0.00    +0.145 HD
ATOM     18  H   UNL     1      -2.989  -1.951  -1.163  0.00  0.00    +0.145 HD
ENDBRANCH   6  14
ENDBRANCH   3   5
BRANCH   1  23
ATOM     19  N   UNL     1       3.573   1.882  -0.030  0.00  0.00    -0.165 NA
ATOM     20  C   UNL     1       4.379   1.657  -1.243  0.00  0.00    +0.110 C 
ATOM     21  C   UNL     1       3.410   0.980  -2.244  0.00  0.00    +0.019 C 
ATOM     22  C   UNL     1       2.572   0.070  -1.300  0.00  0.00    +0.031 C 
ATOM     23  C   UNL     1       2.462   0.920  -0.017  0.00  0.00    +0.166 C 
BRANCH  19  24
ATOM     24  S   UNL     1       3.870   3.030   1.127  0.00  0.00    +0.062 S 
ATOM     25  O   UNL     1       4.627   4.055   0.497  0.00  0.00    -0.153 OA
ATOM     26  O   UNL     1       2.630   3.286   1.772  0.00  0.00    -0.153 OA
BRANCH  24  32
ATOM     27  C   UNL     1       4.375   1.641   3.422  0.00  0.00    +0.030 A 
ATOM     28  C   UNL     1       5.201   1.060   4.366  0.00  0.00    +0.022 A 
ATOM     29  C   UNL     1       6.575   1.141   4.226  0.00  0.00    +0.041 A 
ATOM     30  C   UNL     1       7.122   1.800   3.139  0.00  0.00    +0.022 A 
ATOM     31  C   UNL     1       6.295   2.376   2.193  0.00  0.00    +0.030 A 
ATOM     32  C   UNL     1       4.923   2.295   2.333  0.00  0.00    +0.106 A 
ATOM     33 CL   UNL     1       7.613   0.418   5.416  0.00  0.00    -0.084 Cl
ENDBRANCH  24  32
ENDBRANCH  19  24
ENDBRANCH   1  23
TORSDOF 5
