REMARK  Name = ZINC13584553
REMARK  10 active torsions:
REMARK  status: ('A' for Active; 'I' for Inactive)
REMARK    1  A    between atoms: C_1  and  C_2
REMARK    2  A    between atoms: C_2  and  C_3
REMARK    3  A    between atoms: C_3  and  C_4
REMARK    4  A    between atoms: C_4  and  C_5
REMARK    5  A    between atoms: C_5  and  N_6
REMARK    6  A    between atoms: C_7  and  C_9
REMARK    7  A    between atoms: C_13  and  N_18
REMARK    8  A    between atoms: N_18  and  C_19
REMARK    9  A    between atoms: N_18  and  S_20
REMARK   10  A    between atoms: S_20  and  C_23
REMARK                            x       y       z     vdW  Elec       q    Type
REMARK                         _______ _______ _______ _____ _____    ______ ____
ROOT
ATOM      1  C   UNL     1      -2.913   1.804   1.006  0.00  0.00    +0.075 A 
ATOM      2  C   UNL     1      -4.215   2.123   0.781  0.00  0.00    +0.029 A 
ATOM      3  C   UNL     1      -5.174   1.103   0.648  0.00  0.00    -0.008 A 
ATOM      4  C   UNL     1      -6.568   1.234   0.412  0.00  0.00    +0.033 A 
ATOM      5  C   UNL     1      -7.364   0.119   0.308  0.00  0.00    +0.052 A 
ATOM      6  C   UNL     1      -6.833  -1.165   0.431  0.00  0.00    +0.026 A 
ATOM      7  C   UNL     1      -5.492  -1.324   0.660  0.00  0.00    +0.017 A 
ATOM      8  C   UNL     1      -4.678  -0.216   0.766  0.00  0.00    +0.020 A 
ATOM      9  S   UNL     1      -2.940   0.021   1.043  0.00  0.00    -0.084 S 
ENDROOT
BRANCH   1  11
ATOM     10  N   UNL     1      -0.535   2.200   1.392  0.00  0.00    -0.311 N 
ATOM     11  C   UNL     1      -1.764   2.707   1.173  0.00  0.00    +0.251 C 
ATOM     12  O   UNL     1      -1.924   3.911   1.113  0.00  0.00    -0.270 OA
ATOM     13  H   UNL     1      -0.408   1.239   1.439  0.00  0.00    +0.149 HD
BRANCH  10  14
ATOM     14  C   UNL     1       0.610   3.099   1.552  0.00  0.00    +0.104 C 
BRANCH  14  15
ATOM     15  C   UNL     1       1.878   2.273   1.780  0.00  0.00    +0.019 C 
BRANCH  15  16
ATOM     16  C   UNL     1       3.075   3.212   1.947  0.00  0.00    +0.001 C 
BRANCH  16  18
ATOM     17  C   UNL     1       5.539   3.326   2.343  0.00  0.00    +0.004 C 
ATOM     18  C   UNL     1       4.343   2.387   2.176  0.00  0.00    -0.003 C 
ENDBRANCH  16  18
ENDBRANCH  15  16
ENDBRANCH  14  15
ENDBRANCH  10  14
ENDBRANCH   1  11
BRANCH   5  19
ATOM     19  N   UNL     1      -8.735   0.275   0.074  0.00  0.00    -0.206 N 
ATOM     20  C   UNL     1      -9.416   1.501   0.497  0.00  0.00    +0.157 C 
BRANCH  19  21
ATOM     21  S   UNL     1      -9.588  -0.928  -0.680  0.00  0.00    +0.074 S 
ATOM     22  O   UNL     1     -10.705  -0.305  -1.301  0.00  0.00    -0.150 OA
ATOM     23  O   UNL     1      -8.644  -1.699  -1.410  0.00  0.00    -0.150 OA
BRANCH  21  24
ATOM     24  C   UNL     1     -10.232  -1.978   0.579  0.00  0.00    +0.109 A 
ATOM     25  C   UNL     1      -9.559  -3.136   0.924  0.00  0.00    +0.030 A 
ATOM     26  C   UNL     1     -10.061  -3.958   1.915  0.00  0.00    +0.017 A 
ATOM     27  C   UNL     1     -11.243  -3.628   2.554  0.00  0.00    +0.018 A 
ATOM     28  C   UNL     1     -11.918  -2.473   2.205  0.00  0.00    +0.017 A 
ATOM     29  C   UNL     1     -11.413  -1.648   1.217  0.00  0.00    +0.030 A 
ATOM     30 BR   UNL     1     -11.934  -4.756   3.905  0.00  0.00    -0.050 Br
ENDBRANCH  21  24
ENDBRANCH  19  21
ENDBRANCH   5  19
TORSDOF 8
