REMARK  Name = ZINC05101065
REMARK  2 active torsions:
REMARK  status: ('A' for Active; 'I' for Inactive)
REMARK    1  A    between atoms: C_7  and  C_11
REMARK    2  A    between atoms: C_25  and  C_26
REMARK                            x       y       z     vdW  Elec       q    Type
REMARK                         _______ _______ _______ _____ _____    ______ ____
ROOT
ATOM      1  C   UNL     1       3.028   5.065  -0.001  0.00  0.00    +0.086 C 
ATOM      2  C   UNL     1       3.847   5.304  -1.238  0.00  0.00    -0.014 A 
ATOM      3  C   UNL     1       3.203   5.468  -2.453  0.00  0.00    +0.006 A 
ATOM      4  C   UNL     1       3.932   5.684  -3.606  0.00  0.00    +0.000 A 
ATOM      5  C   UNL     1       5.313   5.738  -3.555  0.00  0.00    +0.002 A 
ATOM      6  C   UNL     1       5.964   5.578  -2.348  0.00  0.00    +0.023 A 
ATOM      7  C   UNL     1       5.232   5.362  -1.187  0.00  0.00    +0.035 A 
ATOM      8  N   UNL     1       5.901   5.211   0.031  0.00  0.00    -0.313 N 
ATOM      9  C   UNL     1       5.212   5.367   1.219  0.00  0.00    +0.057 A 
ATOM     10  C   UNL     1       3.824   5.307   1.248  0.00  0.00    +0.005 A 
ATOM     11  C   UNL     1       3.175   5.475   2.456  0.00  0.00    +0.119 A 
ATOM     12  N   UNL     1       3.849   5.686   3.572  0.00  0.00    -0.242 NA
ATOM     13  C   UNL     1       5.165   5.747   3.599  0.00  0.00    +0.148 A 
ATOM     14  C   UNL     1       5.904   5.590   2.423  0.00  0.00    +0.110 A 
ATOM     15 CL   UNL     1       5.985   6.026   5.104  0.00  0.00    -0.061 Cl
ATOM     16  H   UNL     1       6.847   4.997   0.042  0.00  0.00    +0.152 HD
ENDROOT
BRANCH   1  23
ATOM     17  C   UNL     1      -1.246   3.139   0.030  0.00  0.00    +0.001 A 
ATOM     18  C   UNL     1      -1.213   1.751   0.017  0.00  0.00    +0.002 A 
ATOM     19  C   UNL     1      -0.013   1.076   0.008  0.00  0.00    +0.026 A 
ATOM     20  C   UNL     1       1.181   1.790   0.000  0.00  0.00    +0.047 A 
ATOM     21  C   UNL     1       1.143   3.196   0.008  0.00  0.00    +0.004 A 
ATOM     22  C   UNL     1      -0.085   3.860   0.023  0.00  0.00    +0.010 A 
ATOM     23  C   UNL     1       2.539   3.639  -0.003  0.00  0.00    -0.010 A 
ATOM     24  C   UNL     1       3.301   2.534  -0.016  0.00  0.00    +0.088 A 
ATOM     25  N   UNL     1       2.507   1.420  -0.014  0.00  0.00    -0.360 N 
ATOM     26  H   UNL     1       2.830   0.505  -0.021  0.00  0.00    +0.165 HD
ENDBRANCH   1  23
BRANCH  14  27
ATOM     27  C   UNL     1       7.335   5.655   2.444  0.00  0.00    +0.104 C 
ATOM     28  N   UNL     1       8.470   5.707   2.461  0.00  0.00    -0.191 NA
ENDBRANCH  14  27
TORSDOF 2
