REMARK  Name = ZINC44544528
REMARK  4 active torsions:
REMARK  status: ('A' for Active; 'I' for Inactive)
REMARK    1  A    between atoms: C_4  and  C_7
REMARK    2  A    between atoms: C_12  and  C_33
REMARK    3  A    between atoms: C_17  and  C_19
REMARK    4  A    between atoms: C_25  and  C_27
REMARK                            x       y       z     vdW  Elec       q    Type
REMARK                         _______ _______ _______ _____ _____    ______ ____
ROOT
ATOM      1  C   UNL     1       3.233  -0.612   0.029  0.00  0.00    +0.087 C 
ATOM      2  C   UNL     1       3.609  -1.084  -1.381  0.00  0.00    +0.002 C 
ATOM      3  C   UNL     1       5.000  -1.730  -1.327  0.00  0.00    +0.008 C 
ATOM      4  C   UNL     1       4.947  -2.911  -0.351  0.00  0.00    +0.002 C 
ATOM      5  C   UNL     1       4.533  -2.390   1.030  0.00  0.00    +0.087 C 
ATOM      6  N   UNL     1       3.201  -1.776   0.928  0.00  0.00    -0.304 NA
ATOM      7  C   UNL     1       2.214  -2.761   0.465  0.00  0.00    +0.011 C 
ATOM      8  N   UNL     1       2.576  -3.251  -0.868  0.00  0.00    +0.398 N 
ATOM      9  C   UNL     1       2.594  -2.139  -1.833  0.00  0.00    -0.030 C 
ATOM     10  C   UNL     1       3.888  -3.905  -0.837  0.00  0.00    -0.030 C 
ATOM     11  H   UNL     1       1.891  -3.929  -1.164  0.00  0.00    -0.078 HD
ENDROOT
BRANCH   1  15
ATOM     12  C   UNL     1      -0.615   1.240  -0.057  0.00  0.00    +0.000 A 
ATOM     13  C   UNL     1      -0.190   0.582   1.082  0.00  0.00    +0.000 A 
ATOM     14  C   UNL     1       1.055  -0.017   1.110  0.00  0.00    +0.005 A 
ATOM     15  C   UNL     1       1.875   0.041  -0.001  0.00  0.00    -0.030 A 
ATOM     16  C   UNL     1       1.450   0.699  -1.141  0.00  0.00    +0.005 A 
ATOM     17  C   UNL     1       0.205   1.299  -1.168  0.00  0.00    +0.000 A 
ENDBRANCH   1  15
BRANCH   9  18
ATOM     18  C   UNL     1       2.981  -2.656  -3.195  0.00  0.00    -0.061 A 
ATOM     19  C   UNL     1       2.214  -3.629  -3.808  0.00  0.00    +0.002 A 
ATOM     20  C   UNL     1       2.569  -4.104  -5.057  0.00  0.00    +0.000 A 
ATOM     21  C   UNL     1       3.692  -3.606  -5.692  0.00  0.00    +0.000 A 
ATOM     22  C   UNL     1       4.458  -2.632  -5.079  0.00  0.00    +0.000 A 
ATOM     23  C   UNL     1       4.100  -2.155  -3.832  0.00  0.00    +0.002 A 
ENDBRANCH   9  18
BRANCH  10  24
ATOM     24  C   UNL     1       4.248  -4.386  -2.219  0.00  0.00    -0.061 A 
ATOM     25  C   UNL     1       5.405  -3.937  -2.828  0.00  0.00    +0.002 A 
ATOM     26  C   UNL     1       5.736  -4.378  -4.095  0.00  0.00    +0.000 A 
ATOM     27  C   UNL     1       4.909  -5.269  -4.755  0.00  0.00    +0.000 A 
ATOM     28  C   UNL     1       3.752  -5.719  -4.146  0.00  0.00    +0.000 A 
ATOM     29  C   UNL     1       3.424  -5.281  -2.876  0.00  0.00    +0.002 A 
ENDBRANCH  10  24
BRANCH   5  30
ATOM     30  C   UNL     1       5.529  -1.361   1.502  0.00  0.00    -0.030 A 
ATOM     31  C   UNL     1       5.172  -0.452   2.480  0.00  0.00    +0.005 A 
ATOM     32  C   UNL     1       6.085   0.492   2.912  0.00  0.00    +0.000 A 
ATOM     33  C   UNL     1       7.355   0.525   2.367  0.00  0.00    +0.000 A 
ATOM     34  C   UNL     1       7.712  -0.385   1.389  0.00  0.00    +0.000 A 
ATOM     35  C   UNL     1       6.800  -1.331   0.960  0.00  0.00    +0.005 A 
ENDBRANCH   5  30
TORSDOF 4
