REMARK  Name = ZINC17102837
REMARK  4 active torsions:
REMARK  status: ('A' for Active; 'I' for Inactive)
REMARK    1  A    between atoms: C_1  and  C_2
REMARK    2  A    between atoms: N_12  and  N_13
REMARK    3  A    between atoms: C_14  and  C_16
REMARK    4  A    between atoms: C_25  and  N_28
REMARK                            x       y       z     vdW  Elec       q    Type
REMARK                         _______ _______ _______ _____ _____    ______ ____
ROOT
ATOM      1  N   UNL     1       1.143   1.898   0.001  0.00  0.00    -0.206 N 
ATOM      2  C   UNL     1      -0.014   1.208   0.009  0.00  0.00    +0.238 C 
ATOM      3  O   UNL     1       0.002  -0.004   0.002  0.00  0.00    -0.273 OA
ATOM      4  H   UNL     1       1.129   2.998   0.007  0.00  0.00    +0.177 HD
ENDROOT
BRANCH   1  16
ATOM      5  C   UNL     1       8.054   3.393  -0.057  0.00  0.00    +0.045 C 
ATOM      6  C   UNL     1       7.106   2.221  -0.054  0.00  0.00    -0.029 A 
ATOM      7  C   UNL     1       7.603   0.933  -0.066  0.00  0.00    +0.005 A 
ATOM      8  C   UNL     1       6.745  -0.153  -0.064  0.00  0.00    +0.001 A 
ATOM      9  C   UNL     1       5.378   0.044  -0.050  0.00  0.00    +0.012 A 
ATOM     10  C   UNL     1       4.869   1.337  -0.037  0.00  0.00    +0.028 A 
ATOM     11  C   UNL     1       5.733   2.440  -0.040  0.00  0.00    +0.046 A 
ATOM     12  N   UNL     1       4.984   3.611  -0.026  0.00  0.00    -0.279 N 
ATOM     13  C   UNL     1       3.666   3.352  -0.021  0.00  0.00    +0.269 C 
ATOM     14  O   UNL     1       2.773   4.178  -0.015  0.00  0.00    -0.268 OA
ATOM     15  C   UNL     1       3.492   1.885  -0.021  0.00  0.00    +0.153 C 
ATOM     16  N   UNL     1       2.366   1.214  -0.014  0.00  0.00    -0.175 NA
ATOM     17  H   UNL     1       5.491   4.588  -0.021  0.00  0.00    +0.155 HD
ENDBRANCH   1  16
BRANCH   2  18
ATOM     18  C   UNL     1      -1.330   1.944   0.019  0.00  0.00    +0.051 C 
ATOM     19  C   UNL     1      -2.479   0.934   0.019  0.00  0.00    +0.020 C 
ATOM     20  C   UNL     1      -3.814   1.681   0.029  0.00  0.00    -0.007 C 
ATOM     21  C   UNL     1      -3.901   2.553   1.284  0.00  0.00    +0.007 C 
ATOM     22  C   UNL     1      -2.752   3.562   1.284  0.00  0.00    -0.007 C 
ATOM     23  C   UNL     1      -1.417   2.816   1.273  0.00  0.00    +0.020 C 
ATOM     24  C   UNL     1      -2.851   4.448   0.040  0.00  0.00    +0.034 C 
ATOM     25  C   UNL     1      -2.764   3.576  -1.215  0.00  0.00    +0.067 C 
ATOM     26  C   UNL     1      -3.913   2.566  -1.215  0.00  0.00    +0.034 C 
ATOM     27  C   UNL     1      -1.429   2.829  -1.225  0.00  0.00    +0.046 C 
BRANCH  25  28
ATOM     28  N   UNL     1      -2.858   4.424  -2.406  0.00  0.00    -0.244 N 
ATOM     29  C   UNL     1      -3.968   5.001  -2.897  0.00  0.00    +0.221 A 
ATOM     30  N   UNL     1      -3.635   5.678  -3.967  0.00  0.00    -0.205 NA
ATOM     31  C   UNL     1      -2.328   5.548  -4.194  0.00  0.00    +0.242 A 
ATOM     32  N   UNL     1      -1.809   4.789  -3.264  0.00  0.00    -0.137 NA
ATOM     33 CL   UNL     1      -1.456   6.272  -5.510  0.00  0.00    -0.040 Cl
ENDBRANCH  25  28
ENDBRANCH   2  18
TORSDOF 3
