REMARK  Name = ZINC11614182
REMARK  6 active torsions:
REMARK  status: ('A' for Active; 'I' for Inactive)
REMARK    1  A    between atoms: C_1  and  C_2
REMARK    2  A    between atoms: C_4  and  C_23
REMARK    3  A    between atoms: C_5  and  S_9
REMARK    4  A    between atoms: C_7  and  C_8
REMARK    5  A    between atoms: S_9  and  N_12
REMARK    6  A    between atoms: C_20  and  C_22
REMARK                            x       y       z     vdW  Elec       q    Type
REMARK                         _______ _______ _______ _____ _____    ______ ____
ROOT
ATOM      1  S   UNL     1       5.071  -0.347  -0.048  0.00  0.00    +0.075 S 
ATOM      2  O   UNL     1       5.911  -1.377  -0.550  0.00  0.00    -0.150 OA
ATOM      3  O   UNL     1       4.986   0.934  -0.658  0.00  0.00    -0.150 OA
ENDROOT
BRANCH   1   4
ATOM      4  N   UNL     1       3.533  -0.962  -0.022  0.00  0.00    -0.200 N 
ATOM      5  C   UNL     1       2.368  -0.199   0.074  0.00  0.00    +0.055 A 
ATOM      6  C   UNL     1       2.224   1.188   0.167  0.00  0.00    +0.025 A 
ATOM      7  C   UNL     1       0.969   1.751   0.254  0.00  0.00    +0.002 A 
ATOM      8  C   UNL     1      -0.157   0.947   0.251  0.00  0.00    +0.000 A 
ATOM      9  C   UNL     1      -0.022  -0.425   0.159  0.00  0.00    +0.005 A 
ATOM     10  C   UNL     1       1.234  -0.995   0.071  0.00  0.00    -0.023 A 
ATOM     11  C   UNL     1       1.662  -2.441  -0.037  0.00  0.00    +0.061 C 
ATOM     12  C   UNL     1       3.197  -2.386  -0.098  0.00  0.00    +0.099 C 
ATOM     13  C   UNL     1       3.700  -2.981  -1.415  0.00  0.00    +0.030 C 
ENDBRANCH   1   4
BRANCH   1  18
ATOM     14  C   UNL     1       6.716   0.578   5.683  0.00  0.00    +0.044 C 
ATOM     15  C   UNL     1       6.305   0.347   4.252  0.00  0.00    -0.047 A 
ATOM     16  C   UNL     1       7.032   0.917   3.223  0.00  0.00    +0.009 A 
ATOM     17  C   UNL     1       6.655   0.705   1.911  0.00  0.00    -0.024 A 
ATOM     18  C   UNL     1       5.551  -0.077   1.626  0.00  0.00    +0.112 A 
ATOM     19  C   UNL     1       4.821  -0.642   2.654  0.00  0.00    +0.032 A 
ATOM     20  C   UNL     1       5.201  -0.435   3.967  0.00  0.00    -0.046 A 
ATOM     21  C   UNL     1       4.409  -1.057   5.088  0.00  0.00    +0.044 C 
ATOM     22  C   UNL     1       7.447   1.327   0.789  0.00  0.00    +0.046 C 
ENDBRANCH   1  18
TORSDOF 2
