REMARK  Name = ZINC39992237
REMARK  12 active torsions:
REMARK  status: ('A' for Active; 'I' for Inactive)
REMARK    1  A    between atoms: C_1  and  O_2
REMARK    2  A    between atoms: O_2  and  C_3
REMARK    3  A    between atoms: C_5  and  C_17
REMARK    4  A    between atoms: C_8  and  O_9
REMARK    5  A    between atoms: O_9  and  C_10
REMARK    6  A    between atoms: C_10  and  C_11
REMARK    7  A    between atoms: C_18  and  C_19
REMARK    8  A    between atoms: C_18  and  C_21
REMARK    9  A    between atoms: N_23  and  C_24
REMARK   10  A    between atoms: C_25  and  C_33
REMARK   11  A    between atoms: N_35  and  C_36
REMARK   12  A    between atoms: C_36  and  C_37
REMARK                            x       y       z     vdW  Elec       q    Type
REMARK                         _______ _______ _______ _____ _____    ______ ____
ROOT
ATOM      1  C   UNL     1       2.452   0.291   4.185  0.00  0.00    +0.032 C 
ATOM      2  C   UNL     1       2.993  -0.336   5.287  0.00  0.00    +0.114 C 
ENDROOT
BRANCH   1   5
ATOM      3  C   UNL     1       0.644  -0.874   1.117  0.00  0.00    +0.162 A 
ATOM      4  C   UNL     1       0.975  -0.133   2.233  0.00  0.00    +0.057 A 
ATOM      5  C   UNL     1       2.094  -0.490   3.000  0.00  0.00    -0.020 A 
ATOM      6  C   UNL     1       2.868  -1.599   2.627  0.00  0.00    +0.012 A 
ATOM      7  C   UNL     1       2.528  -2.331   1.513  0.00  0.00    +0.050 A 
ATOM      8  C   UNL     1       1.416  -1.979   0.757  0.00  0.00    +0.162 A 
BRANCH   3  10
ATOM      9  C   UNL     1      -1.186   0.612   0.797  0.00  0.00    +0.277 C 
ATOM     10  O   UNL     1      -0.440  -0.530   0.371  0.00  0.00    -0.491 OA
ENDBRANCH   3  10
BRANCH   8  11
ATOM     11  O   UNL     1       1.083  -2.709  -0.337  0.00  0.00    -0.484 OA
BRANCH  11  12
ATOM     12  C   UNL     1       1.916  -3.827  -0.649  0.00  0.00    +0.264 C 
BRANCH  12  13
ATOM     13  C   UNL     1       1.396  -4.512  -1.887  0.00  0.00    -0.010 A 
ATOM     14  C   UNL     1       0.463  -5.526  -1.776  0.00  0.00    +0.007 A 
ATOM     15  C   UNL     1      -0.014  -6.154  -2.911  0.00  0.00    +0.000 A 
ATOM     16  C   UNL     1       0.441  -5.767  -4.158  0.00  0.00    +0.000 A 
ATOM     17  C   UNL     1       1.374  -4.753  -4.269  0.00  0.00    +0.000 A 
ATOM     18  C   UNL     1       1.848  -4.122  -3.134  0.00  0.00    +0.007 A 
ENDBRANCH  12  13
ENDBRANCH  11  12
ENDBRANCH   8  11
ENDBRANCH   1   5
BRANCH   2  19
ATOM     19  C   UNL     1       3.506   0.463   6.409  0.00  0.00    +0.259 C 
ATOM     20  O   UNL     1       3.455   1.678   6.365  0.00  0.00    -0.269 OA
ATOM     21  N   UNL     1       4.035  -0.150   7.487  0.00  0.00    -0.275 N 
ATOM     22  H   UNL     1       4.076  -1.119   7.522  0.00  0.00    +0.156 HD
BRANCH  21  23
ATOM     23  C   UNL     1       4.519   0.602   8.544  0.00  0.00    +0.085 A 
ATOM     24  C   UNL     1       5.096   0.148   9.720  0.00  0.00    +0.069 A 
ATOM     25  C   UNL     1       5.526   1.151  10.679  0.00  0.00    -0.023 A 
ATOM     26  C   UNL     1       5.300   2.423  10.287  0.00  0.00    -0.004 A 
ATOM     27  S   UNL     1       4.548   2.275   8.693  0.00  0.00    -0.077 S 
ATOM     28  C   UNL     1       5.626   3.670  11.049  0.00  0.00    +0.043 C 
ATOM     29  C   UNL     1       5.913   3.284  12.507  0.00  0.00    +0.005 C 
ATOM     30  C   UNL     1       6.884   2.100  12.524  0.00  0.00    +0.005 C 
ATOM     31  C   UNL     1       6.178   0.840  12.018  0.00  0.00    +0.037 C 
BRANCH  24  32
ATOM     32  C   UNL     1       5.264  -1.284   9.985  0.00  0.00    +0.247 C 
ATOM     33  O   UNL     1       6.285  -1.851   9.639  0.00  0.00    -0.270 OA
ATOM     34  N   UNL     1       4.290  -1.973  10.610  0.00  0.00    -0.308 N 
ATOM     35  H   UNL     1       3.477  -1.521  10.886  0.00  0.00    +0.149 HD
BRANCH  34  36
ATOM     36  C   UNL     1       4.458  -3.404  10.875  0.00  0.00    +0.131 C 
BRANCH  36  37
ATOM     37  C   UNL     1       3.235  -3.932  11.579  0.00  0.00    -0.016 C 
ATOM     38  C   UNL     1       2.582  -4.953  11.081  0.00  0.00    +0.005 C 
ENDBRANCH  36  37
ENDBRANCH  34  36
ENDBRANCH  24  32
ENDBRANCH  21  23
ENDBRANCH   2  19
BRANCH   2  39
ATOM     39  C   UNL     1       3.053  -1.766   5.339  0.00  0.00    +0.104 C 
ATOM     40  N   UNL     1       3.101  -2.900   5.380  0.00  0.00    -0.191 NA
ENDBRANCH   2  39
TORSDOF 11
