REMARK  Name = ZINC39550860
REMARK  10 active torsions:
REMARK  status: ('A' for Active; 'I' for Inactive)
REMARK    1  A    between atoms: C_1  and  C_2
REMARK    2  A    between atoms: C_2  and  C_3
REMARK    3  A    between atoms: C_3  and  C_4
REMARK    4  A    between atoms: C_7  and  O_10
REMARK    5  A    between atoms: O_10  and  C_11
REMARK    6  A    between atoms: C_13  and  C_21
REMARK    7  A    between atoms: C_16  and  C_17
REMARK    8  A    between atoms: C_24  and  O_29
REMARK    9  A    between atoms: C_25  and  C_28
REMARK   10  A    between atoms: C_26  and  O_27
REMARK                            x       y       z     vdW  Elec       q    Type
REMARK                         _______ _______ _______ _____ _____    ______ ____
ROOT
ATOM      1  C   UNL     1      -0.352  -6.791  -1.825  0.00  0.00    +0.279 C 
ATOM      2  C   UNL     1       0.004  -8.191  -2.283  0.00  0.00    +0.120 C 
ATOM      3  N   UNL     1      -0.724  -8.998  -1.558  0.00  0.00    -0.149 NA
ATOM      4  N   UNL     1      -1.534  -8.310  -0.660  0.00  0.00    -0.145 NA
ATOM      5  C   UNL     1      -1.388  -7.024  -0.744  0.00  0.00    +0.189 C 
ENDROOT
BRANCH   2   6
ATOM      6  C   UNL     1       0.967  -8.564  -3.326  0.00  0.00    +0.044 A 
ATOM      7  C   UNL     1       1.677  -7.572  -4.014  0.00  0.00    +0.017 A 
ATOM      8  C   UNL     1       2.579  -7.927  -4.990  0.00  0.00    +0.046 A 
ATOM      9  C   UNL     1       2.789  -9.268  -5.298  0.00  0.00    +0.123 A 
ATOM     10  C   UNL     1       2.091 -10.258  -4.623  0.00  0.00    +0.033 A 
ATOM     11  C   UNL     1       1.185  -9.917  -3.635  0.00  0.00    +0.132 A 
ATOM     12  C   UNL     1       2.324 -11.708  -4.963  0.00  0.00    +0.051 C 
BRANCH  11  13
ATOM     13  O   UNL     1       0.505 -10.885  -2.970  0.00  0.00    -0.506 OA
ATOM     14  H   UNL     1      -0.334 -11.131  -3.383  0.00  0.00    +0.292 HD
ENDBRANCH  11  13
BRANCH   9  15
ATOM     15  O   UNL     1       3.682  -9.608  -6.263  0.00  0.00    -0.506 OA
ATOM     16  H   UNL     1       4.581  -9.745  -5.936  0.00  0.00    +0.292 HD
ENDBRANCH   9  15
ENDBRANCH   2   6
BRANCH   5  17
ATOM     17  C   UNL     1      -2.101  -5.974   0.069  0.00  0.00    +0.436 C 
ATOM     18  F   UNL     1      -2.981  -6.593   0.963  0.00  0.00    -0.165 F 
ATOM     19  F   UNL     1      -1.163  -5.221   0.783  0.00  0.00    -0.165 F 
ATOM     20  F   UNL     1      -2.821  -5.132  -0.786  0.00  0.00    -0.165 F 
ENDBRANCH   5  17
BRANCH   1  21
ATOM     21  O   UNL     1       0.795  -6.129  -1.289  0.00  0.00    -0.476 OA
BRANCH  21  25
ATOM     22  C   UNL     1       0.750  -2.004  -1.290  0.00  0.00    -0.047 A 
ATOM     23  C   UNL     1      -0.281  -2.706  -1.888  0.00  0.00    +0.007 A 
ATOM     24  C   UNL     1      -0.268  -4.087  -1.889  0.00  0.00    +0.046 A 
ATOM     25  C   UNL     1       0.780  -4.770  -1.290  0.00  0.00    +0.122 A 
ATOM     26  C   UNL     1       1.813  -4.064  -0.691  0.00  0.00    +0.046 A 
ATOM     27  C   UNL     1       1.798  -2.683  -0.697  0.00  0.00    +0.007 A 
BRANCH  22  28
ATOM     28  C   UNL     1       0.733  -0.497  -1.290  0.00  0.00    +0.035 C 
BRANCH  28  30
ATOM     29  C   UNL     1       1.424   1.551  -2.543  0.00  0.00    +0.004 C 
ATOM     30  C   UNL     1       1.441   0.021  -2.543  0.00  0.00    +0.001 C 
ENDBRANCH  28  30
ENDBRANCH  22  28
ENDBRANCH  21  25
ENDBRANCH   1  21
TORSDOF 8
