REMARK  Name = ZINC03899350
REMARK  5 active torsions:
REMARK  status: ('A' for Active; 'I' for Inactive)
REMARK    1  A    between atoms: C_3  and  C_9
REMARK    2  A    between atoms: C_4  and  O_8
REMARK    3  A    between atoms: C_6  and  O_7
REMARK    4  A    between atoms: N_10  and  N_11
REMARK    5  A    between atoms: C_12  and  C_14
REMARK                            x       y       z     vdW  Elec       q    Type
REMARK                         _______ _______ _______ _____ _____    ______ ____
ROOT
ATOM      1  N   UNL     1      -0.863   3.334   1.472  0.00  0.00    -0.207 N 
ATOM      2  C   UNL     1      -0.724   2.012   1.250  0.00  0.00    +0.238 C 
ATOM      3  O   UNL     1      -1.167   1.213   2.049  0.00  0.00    -0.273 OA
ATOM      4  H   UNL     1      -0.509   3.973   0.834  0.00  0.00    +0.177 HD
ENDROOT
BRANCH   2   5
ATOM      5  C   UNL     1      -0.019   1.526   0.010  0.00  0.00    +0.049 C 
ATOM      6  C   UNL     1       1.417   2.055  -0.000  0.00  0.00    +0.019 C 
ATOM      7  C   UNL     1       2.133   1.562  -1.259  0.00  0.00    -0.009 C 
ATOM      8  C   UNL     1       2.154   0.032  -1.268  0.00  0.00    +0.007 C 
ATOM      9  C   UNL     1       0.718  -0.497  -1.257  0.00  0.00    -0.009 C 
ATOM     10  C   UNL     1       0.002  -0.004   0.002  0.00  0.00    +0.019 C 
ATOM     11  C   UNL     1      -0.022   0.009  -2.496  0.00  0.00    +0.007 C 
ATOM     12  C   UNL     1      -0.043   1.539  -2.488  0.00  0.00    -0.009 C 
ATOM     13  C   UNL     1       1.393   2.069  -2.499  0.00  0.00    +0.007 C 
ATOM     14  C   UNL     1      -0.759   2.033  -1.229  0.00  0.00    +0.019 C 
ENDBRANCH   2   5
BRANCH   1  16
ATOM     15  C   UNL     1      -1.653   5.059   2.838  0.00  0.00    +0.142 C 
ATOM     16  N   UNL     1      -1.519   3.786   2.625  0.00  0.00    -0.188 NA
BRANCH  15  19
ATOM     17  C   UNL     1      -3.134   7.344   5.418  0.00  0.00    +0.046 A 
ATOM     18  C   UNL     1      -2.488   6.904   4.283  0.00  0.00    +0.016 A 
ATOM     19  C   UNL     1      -2.342   5.534   4.050  0.00  0.00    +0.036 A 
ATOM     20  C   UNL     1      -2.860   4.613   4.973  0.00  0.00    +0.129 A 
ATOM     21  C   UNL     1      -3.503   5.067   6.110  0.00  0.00    +0.091 A 
ATOM     22  C   UNL     1      -3.642   6.430   6.332  0.00  0.00    +0.120 A 
BRANCH  22  23
ATOM     23  O   UNL     1      -4.279   6.872   7.448  0.00  0.00    -0.507 OA
ATOM     24  H   UNL     1      -5.232   6.992   7.336  0.00  0.00    +0.292 HD
ENDBRANCH  22  23
BRANCH  20  25
ATOM     25  O   UNL     1      -2.728   3.280   4.751  0.00  0.00    -0.506 OA
ATOM     26  H   UNL     1      -1.921   2.898   5.123  0.00  0.00    +0.292 HD
ENDBRANCH  20  25
ENDBRANCH  15  19
ENDBRANCH   1  16
TORSDOF 5
