REMARK  Name = ZINC04748560
REMARK  6 active torsions:
REMARK  status: ('A' for Active; 'I' for Inactive)
REMARK    1  A    between atoms: C_1  and  C_2
REMARK    2  A    between atoms: C_2  and  C_23
REMARK    3  A    between atoms: N_3  and  N_4
REMARK    4  A    between atoms: C_7  and  C_17
REMARK    5  A    between atoms: C_9  and  C_11
REMARK    6  A    between atoms: C_27  and  N_29
REMARK                            x       y       z     vdW  Elec       q    Type
REMARK                         _______ _______ _______ _____ _____    ______ ____
ROOT
ATOM      1  N   UNL     1      -1.206   7.364   0.056  0.00  0.00    -0.205 N 
ATOM      2  C   UNL     1      -2.412   8.044   0.071  0.00  0.00    +0.236 A 
ATOM      3  N   UNL     1      -3.542   7.353   0.071  0.00  0.00    -0.213 NA
ATOM      4  C   UNL     1      -4.721   7.972   0.091  0.00  0.00    +0.077 A 
ATOM      5  C   UNL     1      -4.754   9.367   0.100  0.00  0.00    +0.057 A 
ATOM      6  C   UNL     1      -3.542  10.059   0.093  0.00  0.00    +0.077 A 
ATOM      7  N   UNL     1      -2.404   9.369   0.079  0.00  0.00    -0.213 NA
ATOM      8  H   UNL     1      -0.371   7.857   0.051  0.00  0.00    +0.177 HD
ENDROOT
BRANCH   6   9
ATOM      9  C   UNL     1      -3.523  11.542   0.102  0.00  0.00    +0.001 A 
ATOM     10  C   UNL     1      -4.719  12.257   0.111  0.00  0.00    +0.010 A 
ATOM     11  C   UNL     1      -4.695  13.637   0.124  0.00  0.00    +0.001 A 
ATOM     12  C   UNL     1      -3.487  14.310   0.117  0.00  0.00    +0.000 A 
ATOM     13  C   UNL     1      -2.297  13.605   0.102  0.00  0.00    +0.001 A 
ATOM     14  C   UNL     1      -2.309  12.226   0.094  0.00  0.00    +0.010 A 
ENDBRANCH   6   9
BRANCH   4  15
ATOM     15  C   UNL     1      -5.981   7.190   0.098  0.00  0.00    +0.001 A 
ATOM     16  C   UNL     1      -7.211   7.845   0.119  0.00  0.00    +0.010 A 
ATOM     17  C   UNL     1      -8.380   7.111   0.120  0.00  0.00    +0.001 A 
ATOM     18  C   UNL     1      -8.332   5.729   0.111  0.00  0.00    +0.000 A 
ATOM     19  C   UNL     1      -7.114   5.074   0.096  0.00  0.00    +0.001 A 
ATOM     20  C   UNL     1      -5.939   5.796   0.089  0.00  0.00    +0.010 A 
ENDBRANCH   4  15
BRANCH   1  23
ATOM     21  C   UNL     1       1.235   6.091   0.025  0.00  0.00    +0.068 C 
ATOM     22  C   UNL     1      -0.063   5.325   0.033  0.00  0.00    +0.063 C 
ATOM     23  N   UNL     1      -1.193   5.963   0.047  0.00  0.00    -0.184 NA
BRANCH  22  24
ATOM     24  C   UNL     1      -0.049   3.850   0.024  0.00  0.00    -0.001 A 
ATOM     25  C   UNL     1       1.167   3.160   0.008  0.00  0.00    +0.010 A 
ATOM     26  C   UNL     1       1.177   1.781   0.000  0.00  0.00    +0.002 A 
ATOM     27  C   UNL     1      -0.013   1.076   0.008  0.00  0.00    +0.023 A 
ATOM     28  C   UNL     1      -1.227   1.752   0.017  0.00  0.00    +0.025 A 
ATOM     29  C   UNL     1      -1.249   3.138   0.031  0.00  0.00    +0.032 A 
BRANCH  28  30
ATOM     30  N   UNL     1      -2.426   1.034   0.019  0.00  0.00    -0.358 N 
ATOM     31  H   UNL     1      -2.411   0.065   0.014  0.00  0.00    +0.142 HD
ATOM     32  H   UNL     1      -3.273   1.506   0.026  0.00  0.00    +0.142 HD
ENDBRANCH  28  30
ENDBRANCH  22  24
ENDBRANCH   1  23
TORSDOF 5
