REMARK  Name = ZINC01052003
REMARK  6 active torsions:
REMARK  status: ('A' for Active; 'I' for Inactive)
REMARK    1  A    between atoms: C_1  and  C_2
REMARK    2  A    between atoms: C_2  and  C_18
REMARK    3  A    between atoms: N_3  and  N_4
REMARK    4  A    between atoms: C_5  and  C_7
REMARK    5  A    between atoms: C_10  and  C_12
REMARK    6  A    between atoms: C_21  and  C_24
REMARK                            x       y       z     vdW  Elec       q    Type
REMARK                         _______ _______ _______ _____ _____    ______ ____
ROOT
ATOM      1  C   UNL     1      -3.814   1.743   0.030  0.00  0.00    +0.068 C 
ATOM      2  C   UNL     1      -2.499   1.006   0.020  0.00  0.00    +0.063 C 
ATOM      3  N   UNL     1      -2.483  -0.292   0.013  0.00  0.00    -0.185 NA
ENDROOT
BRANCH   2   4
ATOM      4  C   UNL     1      -1.232   1.759   0.017  0.00  0.00    -0.002 A 
ATOM      5  C   UNL     1      -0.013   1.076   0.008  0.00  0.00    +0.010 A 
ATOM      6  C   UNL     1       1.170   1.780   0.001  0.00  0.00    +0.009 A 
ATOM      7  C   UNL     1       1.151   3.175   0.008  0.00  0.00    -0.018 A 
ATOM      8  C   UNL     1      -0.065   3.858   0.023  0.00  0.00    +0.009 A 
ATOM      9  C   UNL     1      -1.249   3.157   0.030  0.00  0.00    +0.010 A 
BRANCH   7  10
ATOM     10  C   UNL     1       2.426   3.933  -0.001  0.00  0.00    -0.018 A 
ATOM     11  C   UNL     1       3.643   3.254  -0.009  0.00  0.00    +0.008 A 
ATOM     12  C   UNL     1       4.826   3.965  -0.023  0.00  0.00    +0.001 A 
ATOM     13  C   UNL     1       4.806   5.348  -0.016  0.00  0.00    +0.000 A 
ATOM     14  C   UNL     1       3.601   6.027  -0.001  0.00  0.00    +0.001 A 
ATOM     15  C   UNL     1       2.411   5.327   0.007  0.00  0.00    +0.008 A 
ENDBRANCH   7  10
ENDBRANCH   2   4
BRANCH   3  16
ATOM     16  N   UNL     1      -3.687  -1.008   0.015  0.00  0.00    -0.206 N 
ATOM     17  C   UNL     1      -3.670  -2.356   0.009  0.00  0.00    +0.236 C 
ATOM     18  O   UNL     1      -2.612  -2.949   0.000  0.00  0.00    -0.274 OA
ATOM     19  H   UNL     1      -4.533  -0.534   0.022  0.00  0.00    +0.177 HD
BRANCH  17  20
ATOM     20  C   UNL     1      -4.966  -3.126   0.011  0.00  0.00    +0.085 C 
ATOM     21  C   UNL     1      -5.314  -3.918   1.272  0.00  0.00    +0.022 C 
ATOM     22  C   UNL     1      -4.880  -4.653   0.003  0.00  0.00    +0.032 C 
BRANCH  22  23
ATOM     23  C   UNL     1      -5.937  -5.406  -0.763  0.00  0.00    -0.044 A 
ATOM     24  C   UNL     1      -7.268  -5.275  -0.413  0.00  0.00    +0.004 A 
ATOM     25  C   UNL     1      -8.239  -5.962  -1.117  0.00  0.00    +0.000 A 
ATOM     26  C   UNL     1      -7.878  -6.786  -2.167  0.00  0.00    +0.000 A 
ATOM     27  C   UNL     1      -6.547  -6.921  -2.513  0.00  0.00    +0.000 A 
ATOM     28  C   UNL     1      -5.576  -6.231  -1.811  0.00  0.00    +0.004 A 
ENDBRANCH  22  23
ENDBRANCH  17  20
ENDBRANCH   3  16
TORSDOF 5
