REMARK  Name = ZINC08341774
REMARK  6 active torsions:
REMARK  status: ('A' for Active; 'I' for Inactive)
REMARK    1  A    between atoms: C_1  and  N_2
REMARK    2  A    between atoms: C_11  and  C_13
REMARK    3  A    between atoms: N_15  and  N_16
REMARK    4  A    between atoms: C_17  and  C_18
REMARK    5  A    between atoms: C_21  and  S_24
REMARK    6  A    between atoms: S_24  and  C_25
REMARK                            x       y       z     vdW  Elec       q    Type
REMARK                         _______ _______ _______ _____ _____    ______ ____
ROOT
ATOM      1  C   UNL     1      -1.298   2.036   0.019  0.00  0.00    +0.284 C 
ATOM      2  O   UNL     1      -1.307   3.252   0.026  0.00  0.00    -0.267 OA
ATOM      3  N   UNL     1      -2.461   1.355   0.021  0.00  0.00    -0.202 N 
ATOM      4  H   UNL     1      -2.455   0.385   0.016  0.00  0.00    +0.178 HD
ENDROOT
BRANCH   1  15
ATOM      5  C   UNL     1       0.936  -2.168  -0.019  0.00  0.00    +0.176 C 
ATOM      6  N   UNL     1       1.069  -0.710  -0.012  0.00  0.00    -0.231 N 
ATOM      7  C   UNL     1       2.311  -0.182  -0.021  0.00  0.00    +0.275 A 
ATOM      8  O   UNL     1       3.293  -0.902  -0.034  0.00  0.00    -0.266 OA
ATOM      9  C   UNL     1       2.450   1.280  -0.015  0.00  0.00    +0.050 A 
ATOM     10  C   UNL     1       3.685   1.922  -0.023  0.00  0.00    +0.014 A 
ATOM     11  C   UNL     1       3.730   3.300  -0.017  0.00  0.00    +0.001 A 
ATOM     12  C   UNL     1       2.560   4.049  -0.002  0.00  0.00    +0.001 A 
ATOM     13  C   UNL     1       1.327   3.432   0.006  0.00  0.00    +0.011 A 
ATOM     14  C   UNL     1       1.259   2.043   0.001  0.00  0.00    +0.020 A 
ATOM     15  C   UNL     1      -0.016   1.307   0.009  0.00  0.00    +0.155 A 
ATOM     16  N   UNL     1       0.002  -0.004   0.002  0.00  0.00    -0.163 NA
ENDBRANCH   1  15
BRANCH   3  17
ATOM     17  N   UNL     1      -3.679   2.047   0.031  0.00  0.00    -0.187 NA
ATOM     18  C   UNL     1      -4.799   1.390   0.033  0.00  0.00    +0.138 C 
BRANCH  18  19
ATOM     19  C   UNL     1      -6.080   2.118   0.043  0.00  0.00    -0.005 A 
ATOM     20  C   UNL     1      -6.091   3.516   0.056  0.00  0.00    +0.010 A 
ATOM     21  C   UNL     1      -7.290   4.194   0.060  0.00  0.00    +0.015 A 
ATOM     22  C   UNL     1      -8.490   3.488   0.062  0.00  0.00    +0.008 A 
ATOM     23  C   UNL     1      -8.482   2.096   0.054  0.00  0.00    +0.015 A 
ATOM     24  C   UNL     1      -7.287   1.413   0.044  0.00  0.00    +0.010 A 
BRANCH  22  25
ATOM     25  S   UNL     1     -10.022   4.359   0.076  0.00  0.00    -0.129 S 
ATOM     26  C   UNL     1      -9.533   6.106   0.083  0.00  0.00    +0.090 C 
ENDBRANCH  22  25
ENDBRANCH  18  19
ENDBRANCH   3  17
TORSDOF 4
