REMARK  Name = ZINC20896854
REMARK  8 active torsions:
REMARK  status: ('A' for Active; 'I' for Inactive)
REMARK    1  A    between atoms: C_1  and  C_2
REMARK    2  A    between atoms: C_6  and  C_13
REMARK    3  A    between atoms: C_13  and  O_14
REMARK    4  A    between atoms: O_14  and  C_15
REMARK    5  A    between atoms: C_15  and  C_17
REMARK    6  A    between atoms: C_17  and  N_18
REMARK    7  A    between atoms: N_18  and  S_19
REMARK    8  A    between atoms: S_19  and  C_22
REMARK                            x       y       z     vdW  Elec       q    Type
REMARK                         _______ _______ _______ _____ _____    ______ ____
ROOT
ATOM      1  C   UNL     1      -1.614   3.488  -2.988  0.00  0.00    +0.323 C 
ATOM      2  O   UNL     1      -1.758   2.525  -3.704  0.00  0.00    -0.249 OA
ENDROOT
BRANCH   1   3
ATOM      3  O   UNL     1      -1.890   4.717  -3.452  0.00  0.00    -0.459 OA
BRANCH   3   4
ATOM      4  C   UNL     1      -2.357   4.814  -4.823  0.00  0.00    +0.268 C 
BRANCH   4  10
ATOM      5  C   UNL     1      -4.501   7.821 -10.353  0.00  0.00    +0.044 C 
ATOM      6  C   UNL     1      -4.005   7.413  -8.990  0.00  0.00    -0.047 A 
ATOM      7  C   UNL     1      -3.780   6.072  -8.714  0.00  0.00    +0.004 A 
ATOM      8  C   UNL     1      -3.330   5.683  -7.484  0.00  0.00    +0.012 A 
ATOM      9  C   UNL     1      -3.090   6.644  -6.498  0.00  0.00    +0.024 A 
ATOM     10  C   UNL     1      -2.614   6.259  -5.166  0.00  0.00    +0.007 A 
ATOM     11  C   UNL     1      -2.405   7.240  -4.251  0.00  0.00    +0.099 A 
ATOM     12  C   UNL     1      -2.653   8.586  -4.597  0.00  0.00    +0.338 A 
ATOM     13  O   UNL     1      -2.461   9.456  -3.767  0.00  0.00    -0.245 OA
ATOM     14  O   UNL     1      -3.094   8.930  -5.816  0.00  0.00    -0.422 OA
ATOM     15  C   UNL     1      -3.322   8.004  -6.771  0.00  0.00    +0.140 A 
ATOM     16  C   UNL     1      -3.779   8.376  -8.029  0.00  0.00    +0.050 A 
ENDBRANCH   4  10
ENDBRANCH   3   4
ENDBRANCH   1   3
BRANCH   1  17
ATOM     17  C   UNL     1      -1.125   3.309  -1.574  0.00  0.00    +0.226 C 
BRANCH  17  18
ATOM     18  N   UNL     1      -0.897   1.885  -1.312  0.00  0.00    -0.179 NA
ATOM     19  H   UNL     1      -1.442   1.126  -1.892  0.00  0.00    +0.149 HD
BRANCH  18  20
ATOM     20  S   UNL     1      -0.017   1.417   0.010  0.00  0.00    +0.059 S 
ATOM     21  O   UNL     1       0.002  -0.004   0.002  0.00  0.00    -0.153 OA
ATOM     22  O   UNL     1       1.172   2.195   0.003  0.00  0.00    -0.153 OA
BRANCH  20  23
ATOM     23  C   UNL     1      -0.927   1.900   1.439  0.00  0.00    +0.107 A 
ATOM     24  C   UNL     1      -0.717   3.145   2.004  0.00  0.00    +0.030 A 
ATOM     25  C   UNL     1      -1.434   3.528   3.122  0.00  0.00    +0.023 A 
ATOM     26  C   UNL     1      -2.354   2.660   3.683  0.00  0.00    +0.059 A 
ATOM     27  C   UNL     1      -2.560   1.412   3.122  0.00  0.00    +0.061 A 
ATOM     28  C   UNL     1      -1.845   1.033   1.999  0.00  0.00    +0.050 A 
ATOM     29 CL   UNL     1      -3.714   0.323   3.825  0.00  0.00    -0.082 Cl
ATOM     30 CL   UNL     1      -3.250   3.138   5.092  0.00  0.00    -0.082 Cl
ENDBRANCH  20  23
ENDBRANCH  18  20
ENDBRANCH  17  18
ENDBRANCH   1  17
TORSDOF 7
