REMARK  Name = ZINC14569105
REMARK  10 active torsions:
REMARK  status: ('A' for Active; 'I' for Inactive)
REMARK    1  A    between atoms: C_1  and  C_2
REMARK    2  A    between atoms: C_4  and  C_25
REMARK    3  A    between atoms: C_6  and  N_8
REMARK    4  A    between atoms: N_8  and  S_9
REMARK    5  A    between atoms: S_9  and  C_12
REMARK    6  A    between atoms: C_15  and  N_18
REMARK    7  A    between atoms: N_18  and  C_19
REMARK    8  A    between atoms: C_19  and  N_21
REMARK    9  A    between atoms: N_21  and  C_22
REMARK   10  A    between atoms: C_22  and  C_23
REMARK                            x       y       z     vdW  Elec       q    Type
REMARK                         _______ _______ _______ _____ _____    ______ ____
ROOT
ATOM      1  C   UNL     1      -0.473   4.629   0.671  0.00  0.00    +0.109 A 
ATOM      2  C   UNL     1       0.895   4.542   0.850  0.00  0.00    +0.030 A 
ATOM      3  C   UNL     1       1.707   5.602   0.497  0.00  0.00    +0.025 A 
ATOM      4  C   UNL     1       1.148   6.760  -0.028  0.00  0.00    +0.033 A 
ATOM      5  C   UNL     1      -0.228   6.845  -0.201  0.00  0.00    +0.025 A 
ATOM      6  C   UNL     1      -1.034   5.780   0.148  0.00  0.00    +0.030 A 
ENDROOT
BRANCH   1   7
ATOM      7  S   UNL     1      -1.506   3.272   1.116  0.00  0.00    +0.072 S 
ATOM      8  O   UNL     1      -2.820   3.793   1.262  0.00  0.00    -0.150 OA
ATOM      9  O   UNL     1      -0.839   2.581   2.163  0.00  0.00    -0.150 OA
BRANCH   7  10
ATOM     10  N   UNL     1      -1.546   2.242  -0.180  0.00  0.00    -0.216 N 
ATOM     11  H   UNL     1      -2.385   2.068  -0.636  0.00  0.00    +0.174 HD
BRANCH  10  17
ATOM     12  C   UNL     1       2.084   1.904  -3.475  0.00  0.00    +0.044 C 
ATOM     13  C   UNL     1       1.407   1.436  -2.213  0.00  0.00    -0.048 A 
ATOM     14  C   UNL     1       1.946   0.389  -1.488  0.00  0.00    +0.006 A 
ATOM     15  C   UNL     1       1.328  -0.043  -0.329  0.00  0.00    -0.048 A 
ATOM     16  C   UNL     1       0.171   0.570   0.109  0.00  0.00    +0.028 A 
ATOM     17  C   UNL     1      -0.373   1.623  -0.617  0.00  0.00    +0.049 A 
ATOM     18  C   UNL     1       0.250   2.054  -1.781  0.00  0.00    +0.028 A 
ATOM     19  C   UNL     1       1.919  -1.185   0.458  0.00  0.00    +0.044 C 
ENDBRANCH  10  17
ENDBRANCH   7  10
ENDBRANCH   1   7
BRANCH   4  20
ATOM     20  N   UNL     1       1.967   7.837  -0.381  0.00  0.00    -0.297 N 
ATOM     21  H   UNL     1       2.813   7.676  -0.828  0.00  0.00    +0.154 HD
BRANCH  20  22
ATOM     22  C   UNL     1       1.581   9.098  -0.102  0.00  0.00    +0.135 C 
ATOM     23  S   UNL     1       0.153   9.375   0.801  0.00  0.00    -0.019 S 
BRANCH  22  24
ATOM     24  N   UNL     1       2.319  10.140  -0.533  0.00  0.00    -0.323 N 
ATOM     25  H   UNL     1       3.128   9.982  -1.044  0.00  0.00    +0.148 HD
BRANCH  24  26
ATOM     26  C   UNL     1       1.900  11.510  -0.229  0.00  0.00    +0.130 C 
BRANCH  26  27
ATOM     27  C   UNL     1       2.889  12.481  -0.820  0.00  0.00    -0.016 C 
ATOM     28  C   UNL     1       2.477  13.424  -1.630  0.00  0.00    +0.005 C 
ENDBRANCH  26  27
ENDBRANCH  24  26
ENDBRANCH  22  24
ENDBRANCH  20  22
ENDBRANCH   4  20
TORSDOF 8
