REMARK  Name = ZINC59377818
REMARK  6 active torsions:
REMARK  status: ('A' for Active; 'I' for Inactive)
REMARK    1  A    between atoms: C_1  and  C_2
REMARK    2  A    between atoms: N_3  and  N_4
REMARK    3  A    between atoms: N_4  and  C_5
REMARK    4  A    between atoms: C_8  and  N_14
REMARK    5  A    between atoms: C_10  and  N_11
REMARK    6  A    between atoms: N_17  and  C_18
REMARK                            x       y       z     vdW  Elec       q    Type
REMARK                         _______ _______ _______ _____ _____    ______ ____
ROOT
ATOM      1  N   UNL     1      -0.237   0.268   2.259  0.00  0.00    -0.257 N 
ATOM      2  H   UNL     1      -0.912   0.960   2.339  0.00  0.00    +0.172 HD
ENDROOT
BRANCH   1   5
ATOM      3  C   UNL     1      -1.591   1.344   0.114  0.00  0.00    +0.082 C 
ATOM      4  C   UNL     1      -0.530   0.280  -0.007  0.00  0.00    +0.086 C 
ATOM      5  N   UNL     1       0.115  -0.158   1.093  0.00  0.00    -0.297 N 
ATOM      6  N   UNL     1      -0.231  -0.224  -1.195  0.00  0.00    -0.303 N 
ATOM      7  H   UNL     1       0.060  -1.146  -1.271  0.00  0.00    +0.153 HD
ATOM      8  H   UNL     1       0.842  -0.793   1.008  0.00  0.00    +0.185 HD
BRANCH   6   9
ATOM      9  C   UNL     1      -0.333   0.563  -2.325  0.00  0.00    +0.045 A 
ATOM     10  C   UNL     1      -0.155   1.945  -2.235  0.00  0.00    +0.024 A 
ATOM     11  C   UNL     1      -0.258   2.725  -3.366  0.00  0.00    +0.002 A 
ATOM     12  C   UNL     1      -0.538   2.142  -4.592  0.00  0.00    +0.001 A 
ATOM     13  C   UNL     1      -0.717   0.772  -4.688  0.00  0.00    +0.016 A 
ATOM     14  C   UNL     1      -0.610  -0.021  -3.564  0.00  0.00    +0.035 A 
ATOM     15  I   UNL     1      -0.871  -2.094  -3.713  0.00  0.00    -0.042 I 
ENDBRANCH   6   9
ENDBRANCH   1   5
BRANCH   1  16
ATOM     16  C   UNL     1       0.343  -0.256   3.382  0.00  0.00    +0.077 A 
ATOM     17  C   UNL     1       1.396  -1.175   3.268  0.00  0.00    +0.029 A 
ATOM     18  C   UNL     1       1.974  -1.697   4.403  0.00  0.00    +0.035 A 
ATOM     19  C   UNL     1       1.518  -1.317   5.657  0.00  0.00    +0.128 A 
ATOM     20  C   UNL     1       0.478  -0.408   5.778  0.00  0.00    +0.067 A 
ATOM     21  C   UNL     1      -0.108   0.128   4.653  0.00  0.00    +0.151 A 
BRANCH  21  22
ATOM     22  N   UNL     1      -1.214   1.103   4.784  0.00  0.00    +0.058 N 
ATOM     23  O   UNL     1      -1.554   1.558   5.973  0.00  0.00    -0.126 OA
ATOM     24  O   UNL     1      -1.860   1.515   3.713  0.00  0.00    -0.126 OA
ENDBRANCH  21  22
BRANCH  19  25
ATOM     25  N   UNL     1       2.145  -1.884   6.872  0.00  0.00    +0.056 N 
ATOM     26  O   UNL     1       3.133  -2.747   6.761  0.00  0.00    -0.126 OA
ATOM     27  O   UNL     1       1.715  -1.525   8.064  0.00  0.00    -0.126 OA
ENDBRANCH  19  25
ENDBRANCH   1  16
TORSDOF 5
