REMARK  Name = ZINC00863043
REMARK  9 active torsions:
REMARK  status: ('A' for Active; 'I' for Inactive)
REMARK    1  A    between atoms: C_1  and  C_2
REMARK    2  A    between atoms: C_5  and  S_8
REMARK    3  A    between atoms: S_8  and  N_11
REMARK    4  A    between atoms: N_11  and  C_12
REMARK    5  A    between atoms: N_11  and  C_22
REMARK    6  A    between atoms: C_12  and  C_13
REMARK    7  A    between atoms: C_13  and  C_15
REMARK    8  A    between atoms: C_13  and  O_21
REMARK    9  A    between atoms: C_15  and  N_55
REMARK                            x       y       z     vdW  Elec       q    Type
REMARK                         _______ _______ _______ _____ _____    ______ ____
ROOT
ATOM      1  N   UNL     1       6.752  -0.834   2.606  0.00  0.00    -0.199 N 
ENDROOT
BRANCH   1   2
ATOM      2  C   UNL     1       7.407  -1.575   1.618  0.00  0.00    +0.071 A 
ATOM      3  C   UNL     1       7.326  -1.185   0.288  0.00  0.00    +0.046 A 
ATOM      4  C   UNL     1       7.979  -1.917  -0.686  0.00  0.00    +0.043 A 
ATOM      5  C   UNL     1       8.704  -3.044  -0.337  0.00  0.00    +0.021 A 
ATOM      6  C   UNL     1       8.781  -3.438   0.986  0.00  0.00    +0.023 A 
ATOM      7  C   UNL     1       8.135  -2.707   1.965  0.00  0.00    +0.064 A 
ATOM      8 CL   UNL     1       8.233  -3.202   3.626  0.00  0.00    -0.082 Cl
ATOM      9 CL   UNL     1       7.886  -1.427  -2.349  0.00  0.00    -0.083 Cl
ENDBRANCH   1   2
BRANCH   1  10
ATOM     10  S   UNL     1       7.574   0.330   3.449  0.00  0.00    +0.075 S 
ATOM     11  O   UNL     1       8.662   0.733   2.629  0.00  0.00    -0.150 OA
ATOM     12  O   UNL     1       6.601   1.248   3.929  0.00  0.00    -0.150 OA
BRANCH  10  17
ATOM     13  C   UNL     1       9.968  -2.339   8.302  0.00  0.00    +0.044 C 
ATOM     14  C   UNL     1       9.370  -1.673   7.090  0.00  0.00    -0.050 A 
ATOM     15  C   UNL     1      10.087  -1.615   5.909  0.00  0.00    +0.005 A 
ATOM     16  C   UNL     1       9.538  -1.003   4.797  0.00  0.00    +0.029 A 
ATOM     17  C   UNL     1       8.273  -0.450   4.866  0.00  0.00    +0.109 A 
ATOM     18  C   UNL     1       7.559  -0.503   6.048  0.00  0.00    +0.029 A 
ATOM     19  C   UNL     1       8.106  -1.119   7.159  0.00  0.00    +0.005 A 
ENDBRANCH  10  17
ENDBRANCH   1  10
BRANCH   1  20
ATOM     20  C   UNL     1       5.338  -1.087   2.895  0.00  0.00    +0.161 C 
BRANCH  20  21
ATOM     21  C   UNL     1       4.468  -0.286   1.924  0.00  0.00    +0.117 C 
BRANCH  21  22
ATOM     22  O   UNL     1       4.743   1.108   2.076  0.00  0.00    -0.392 OA
ATOM     23  H   UNL     1       4.568   1.449   2.964  0.00  0.00    +0.210 HD
ENDBRANCH  21  22
BRANCH  21  24
ATOM     24  C   UNL     1       2.991  -0.550   2.226  0.00  0.00    -0.046 C 
BRANCH  24  30
ATOM     25  C   UNL     1       2.160  -0.519  -0.048  0.00  0.00    -0.079 C 
ATOM     26  C   UNL     1       1.403   0.327  -1.074  0.00  0.00    -0.019 C 
ATOM     27  C   UNL     1      -0.035   0.540  -0.592  0.00  0.00    -0.004 C 
ATOM     28  C   UNL     1      -0.009   1.211   0.785  0.00  0.00    -0.019 C 
ATOM     29  C   UNL     1       0.789   0.339   1.757  0.00  0.00    -0.079 C 
ATOM     30  N   UNL     1       2.170   0.193   1.248  0.00  0.00    +0.381 N 
ATOM     31  H   UNL     1       2.575   1.126   1.112  0.00  0.00    -0.082 HD
ENDBRANCH  24  30
ENDBRANCH  21  24
ENDBRANCH  20  21
ENDBRANCH   1  20
TORSDOF 8
