REMARK  Name = ZINC04552128
REMARK  6 active torsions:
REMARK  status: ('A' for Active; 'I' for Inactive)
REMARK    1  A    between atoms: C_4  and  C_7
REMARK    2  A    between atoms: C_7  and  C_8
REMARK    3  A    between atoms: C_8  and  C_9
REMARK    4  A    between atoms: C_9  and  N_21
REMARK    5  A    between atoms: N_10  and  N_11
REMARK    6  A    between atoms: N_22  and  C_23
REMARK                            x       y       z     vdW  Elec       q    Type
REMARK                         _______ _______ _______ _____ _____    ______ ____
ROOT
ATOM      1  C   UNL     1       4.618   1.205  -0.044  0.00  0.00    +0.169 C 
ATOM      2  N   UNL     1       4.617  -0.100  -0.037  0.00  0.00    -0.164 NA
ENDROOT
BRANCH   2   3
ATOM      3  N   UNL     1       5.825  -0.802  -0.141  0.00  0.00    -0.214 N 
ATOM      4  C   UNL     1       5.816  -2.179  -0.248  0.00  0.00    +0.179 A 
ATOM      5  N   UNL     1       6.833  -3.004  -0.354  0.00  0.00    -0.224 NA
ATOM      6  C   UNL     1       6.676  -4.341  -0.452  0.00  0.00    +0.080 A 
ATOM      7  C   UNL     1       7.678  -5.332  -0.570  0.00  0.00    +0.029 A 
ATOM      8  C   UNL     1       7.344  -6.658  -0.659  0.00  0.00    +0.002 A 
ATOM      9  C   UNL     1       6.021  -7.076  -0.639  0.00  0.00    +0.001 A 
ATOM     10  C   UNL     1       5.015  -6.134  -0.525  0.00  0.00    +0.017 A 
ATOM     11  C   UNL     1       5.340  -4.803  -0.434  0.00  0.00    +0.041 A 
ATOM     12  S   UNL     1       4.418  -3.293  -0.271  0.00  0.00    -0.051 S 
ATOM     13  H   UNL     1       6.667  -0.322  -0.137  0.00  0.00    +0.177 HD
ENDBRANCH   2   3
BRANCH   1  14
ATOM     14  N   UNL     1       3.455   1.878  -0.031  0.00  0.00    -0.132 NA
ATOM     15  N   UNL     1       2.337   1.234  -0.011  0.00  0.00    -0.148 NA
BRANCH  15  16
ATOM     16  C   UNL     1       1.157   1.918   0.003  0.00  0.00    +0.087 A 
ATOM     17  C   UNL     1       1.160   3.317  -0.005  0.00  0.00    +0.030 A 
ATOM     18  C   UNL     1      -0.028   4.018   0.008  0.00  0.00    +0.016 A 
ATOM     19  C   UNL     1      -1.236   3.330   0.029  0.00  0.00    +0.053 A 
ATOM     20  C   UNL     1      -1.248   1.919   0.032  0.00  0.00    +0.055 A 
ATOM     21  C   UNL     1      -0.055   1.217   0.025  0.00  0.00    +0.043 A 
ATOM     22  C   UNL     1      -2.554   1.223   0.049  0.00  0.00    +0.271 A 
ATOM     23  O   UNL     1      -2.601   0.009   0.056  0.00  0.00    -0.266 OA
ATOM     24  N   UNL     1      -3.690   1.946   0.055  0.00  0.00    -0.263 N 
ATOM     25  H   UNL     1      -4.569   1.469   0.066  0.00  0.00    +0.190 HD
ATOM     26  N   UNL     1      -3.678   3.342   0.047  0.00  0.00    -0.263 N 
ATOM     27  H   UNL     1      -4.548   3.834   0.044  0.00  0.00    +0.190 HD
ATOM     28  C   UNL     1      -2.530   4.046   0.043  0.00  0.00    +0.271 A 
ATOM     29  O   UNL     1      -2.557   5.261   0.037  0.00  0.00    -0.266 OA
ENDBRANCH  15  16
ENDBRANCH   1  14
BRANCH   1  30
ATOM     30  C   UNL     1       5.924   1.957  -0.068  0.00  0.00    +0.084 C 
BRANCH  30  31
ATOM     31  C   UNL     1       6.257   2.444   1.344  0.00  0.00    +0.043 C 
BRANCH  31  35
ATOM     32  C   UNL     1      10.117   4.274   1.345  0.00  0.00    +0.000 A 
ATOM     33  C   UNL     1       8.991   5.036   1.098  0.00  0.00    +0.000 A 
ATOM     34  C   UNL     1       7.742   4.444   1.097  0.00  0.00    +0.003 A 
ATOM     35  C   UNL     1       7.619   3.090   1.344  0.00  0.00    -0.047 A 
ATOM     36  C   UNL     1       8.745   2.328   1.597  0.00  0.00    +0.003 A 
ATOM     37  C   UNL     1       9.994   2.919   1.592  0.00  0.00    +0.000 A 
ENDBRANCH  31  35
ENDBRANCH  30  31
ENDBRANCH   1  30
TORSDOF 6
