REMARK  Name = ZINC45645115
REMARK  5 active torsions:
REMARK  status: ('A' for Active; 'I' for Inactive)
REMARK    1  A    between atoms: C_1  and  C_2
REMARK    2  A    between atoms: C_12  and  C_14
REMARK    3  A    between atoms: C_14  and  O_15
REMARK    4  A    between atoms: O_15  and  C_16
REMARK    5  A    between atoms: C_16  and  C_18
REMARK                            x       y       z     vdW  Elec       q    Type
REMARK                         _______ _______ _______ _____ _____    ______ ____
ROOT
ATOM      1  C   UNL     1       2.547  -0.841   2.786  0.00  0.00    +0.328 C 
ENDROOT
BRANCH   1  12
ATOM      2  C   UNL     1      -0.019   1.526   0.010  0.00  0.00    +0.029 C 
ATOM      3  C   UNL     1       0.002  -0.004   0.002  0.00  0.00    +0.083 C 
ATOM      4  C   UNL     1      -1.430  -0.557   0.082  0.00  0.00    +0.059 C 
ATOM      5  C   UNL     1      -1.457  -1.361   1.363  0.00  0.00    -0.024 A 
ATOM      6  C   UNL     1      -2.472  -2.086   1.957  0.00  0.00    +0.005 A 
ATOM      7  C   UNL     1      -2.247  -2.747   3.150  0.00  0.00    +0.000 A 
ATOM      8  C   UNL     1      -1.003  -2.681   3.749  0.00  0.00    +0.002 A 
ATOM      9  C   UNL     1       0.013  -1.959   3.160  0.00  0.00    +0.024 A 
ATOM     10  C   UNL     1      -0.206  -1.288   1.955  0.00  0.00    +0.040 A 
ATOM     11  N   UNL     1       0.679  -0.510   1.199  0.00  0.00    -0.265 N 
ATOM     12  C   UNL     1       1.964  -0.262   1.523  0.00  0.00    +0.258 C 
ATOM     13  O   UNL     1       2.650   0.428   0.799  0.00  0.00    -0.272 OA
ENDBRANCH   1  12
BRANCH   1  14
ATOM     14  O   UNL     1       3.913  -0.439   2.908  0.00  0.00    -0.455 OA
BRANCH  14  15
ATOM     15  C   UNL     1       4.583  -0.874   3.987  0.00  0.00    +0.314 C 
ATOM     16  O   UNL     1       4.028  -1.573   4.801  0.00  0.00    -0.250 OA
BRANCH  15  17
ATOM     17  C   UNL     1       6.027  -0.490   4.182  0.00  0.00    +0.139 C 
ATOM     18  C   UNL     1       6.558  -1.121   5.472  0.00  0.00    +0.057 C 
ATOM     19  C   UNL     1       8.060  -0.990   5.520  0.00  0.00    -0.005 A 
ATOM     20  C   UNL     1       8.704  -1.146   6.736  0.00  0.00    +0.007 A 
ATOM     21  C   UNL     1      10.078  -1.036   6.816  0.00  0.00    +0.000 A 
ATOM     22  C   UNL     1      10.818  -0.770   5.678  0.00  0.00    +0.004 A 
ATOM     23  C   UNL     1      10.181  -0.613   4.464  0.00  0.00    +0.046 A 
ATOM     24  C   UNL     1       8.797  -0.721   4.380  0.00  0.00    +0.124 A 
ATOM     25  O   UNL     1       8.206  -0.549   3.169  0.00  0.00    -0.491 OA
ATOM     26  C   UNL     1       6.865  -1.013   3.008  0.00  0.00    +0.244 C 
ENDBRANCH  15  17
ENDBRANCH  14  15
ENDBRANCH   1  14
TORSDOF 4
