REMARK  Name = ZINC34889509
REMARK  6 active torsions:
REMARK  status: ('A' for Active; 'I' for Inactive)
REMARK    1  A    between atoms: C_1  and  O_2
REMARK    2  A    between atoms: O_2  and  C_3
REMARK    3  A    between atoms: C_6  and  N_9
REMARK    4  A    between atoms: C_10  and  C_34
REMARK    5  A    between atoms: C_12  and  C_18
REMARK    6  A    between atoms: C_22  and  C_31
REMARK                            x       y       z     vdW  Elec       q    Type
REMARK                         _______ _______ _______ _____ _____    ______ ____
ROOT
ATOM      1  N   UNL     1       2.854  -2.299  -4.733  0.00  0.00    -0.263 N 
ATOM      2  C   UNL     1       2.735  -3.712  -4.398  0.00  0.00    +0.123 C 
ATOM      3  C   UNL     1       2.906  -4.575  -5.649  0.00  0.00    +0.101 C 
ATOM      4  C   UNL     1       4.189  -4.143  -6.371  0.00  0.00    +0.024 C 
ATOM      5  C   UNL     1       3.982  -2.730  -6.920  0.00  0.00    +0.097 C 
ATOM      6  C   UNL     1       3.423  -1.840  -5.848  0.00  0.00    +0.220 C 
ATOM      7  O   UNL     1       3.497  -0.639  -6.003  0.00  0.00    -0.275 OA
ENDROOT
BRANCH   3   8
ATOM      8  C   UNL     1       1.721  -4.386  -6.561  0.00  0.00    +0.225 C 
ATOM      9  O   UNL     1       1.402  -3.271  -6.917  0.00  0.00    -0.275 OA
ATOM     10  N   UNL     1       1.016  -5.455  -6.980  0.00  0.00    -0.264 N 
ATOM     11  C   UNL     1       1.427  -6.825  -6.627  0.00  0.00    +0.168 C 
ATOM     12  C   UNL     1       0.159  -7.609  -6.260  0.00  0.00    +0.276 C 
ATOM     13  O   UNL     1      -0.737  -7.584  -7.373  0.00  0.00    -0.476 OA
ATOM     14  C   UNL     1      -0.999  -6.381  -7.948  0.00  0.00    +0.143 A 
ATOM     15  C   UNL     1      -0.140  -5.302  -7.764  0.00  0.00    +0.078 A 
ATOM     16  C   UNL     1      -0.421  -4.081  -8.356  0.00  0.00    +0.027 A 
ATOM     17  C   UNL     1      -1.562  -3.935  -9.124  0.00  0.00    +0.002 A 
ATOM     18  C   UNL     1      -2.420  -5.004  -9.301  0.00  0.00    +0.004 A 
ATOM     19  C   UNL     1      -2.138  -6.224  -8.723  0.00  0.00    +0.047 A 
BRANCH  12  20
ATOM     20  C   UNL     1       0.524  -9.034  -5.933  0.00  0.00    +0.253 C 
ATOM     21  O   UNL     1       0.126  -9.938  -6.637  0.00  0.00    -0.272 OA
ATOM     22  N   UNL     1       1.291  -9.304  -4.859  0.00  0.00    -0.326 N 
ATOM     23  H   UNL     1       1.609  -8.581  -4.296  0.00  0.00    +0.145 HD
ATOM     24  H   UNL     1       1.526 -10.222  -4.649  0.00  0.00    +0.145 HD
ENDBRANCH  12  20
ENDBRANCH   3   8
BRANCH   1  28
ATOM     25  C   UNL     1       1.301   0.484  -2.043  0.00  0.00    +0.120 A 
ATOM     26  C   UNL     1       0.756   0.369  -3.313  0.00  0.00    +0.047 A 
ATOM     27  C   UNL     1       1.270  -0.552  -4.205  0.00  0.00    +0.027 A 
ATOM     28  C   UNL     1       2.332  -1.363  -3.829  0.00  0.00    +0.037 A 
ATOM     29  C   UNL     1       2.877  -1.248  -2.558  0.00  0.00    +0.027 A 
ATOM     30  C   UNL     1       2.366  -0.322  -1.669  0.00  0.00    +0.047 A 
BRANCH  25  32
ATOM     31  C   UNL     1      -0.302   2.188  -1.617  0.00  0.00    +0.277 C 
ATOM     32  O   UNL     1       0.795   1.391  -1.166  0.00  0.00    -0.495 OA
ENDBRANCH  25  32
ENDBRANCH   1  28
BRANCH   2  33
ATOM     33  C   UNL     1       1.374  -3.970  -3.803  0.00  0.00    -0.026 A 
ATOM     34  C   UNL     1       0.258  -3.354  -4.338  0.00  0.00    +0.005 A 
ATOM     35  C   UNL     1      -0.990  -3.591  -3.792  0.00  0.00    +0.000 A 
ATOM     36  C   UNL     1      -1.121  -4.444  -2.712  0.00  0.00    +0.000 A 
ATOM     37  C   UNL     1      -0.005  -5.061  -2.178  0.00  0.00    +0.000 A 
ATOM     38  C   UNL     1       1.242  -4.827  -2.727  0.00  0.00    +0.005 A 
ENDBRANCH   2  33
TORSDOF 5
