REMARK  Name = ZINC22017880
REMARK  9 active torsions:
REMARK  status: ('A' for Active; 'I' for Inactive)
REMARK    1  A    between atoms: C_1  and  C_2
REMARK    2  A    between atoms: C_2  and  C_3
REMARK    3  A    between atoms: C_3  and  C_31
REMARK    4  A    between atoms: N_6  and  N_10
REMARK    5  A    between atoms: C_11  and  C_13
REMARK    6  A    between atoms: C_13  and  N_14
REMARK    7  A    between atoms: N_14  and  C_15
REMARK    8  A    between atoms: C_18  and  S_21
REMARK    9  A    between atoms: S_21  and  N_24
REMARK                            x       y       z     vdW  Elec       q    Type
REMARK                         _______ _______ _______ _____ _____    ______ ____
ROOT
ATOM      1  N   UNL     1      -0.017   1.393   0.010  0.00  0.00    -0.335 N 
ATOM      2  H   UNL     1       0.928   1.955   0.008  0.00  0.00    +0.147 HD
ENDROOT
BRANCH   1   3
ATOM      3  C   UNL     1       0.002  -0.004   0.002  0.00  0.00    +0.028 A 
ATOM      4  C   UNL     1      -1.190  -0.717   0.015  0.00  0.00    +0.025 A 
ATOM      5  C   UNL     1      -1.168  -2.097   0.003  0.00  0.00    +0.030 A 
ATOM      6  C   UNL     1       0.040  -2.771  -0.012  0.00  0.00    +0.106 A 
ATOM      7  C   UNL     1       1.229  -2.065  -0.020  0.00  0.00    +0.030 A 
ATOM      8  C   UNL     1       1.214  -0.684  -0.013  0.00  0.00    +0.025 A 
BRANCH   6   9
ATOM      9  S   UNL     1       0.064  -4.533  -0.021  0.00  0.00    +0.061 S 
ATOM     10  O   UNL     1      -1.181  -4.953  -0.562  0.00  0.00    -0.153 OA
ATOM     11  O   UNL     1       1.309  -4.919  -0.585  0.00  0.00    -0.153 OA
BRANCH   9  12
ATOM     12  N   UNL     1       0.085  -5.030   1.559  0.00  0.00    -0.177 NA
ATOM     13  C   UNL     1       1.363  -5.226   2.206  0.00  0.00    +0.109 C 
ATOM     14  C   UNL     1       1.846  -6.675   1.988  0.00  0.00    +0.017 C 
ATOM     15  C   UNL     1       1.027  -7.610   2.776  0.00  0.00    +0.001 C 
ATOM     16  C   UNL     1      -0.447  -7.638   2.385  0.00  0.00    +0.001 C 
ATOM     17  C   UNL     1      -1.177  -6.534   3.109  0.00  0.00    +0.017 C 
ATOM     18  C   UNL     1      -1.201  -5.260   2.246  0.00  0.00    +0.109 C 
ENDBRANCH   9  12
ENDBRANCH   6   9
ENDBRANCH   1   3
BRANCH   1  19
ATOM     19  C   UNL     1      -1.295   2.108   0.020  0.00  0.00    +0.199 C 
BRANCH  19  21
ATOM     20  N   UNL     1      -2.076   4.455   0.036  0.00  0.00    -0.222 N 
ATOM     21  C   UNL     1      -1.040   3.593   0.026  0.00  0.00    +0.247 C 
ATOM     22  O   UNL     1       0.098   4.013   0.023  0.00  0.00    -0.273 OA
ATOM     23  H   UNL     1      -3.108   4.074   0.039  0.00  0.00    +0.174 HD
BRANCH  20  27
ATOM     24  C   UNL     1      -1.627   8.023   0.666  0.00  0.00    +0.111 C 
ATOM     25  C   UNL     1      -1.995   6.625   1.123  0.00  0.00    +0.263 C 
ATOM     26  O   UNL     1      -2.354   6.288   2.231  0.00  0.00    -0.271 OA
ATOM     27  N   UNL     1      -1.839   5.835   0.043  0.00  0.00    -0.137 N 
ATOM     28  C   UNL     1      -1.435   6.534  -1.025  0.00  0.00    +0.326 C 
ATOM     29  O   UNL     1      -1.230   6.040  -2.117  0.00  0.00    -0.251 OA
ATOM     30  N   UNL     1      -1.281   7.842  -0.755  0.00  0.00    -0.284 N 
ATOM     31  C   UNL     1      -0.425   8.552   1.450  0.00  0.00    +0.041 C 
ATOM     32  H   UNL     1      -0.971   8.707  -1.360  0.00  0.00    +0.151 HD
BRANCH  24  34
ATOM     33  C   UNL     1      -2.503  10.302   0.133  0.00  0.00    +0.006 C 
ATOM     34  C   UNL     1      -2.821   8.968   0.813  0.00  0.00    +0.032 C 
ENDBRANCH  24  34
ENDBRANCH  20  27
ENDBRANCH  19  21
ENDBRANCH   1  19
TORSDOF 7
