REMARK  Name = ZINC08163726
REMARK  8 active torsions:
REMARK  status: ('A' for Active; 'I' for Inactive)
REMARK    1  A    between atoms: C_1  and  C_2
REMARK    2  A    between atoms: C_6  and  C_25
REMARK    3  A    between atoms: C_7  and  O_8
REMARK    4  A    between atoms: O_8  and  C_9
REMARK    5  A    between atoms: C_9  and  C_11
REMARK    6  A    between atoms: C_9  and  C_12
REMARK    7  A    between atoms: N_14  and  N_15
REMARK    8  A    between atoms: C_16  and  C_18
REMARK                            x       y       z     vdW  Elec       q    Type
REMARK                         _______ _______ _______ _____ _____    ______ ____
ROOT
ATOM      1  C   UNL     1      -2.261   1.871   0.122  0.00  0.00    +0.270 C 
ATOM      2  O   UNL     1      -3.404   1.579   0.405  0.00  0.00    -0.270 OA
ATOM      3  N   UNL     1      -1.350   0.900  -0.088  0.00  0.00    -0.231 N 
ATOM      4  H   UNL     1      -0.437   1.134  -0.318  0.00  0.00    +0.173 HD
ENDROOT
BRANCH   3   5
ATOM      5  N   UNL     1      -1.723  -0.446   0.020  0.00  0.00    -0.230 N 
ATOM      6  C   UNL     1      -0.813  -1.417  -0.196  0.00  0.00    +0.261 C 
ATOM      7  O   UNL     1       0.331  -1.124  -0.484  0.00  0.00    -0.269 OA
ATOM      8  H   UNL     1      -2.636  -0.679   0.250  0.00  0.00    +0.173 HD
BRANCH   6   9
ATOM      9  C   UNL     1      -1.206  -2.837  -0.082  0.00  0.00    +0.052 A 
ATOM     10  C   UNL     1      -2.518  -3.176   0.254  0.00  0.00    +0.014 A 
ATOM     11  C   UNL     1      -2.880  -4.503   0.354  0.00  0.00    +0.001 A 
ATOM     12  C   UNL     1      -1.944  -5.498   0.132  0.00  0.00    +0.001 A 
ATOM     13  C   UNL     1      -0.641  -5.170  -0.197  0.00  0.00    +0.016 A 
ATOM     14  C   UNL     1      -0.266  -3.845  -0.305  0.00  0.00    +0.030 A 
ATOM     15 BR   UNL     1       1.516  -3.397  -0.754  0.00  0.00    -0.050 Br
ENDBRANCH   6   9
ENDBRANCH   3   5
BRANCH   1  16
ATOM     16  C   UNL     1      -1.860   3.319   0.006  0.00  0.00    +0.257 C 
ATOM     17  C   UNL     1      -0.844   3.656   1.100  0.00  0.00    +0.062 C 
BRANCH  16  18
ATOM     18  O   UNL     1      -3.015   4.147   0.157  0.00  0.00    -0.479 OA
BRANCH  18  25
ATOM     19  C   UNL     1      -2.201   6.497   1.497  0.00  0.00    +0.047 C 
ATOM     20  C   UNL     1      -2.649   6.495   0.058  0.00  0.00    -0.008 A 
ATOM     21  C   UNL     1      -2.667   7.675  -0.662  0.00  0.00    +0.007 A 
ATOM     22  C   UNL     1      -3.083   7.675  -1.980  0.00  0.00    +0.001 A 
ATOM     23  C   UNL     1      -3.476   6.494  -2.584  0.00  0.00    +0.007 A 
ATOM     24  C   UNL     1      -3.454   5.312  -1.870  0.00  0.00    -0.008 A 
ATOM     25  C   UNL     1      -3.037   5.309  -0.547  0.00  0.00    +0.127 A 
ATOM     26  C   UNL     1      -3.883   4.025  -2.528  0.00  0.00    +0.047 C 
ENDBRANCH  18  25
ENDBRANCH  16  18
ENDBRANCH   1  16
TORSDOF 5
