REMARK  Name = ZINC09254520
REMARK  9 active torsions:
REMARK  status: ('A' for Active; 'I' for Inactive)
REMARK    1  A    between atoms: C_1  and  C_2
REMARK    2  A    between atoms: C_4  and  N_11
REMARK    3  A    between atoms: C_5  and  O_9
REMARK    4  A    between atoms: O_9  and  C_10
REMARK    5  A    between atoms: N_11  and  C_12
REMARK    6  A    between atoms: C_12  and  C_13
REMARK    7  A    between atoms: N_15  and  C_16
REMARK    8  A    between atoms: C_16  and  C_18
REMARK    9  A    between atoms: C_16  and  C_19
REMARK                            x       y       z     vdW  Elec       q    Type
REMARK                         _______ _______ _______ _____ _____    ______ ____
ROOT
ATOM      1  C   UNL     1       1.280   1.980   0.001  0.00  0.00    +0.197 C 
ENDROOT
BRANCH   1   2
ATOM      2  C   UNL     1      -0.014   1.209   0.009  0.00  0.00    +0.231 C 
ATOM      3  O   UNL     1       0.002  -0.004   0.002  0.00  0.00    -0.274 OA
ATOM      4  N   UNL     1      -1.191   1.867   0.018  0.00  0.00    -0.307 N 
ATOM      5  H   UNL     1      -1.204   2.837   0.023  0.00  0.00    +0.149 HD
BRANCH   4   6
ATOM      6  C   UNL     1      -2.449   1.117   0.020  0.00  0.00    +0.100 C 
ATOM      7  C   UNL     1      -2.816   0.740   1.456  0.00  0.00    +0.033 C 
BRANCH   6   8
ATOM      8  C   UNL     1      -3.543   1.969  -0.571  0.00  0.00    -0.027 A 
ATOM      9  C   UNL     1      -3.610   3.316  -0.266  0.00  0.00    +0.007 A 
ATOM     10  C   UNL     1      -4.609   4.100  -0.812  0.00  0.00    +0.020 A 
ATOM     11  C   UNL     1      -5.549   3.534  -1.655  0.00  0.00    +0.041 A 
ATOM     12  C   UNL     1      -5.484   2.185  -1.955  0.00  0.00    +0.020 A 
ATOM     13  C   UNL     1      -4.481   1.403  -1.413  0.00  0.00    +0.007 A 
ATOM     14 CL   UNL     1      -6.809   4.516  -2.335  0.00  0.00    -0.084 Cl
ENDBRANCH   6   8
ENDBRANCH   4   6
ENDBRANCH   1   2
BRANCH   1  15
ATOM     15  N   UNL     1       2.407   1.043  -0.015  0.00  0.00    -0.333 N 
ATOM     16  H   UNL     1       2.242   0.087  -0.019  0.00  0.00    +0.147 HD
BRANCH  15  20
ATOM     17  C   UNL     1       5.510   4.856  -0.025  0.00  0.00    +0.045 C 
ATOM     18  C   UNL     1       5.255   3.371  -0.030  0.00  0.00    -0.030 A 
ATOM     19  C   UNL     1       3.957   2.894  -0.020  0.00  0.00    +0.031 A 
ATOM     20  C   UNL     1       3.720   1.528  -0.025  0.00  0.00    +0.070 A 
ATOM     21  C   UNL     1       4.793   0.638  -0.035  0.00  0.00    +0.142 A 
ATOM     22  C   UNL     1       6.090   1.123  -0.050  0.00  0.00    +0.067 A 
ATOM     23  C   UNL     1       6.319   2.488  -0.045  0.00  0.00    +0.047 A 
ATOM     24 CL   UNL     1       7.946   3.092  -0.057  0.00  0.00    -0.083 Cl
BRANCH  21  25
ATOM     25  O   UNL     1       4.566  -0.703  -0.034  0.00  0.00    -0.493 OA
ATOM     26  C   UNL     1       5.713  -1.555  -0.044  0.00  0.00    +0.277 C 
ENDBRANCH  21  25
ENDBRANCH  15  20
ENDBRANCH   1  15
TORSDOF 6
