REMARK  Name = ZINC01044856
REMARK  6 active torsions:
REMARK  status: ('A' for Active; 'I' for Inactive)
REMARK    1  A    between atoms: C_4  and  O_18
REMARK    2  A    between atoms: C_5  and  N_7
REMARK    3  A    between atoms: N_7  and  S_8
REMARK    4  A    between atoms: S_8  and  C_11
REMARK    5  A    between atoms: C_14  and  N_17
REMARK    6  A    between atoms: O_18  and  C_19
REMARK                            x       y       z     vdW  Elec       q    Type
REMARK                         _______ _______ _______ _____ _____    ______ ____
ROOT
ATOM      1  C   UNL     1       2.144   8.010  -0.258  0.00  0.00    +0.002 A 
ATOM      2  C   UNL     1       0.975   7.271  -0.234  0.00  0.00    +0.004 A 
ATOM      3  C   UNL     1       1.026   5.890  -0.213  0.00  0.00    +0.048 A 
ATOM      4  C   UNL     1       2.251   5.241  -0.206  0.00  0.00    +0.151 A 
ATOM      5  C   UNL     1       3.429   5.985  -0.230  0.00  0.00    +0.090 A 
ATOM      6  C   UNL     1       3.370   7.371  -0.256  0.00  0.00    +0.028 A 
ENDROOT
BRANCH   5   7
ATOM      7  N   UNL     1       4.668   5.335  -0.229  0.00  0.00    -0.213 N 
ATOM      8  H   UNL     1       4.777   4.496  -0.703  0.00  0.00    +0.174 HD
BRANCH   7   9
ATOM      9  S   UNL     1       5.951   6.000   0.580  0.00  0.00    +0.072 S 
ATOM     10  O   UNL     1       7.014   5.062   0.498  0.00  0.00    -0.150 OA
ATOM     11  O   UNL     1       6.076   7.337   0.114  0.00  0.00    -0.150 OA
BRANCH   9  12
ATOM     12  C   UNL     1       5.498   6.100   2.280  0.00  0.00    +0.109 A 
ATOM     13  C   UNL     1       4.875   7.237   2.763  0.00  0.00    +0.030 A 
ATOM     14  C   UNL     1       4.514   7.316   4.093  0.00  0.00    +0.024 A 
ATOM     15  C   UNL     1       4.788   6.257   4.950  0.00  0.00    +0.025 A 
ATOM     16  C   UNL     1       5.420   5.120   4.463  0.00  0.00    +0.024 A 
ATOM     17  C   UNL     1       5.773   5.045   3.130  0.00  0.00    +0.030 A 
BRANCH  15  18
ATOM     18  N   UNL     1       4.429   6.336   6.298  0.00  0.00    -0.358 N 
ATOM     19  H   UNL     1       4.621   5.596   6.895  0.00  0.00    +0.142 HD
ATOM     20  H   UNL     1       3.988   7.131   6.636  0.00  0.00    +0.142 HD
ENDBRANCH  15  18
ENDBRANCH   9  12
ENDBRANCH   7   9
ENDBRANCH   5   7
BRANCH   4  21
ATOM     21  O   UNL     1       2.302   3.883  -0.181  0.00  0.00    -0.453 OA
BRANCH  21  22
ATOM     22  C   UNL     1       1.132   3.198  -0.275  0.00  0.00    +0.147 A 
ATOM     23  C   UNL     1       0.521   2.705   0.869  0.00  0.00    +0.049 A 
ATOM     24  C   UNL     1      -0.668   2.009   0.771  0.00  0.00    +0.023 A 
ATOM     25  C   UNL     1      -1.253   1.807  -0.466  0.00  0.00    +0.043 A 
ATOM     26  C   UNL     1      -0.643   2.292  -1.610  0.00  0.00    +0.043 A 
ATOM     27  C   UNL     1       0.547   2.989  -1.517  0.00  0.00    +0.085 A 
ATOM     28 CL   UNL     1       1.308   3.604  -2.951  0.00  0.00    -0.080 Cl
ATOM     29 CL   UNL     1      -2.751   0.938  -0.585  0.00  0.00    -0.083 Cl
ENDBRANCH  21  22
ENDBRANCH   4  21
TORSDOF 6
