REMARK  Name = ZINC62040227
REMARK  9 active torsions:
REMARK  status: ('A' for Active; 'I' for Inactive)
REMARK    1  A    between atoms: C_1  and  C_2
REMARK    2  A    between atoms: C_2  and  O_3
REMARK    3  A    between atoms: O_3  and  C_4
REMARK    4  A    between atoms: C_7  and  C_10
REMARK    5  A    between atoms: C_11  and  C_28
REMARK    6  A    between atoms: C_15  and  N_20
REMARK    7  A    between atoms: C_17  and  C_19
REMARK    8  A    between atoms: N_20  and  C_21
REMARK    9  A    between atoms: C_26  and  O_27
REMARK                            x       y       z     vdW  Elec       q    Type
REMARK                         _______ _______ _______ _____ _____    ______ ____
ROOT
ATOM      1  C   UNL     1      -2.448  -6.135  -0.083  0.00  0.00    +0.005 A 
ATOM      2  C   UNL     1      -2.212  -6.872  -1.193  0.00  0.00    -0.003 A 
ATOM      3  S   UNL     1      -1.672  -8.442  -0.542  0.00  0.00    -0.073 S 
ATOM      4  C   UNL     1      -1.774  -8.078   1.190  0.00  0.00    +0.114 A 
ATOM      5  C   UNL     1      -2.220  -6.740   1.224  0.00  0.00    +0.056 A 
ATOM      6  C   UNL     1      -2.386  -6.186   2.522  0.00  0.00    +0.135 A 
ATOM      7  N   UNL     1      -2.115  -6.931   3.582  0.00  0.00    -0.217 NA
ATOM      8  C   UNL     1      -1.695  -8.178   3.476  0.00  0.00    +0.129 A 
ATOM      9  N   UNL     1      -1.532  -8.750   2.298  0.00  0.00    -0.225 NA
ATOM     10  C   UNL     1      -1.406  -8.968   4.726  0.00  0.00    +0.088 C 
ATOM     11  C   UNL     1      -2.368  -6.464  -2.635  0.00  0.00    +0.052 C 
ENDROOT
BRANCH   1  15
ATOM     12  C   UNL     1      -3.812  -2.119  -0.402  0.00  0.00    +0.121 A 
ATOM     13  C   UNL     1      -2.501  -2.434  -0.734  0.00  0.00    +0.046 A 
ATOM     14  C   UNL     1      -2.056  -3.735  -0.632  0.00  0.00    +0.012 A 
ATOM     15  C   UNL     1      -2.923  -4.735  -0.194  0.00  0.00    -0.016 A 
ATOM     16  C   UNL     1      -4.239  -4.415   0.139  0.00  0.00    +0.012 A 
ATOM     17  C   UNL     1      -4.677  -3.111   0.039  0.00  0.00    +0.046 A 
BRANCH  12  18
ATOM     18  O   UNL     1      -4.248  -0.836  -0.505  0.00  0.00    -0.492 OA
BRANCH  18  20
ATOM     19  C   UNL     1      -3.973   1.511  -1.015  0.00  0.00    +0.048 C 
ATOM     20  C   UNL     1      -3.306   0.135  -0.966  0.00  0.00    +0.225 C 
ENDBRANCH  18  20
ENDBRANCH  12  18
ENDBRANCH   1  15
BRANCH   6  21
ATOM     21  N   UNL     1      -2.824  -4.882   2.675  0.00  0.00    -0.296 N 
ATOM     22  H   UNL     1      -2.932  -4.312   1.898  0.00  0.00    +0.154 HD
BRANCH  21  23
ATOM     23  C   UNL     1      -3.112  -4.386   3.953  0.00  0.00    +0.074 A 
ATOM     24  C   UNL     1      -3.365  -5.262   4.998  0.00  0.00    +0.027 A 
ATOM     25  C   UNL     1      -3.649  -4.770   6.258  0.00  0.00    +0.002 A 
ATOM     26  C   UNL     1      -3.682  -3.406   6.480  0.00  0.00    +0.004 A 
ATOM     27  C   UNL     1      -3.431  -2.526   5.443  0.00  0.00    +0.047 A 
ATOM     28  C   UNL     1      -3.140  -3.012   4.178  0.00  0.00    +0.138 A 
BRANCH  28  29
ATOM     29  O   UNL     1      -2.887  -2.148   3.158  0.00  0.00    -0.505 OA
ATOM     30  H   UNL     1      -3.674  -1.883   2.663  0.00  0.00    +0.292 HD
ENDBRANCH  28  29
ENDBRANCH  21  23
ENDBRANCH   6  21
TORSDOF 6
