REMARK  Name = ZINC07588493
REMARK  6 active torsions:
REMARK  status: ('A' for Active; 'I' for Inactive)
REMARK    1  A    between atoms: C_1  and  C_2
REMARK    2  A    between atoms: C_2  and  C_3
REMARK    3  A    between atoms: C_3  and  C_26
REMARK    4  A    between atoms: N_6  and  N_10
REMARK    5  A    between atoms: C_11  and  C_13
REMARK    6  A    between atoms: C_13  and  N_14
REMARK                            x       y       z     vdW  Elec       q    Type
REMARK                         _______ _______ _______ _____ _____    ______ ____
ROOT
ATOM      1  C   UNL     1      -1.433  -0.534   0.013  0.00  0.00    +0.139 C 
ATOM      2  C   UNL     1      -2.205   0.042   1.184  0.00  0.00    +0.268 C 
ATOM      3  O   UNL     1      -1.958  -0.098   2.363  0.00  0.00    -0.271 OA
ATOM      4  N   UNL     1      -3.222   0.740   0.642  0.00  0.00    -0.137 N 
ATOM      5  C   UNL     1      -3.200   0.687  -0.695  0.00  0.00    +0.327 C 
ATOM      6  O   UNL     1      -4.016   1.240  -1.406  0.00  0.00    -0.251 OA
ATOM      7  N   UNL     1      -2.175  -0.046  -1.163  0.00  0.00    -0.280 N 
ATOM      8  H   UNL     1      -1.964  -0.220  -2.094  0.00  0.00    +0.152 HD
ENDROOT
BRANCH   1   9
ATOM      9  C   UNL     1      -1.441  -2.040   0.057  0.00  0.00    -0.015 A 
ATOM     10  C   UNL     1      -0.412  -2.718   0.684  0.00  0.00    +0.006 A 
ATOM     11  C   UNL     1      -0.419  -4.100   0.725  0.00  0.00    +0.000 A 
ATOM     12  C   UNL     1      -1.454  -4.803   0.139  0.00  0.00    +0.000 A 
ATOM     13  C   UNL     1      -2.483  -4.125  -0.487  0.00  0.00    +0.000 A 
ATOM     14  C   UNL     1      -2.479  -2.744  -0.524  0.00  0.00    +0.006 A 
ENDBRANCH   1   9
BRANCH   4  15
ATOM     15  N   UNL     1      -4.184   1.436   1.387  0.00  0.00    -0.225 N 
ATOM     16  C   UNL     1      -4.133   2.781   1.464  0.00  0.00    +0.213 C 
ATOM     17  O   UNL     1      -3.256   3.389   0.888  0.00  0.00    -0.276 OA
ATOM     18  H   UNL     1      -4.886   0.950   1.847  0.00  0.00    +0.173 HD
BRANCH  16  19
ATOM     19  C   UNL     1      -5.168   3.529   2.264  0.00  0.00    +0.020 C 
BRANCH  19  20
ATOM     20  N   UNL     1      -4.895   4.970   2.191  0.00  0.00    +0.387 N 
ATOM     21  C   UNL     1      -5.059   5.428   0.806  0.00  0.00    -0.078 C 
ATOM     22  C   UNL     1      -4.698   6.912   0.708  0.00  0.00    -0.018 C 
ATOM     23  C   UNL     1      -5.622   7.717   1.626  0.00  0.00    +0.000 C 
ATOM     24  C   UNL     1      -5.498   7.182   3.055  0.00  0.00    -0.025 C 
ATOM     25  C   UNL     1      -5.829   5.689   3.066  0.00  0.00    -0.065 C 
ATOM     26  C   UNL     1      -5.710   5.151   4.494  0.00  0.00    -0.015 C 
ATOM     27  C   UNL     1      -6.688   5.897   5.403  0.00  0.00    -0.002 C 
ATOM     28  C   UNL     1      -6.357   7.390   5.392  0.00  0.00    +0.000 C 
ATOM     29  C   UNL     1      -6.473   7.931   3.966  0.00  0.00    +0.002 C 
ATOM     30  H   UNL     1      -3.949   5.149   2.492  0.00  0.00    -0.081 HD
ENDBRANCH  19  20
ENDBRANCH  16  19
ENDBRANCH   4  15
BRANCH   1  32
ATOM     31  C   UNL     1      -0.019   1.526   0.010  0.00  0.00    +0.007 C 
ATOM     32  C   UNL     1       0.002  -0.004   0.002  0.00  0.00    +0.037 C 
ENDBRANCH   1  32
TORSDOF 5
