REMARK  Name = ZINC25794910
REMARK  10 active torsions:
REMARK  status: ('A' for Active; 'I' for Inactive)
REMARK    1  A    between atoms: C_1  and  C_2
REMARK    2  A    between atoms: C_2  and  C_3
REMARK    3  A    between atoms: C_3  and  C_4
REMARK    4  A    between atoms: C_4  and  N_5
REMARK    5  A    between atoms: C_6  and  C_8
REMARK    6  A    between atoms: C_8  and  N_9
REMARK    7  A    between atoms: N_12  and  C_15
REMARK    8  A    between atoms: C_15  and  C_16
REMARK    9  A    between atoms: N_18  and  C_19
REMARK   10  A    between atoms: C_22  and  N_26
REMARK                            x       y       z     vdW  Elec       q    Type
REMARK                         _______ _______ _______ _____ _____    ______ ____
ROOT
ATOM      1  N   UNL     1      -0.722  -2.591  -0.924  0.00  0.00    +0.387 N 
ATOM      2  C   UNL     1      -1.260  -2.077   0.343  0.00  0.00    -0.063 C 
ATOM      3  C   UNL     1      -1.338  -0.549   0.279  0.00  0.00    +0.066 C 
ATOM      4  N   UNL     1       0.002  -0.004   0.019  0.00  0.00    -0.298 NA
ATOM      5  C   UNL     1       0.540  -0.518  -1.248  0.00  0.00    +0.066 C 
ATOM      6  C   UNL     1       0.618  -2.045  -1.184  0.00  0.00    -0.063 C 
ATOM      7  H   UNL     1      -1.387  -2.259  -1.735  0.00  0.00    -0.081 HD
ENDROOT
BRANCH   1   8
ATOM      8  C   UNL     1      -0.702  -4.059  -0.930  0.00  0.00    +0.019 C 
BRANCH   8  10
ATOM      9  N   UNL     1      -0.309  -5.875  -2.564  0.00  0.00    -0.317 N 
ATOM     10  C   UNL     1      -0.381  -4.552  -2.318  0.00  0.00    +0.196 C 
ATOM     11  O   UNL     1      -0.187  -3.757  -3.214  0.00  0.00    -0.278 OA
ATOM     12  H   UNL     1      -0.484  -6.596  -1.752  0.00  0.00    +0.149 HD
BRANCH   9  13
ATOM     13  C   UNL     1       0.004  -6.353  -3.913  0.00  0.00    +0.104 C 
BRANCH  13  14
ATOM     14  C   UNL     1       0.024  -7.883  -3.920  0.00  0.00    +0.018 C 
BRANCH  14  16
ATOM     15  C   UNL     1       0.371  -9.912  -5.335  0.00  0.00    +0.004 C 
ATOM     16  C   UNL     1       0.350  -8.383  -5.328  0.00  0.00    -0.002 C 
ENDBRANCH  14  16
ENDBRANCH  13  14
ENDBRANCH   9  13
ENDBRANCH   8  10
ENDBRANCH   1   8
BRANCH   4  17
ATOM     17  C   UNL     1      -0.018   1.465   0.026  0.00  0.00    +0.180 C 
BRANCH  17  18
ATOM     18  C   UNL     1       1.396   1.986   0.003  0.00  0.00    +0.231 C 
ATOM     19  O   UNL     1       2.328   1.211  -0.017  0.00  0.00    -0.274 OA
ATOM     20  N   UNL     1       1.624   3.315   0.004  0.00  0.00    -0.283 N 
ATOM     21  H   UNL     1       0.781   4.018  -0.070  0.00  0.00    +0.155 HD
BRANCH  20  22
ATOM     22  C   UNL     1       2.934   3.799   0.100  0.00  0.00    +0.052 A 
ATOM     23  C   UNL     1       3.921   3.024   0.692  0.00  0.00    +0.027 A 
ATOM     24  C   UNL     1       5.213   3.505   0.785  0.00  0.00    +0.034 A 
ATOM     25  C   UNL     1       5.523   4.758   0.290  0.00  0.00    +0.128 A 
ATOM     26  C   UNL     1       4.543   5.533  -0.301  0.00  0.00    +0.054 A 
ATOM     27  C   UNL     1       3.250   5.056  -0.403  0.00  0.00    +0.064 A 
ATOM     28 CL   UNL     1       2.021   6.027  -1.150  0.00  0.00    -0.082 Cl
BRANCH  25  29
ATOM     29  N   UNL     1       6.909   5.269   0.391  0.00  0.00    +0.056 N 
ATOM     30  O   UNL     1       7.774   4.587   0.910  0.00  0.00    -0.126 OA
ATOM     31  O   UNL     1       7.184   6.373  -0.045  0.00  0.00    -0.126 OA
ENDBRANCH  25  29
ENDBRANCH  20  22
ENDBRANCH  17  18
ENDBRANCH   4  17
TORSDOF 9
