REMARK  Name = ZINC63818049
REMARK  4 active torsions:
REMARK  status: ('A' for Active; 'I' for Inactive)
REMARK    1  A    between atoms: C_5  and  C_7
REMARK    2  A    between atoms: N_13  and  C_15
REMARK    3  A    between atoms: C_15  and  C_16
REMARK    4  A    between atoms: C_16  and  N_18
REMARK                            x       y       z     vdW  Elec       q    Type
REMARK                         _______ _______ _______ _____ _____    ______ ____
ROOT
ATOM      1  C   UNL     1       1.214  -2.084  -0.129  0.00  0.00    +0.129 C 
ATOM      2  C   UNL     1       1.312  -2.671  -1.515  0.00  0.00    +0.003 C 
ATOM      3  C   UNL     1       0.185  -2.911  -2.191  0.00  0.00    +0.066 C 
ATOM      4  C   UNL     1      -1.095  -2.587  -1.531  0.00  0.00    +0.253 C 
ATOM      5  O   UNL     1      -2.115  -2.471  -2.182  0.00  0.00    -0.269 OA
ATOM      6  N   UNL     1      -1.113  -2.421  -0.193  0.00  0.00    -0.224 N 
ATOM      7  N   UNL     1       0.016  -2.592   0.545  0.00  0.00    -0.226 NA
ATOM      8  H   UNL     1       0.133  -3.559   0.809  0.00  0.00    +0.146 HD
ENDROOT
BRANCH   1  13
ATOM      9  C   UNL     1       0.745   1.394  -1.522  0.00  0.00    +0.000 A 
ATOM     10  C   UNL     1       0.987   2.175  -0.406  0.00  0.00    +0.003 A 
ATOM     11  C   UNL     1       1.302   1.578   0.800  0.00  0.00    +0.039 A 
ATOM     12  C   UNL     1       1.375   0.198   0.891  0.00  0.00    +0.128 A 
ATOM     13  C   UNL     1       1.134  -0.582  -0.227  0.00  0.00    +0.010 A 
ATOM     14  C   UNL     1       0.819   0.017  -1.432  0.00  0.00    +0.008 A 
ATOM     15  F   UNL     1       1.684  -0.386   2.070  0.00  0.00    -0.205 F 
ENDBRANCH   1  13
BRANCH   6  16
ATOM     16  C   UNL     1      -2.365  -2.053   0.474  0.00  0.00    +0.225 C 
BRANCH  16  17
ATOM     17  C   UNL     1      -3.118  -3.301   0.853  0.00  0.00    +0.257 C 
ATOM     18  O   UNL     1      -2.613  -4.393   0.676  0.00  0.00    -0.272 OA
BRANCH  17  19
ATOM     19  N   UNL     1      -4.334  -3.209   1.381  0.00  0.00    -0.155 NA
ATOM     20  C   UNL     1      -5.035  -4.312   1.634  0.00  0.00    +0.164 A 
ATOM     21  N   UNL     1      -6.319  -4.401   2.066  0.00  0.00    -0.335 N 
ATOM     22  H   UNL     1      -6.835  -3.596   2.226  0.00  0.00    +0.168 HD
ATOM     23  C   UNL     1      -6.889  -5.643   2.276  0.00  0.00    +0.055 A 
ATOM     24  C   UNL     1      -8.182  -5.961   2.714  0.00  0.00    +0.027 A 
ATOM     25  C   UNL     1      -8.568  -7.272   2.864  0.00  0.00    +0.002 A 
ATOM     26  C   UNL     1      -7.696  -8.312   2.588  0.00  0.00    +0.001 A 
ATOM     27  C   UNL     1      -6.414  -8.025   2.153  0.00  0.00    +0.017 A 
ATOM     28  C   UNL     1      -6.027  -6.715   2.003  0.00  0.00    +0.039 A 
ATOM     29  S   UNL     1      -4.535  -5.909   1.483  0.00  0.00    -0.052 S 
ENDBRANCH  17  19
ENDBRANCH  16  17
ENDBRANCH   6  16
TORSDOF 4
