REMARK  Name = ZINC34737577
REMARK  8 active torsions:
REMARK  status: ('A' for Active; 'I' for Inactive)
REMARK    1  A    between atoms: C_1  and  C_2
REMARK    2  A    between atoms: C_2  and  C_3
REMARK    3  A    between atoms: C_2  and  C_4
REMARK    4  A    between atoms: C_2  and  C_5
REMARK    5  A    between atoms: C_5  and  C_7
REMARK    6  A    between atoms: C_9  and  C_27
REMARK    7  A    between atoms: C_11  and  C_23
REMARK    8  A    between atoms: C_11  and  C_25
REMARK                            x       y       z     vdW  Elec       q    Type
REMARK                         _______ _______ _______ _____ _____    ______ ____
ROOT
ATOM      1  C   UNL     1       0.435  -2.242  -1.416  0.00  0.00    +0.150 C 
ATOM      2  C   UNL     1      -0.990  -1.918  -1.942  0.00  0.00    +0.083 C 
ATOM      3  C   UNL     1      -1.153  -2.960  -3.080  0.00  0.00    +0.174 C 
ATOM      4  C   UNL     1       0.275  -3.138  -3.624  0.00  0.00    +0.139 C 
ATOM      5  N   UNL     1       1.196  -2.539  -2.633  0.00  0.00    -0.316 N 
ATOM      6  C   UNL     1       2.526  -2.272  -2.908  0.00  0.00    +0.072 C 
ATOM      7  C   UNL     1       2.810  -1.899  -4.173  0.00  0.00    +0.023 C 
ATOM      8  C   UNL     1       1.713  -1.779  -5.155  0.00  0.00    -0.019 A 
ATOM      9  C   UNL     1       0.458  -2.391  -4.920  0.00  0.00    -0.017 A 
ATOM     10  C   UNL     1      -0.563  -2.299  -5.836  0.00  0.00    +0.006 A 
ATOM     11  C   UNL     1      -0.371  -1.602  -7.018  0.00  0.00    +0.000 A 
ATOM     12  C   UNL     1       0.845  -0.998  -7.281  0.00  0.00    +0.001 A 
ATOM     13  C   UNL     1       1.906  -1.065  -6.339  0.00  0.00    +0.008 A 
ENDROOT
BRANCH   2  14
ATOM     14  C   UNL     1      -2.023  -2.128  -0.865  0.00  0.00    -0.033 A 
ATOM     15  C   UNL     1      -3.071  -1.239  -0.716  0.00  0.00    +0.011 A 
ATOM     16  C   UNL     1      -3.983  -1.457   0.263  0.00  0.00    +0.045 A 
ATOM     17  S   UNL     1      -3.369  -2.957   1.013  0.00  0.00    -0.105 S 
ATOM     18  C   UNL     1      -1.941  -3.194  -0.032  0.00  0.00    +0.049 A 
ENDBRANCH   2  14
BRANCH   1  19
ATOM     19  C   UNL     1       1.021  -1.051  -0.702  0.00  0.00    +0.159 C 
ATOM     20  O   UNL     1       0.960   0.044  -1.205  0.00  0.00    -0.295 OA
BRANCH  19  22
ATOM     21  C   UNL     1       2.276   0.106   1.096  0.00  0.00    +0.018 C 
ATOM     22  C   UNL     1       1.682  -1.228   0.641  0.00  0.00    +0.022 C 
ATOM     23  C   UNL     1       2.797  -2.270   0.527  0.00  0.00    +0.018 C 
ATOM     24  C   UNL     1       0.645  -1.700   1.662  0.00  0.00    +0.018 C 
ENDBRANCH  19  22
ENDBRANCH   1  19
BRANCH   3  25
ATOM     25  C   UNL     1      -1.664  -4.233  -2.545  0.00  0.00    +0.087 C 
ATOM     26  N   UNL     1      -2.058  -5.215  -2.132  0.00  0.00    -0.195 NA
ENDBRANCH   3  25
BRANCH   3  27
ATOM     27  C   UNL     1      -2.045  -2.444  -4.130  0.00  0.00    +0.087 C 
ATOM     28  N   UNL     1      -2.734  -2.045  -4.940  0.00  0.00    -0.195 NA
ENDBRANCH   3  27
TORSDOF 5
