REMARK  Name = ZINC37142758
REMARK  4 active torsions:
REMARK  status: ('A' for Active; 'I' for Inactive)
REMARK    1  A    between atoms: C_5  and  C_6
REMARK    2  A    between atoms: C_6  and  N_7
REMARK    3  A    between atoms: N_7  and  C_8
REMARK    4  A    between atoms: C_14  and  C_16
REMARK                            x       y       z     vdW  Elec       q    Type
REMARK                         _______ _______ _______ _____ _____    ______ ____
ROOT
ATOM      1  C   UNL     1      -2.795  -2.061  -1.366  0.00  0.00    -0.068 C 
ATOM      2  C   UNL     1      -2.420  -3.418  -0.766  0.00  0.00    +0.003 C 
ATOM      3  C   UNL     1      -3.661  -4.316  -0.728  0.00  0.00    +0.106 C 
ATOM      4  N   UNL     1      -4.231  -4.391  -2.080  0.00  0.00    -0.301 N 
ATOM      5  C   UNL     1      -4.545  -3.141  -2.786  0.00  0.00    +0.106 C 
ATOM      6  C   UNL     1      -3.294  -2.256  -2.800  0.00  0.00    +0.003 C 
ATOM      7  C   UNL     1      -4.462  -5.584  -2.663  0.00  0.00    +0.219 C 
ATOM      8  O   UNL     1      -4.199  -6.609  -2.070  0.00  0.00    -0.275 OA
ENDROOT
BRANCH   1   9
ATOM      9  N   UNL     1      -1.615  -1.186  -1.373  0.00  0.00    +0.386 N 
ATOM     10  H   UNL     1      -1.841  -0.321  -1.842  0.00  0.00    -0.085 HD
ATOM     11  H   UNL     1      -0.859  -1.645  -1.859  0.00  0.00    -0.085 HD
BRANCH   9  12
ATOM     12  C   UNL     1      -1.208  -0.902   0.009  0.00  0.00    -0.006 C 
BRANCH  12  17
ATOM     13  C   UNL     1      -0.016   1.341   0.009  0.00  0.00    +0.044 A 
ATOM     14  C   UNL     1       1.331   1.769  -0.001  0.00  0.00    +0.057 A 
ATOM     15  C   UNL     1       2.093   0.659  -0.014  0.00  0.00    +0.170 A 
ATOM     16  O   UNL     1       1.282  -0.412  -0.012  0.00  0.00    -0.455 OA
ATOM     17  C   UNL     1       0.002  -0.004   0.002  0.00  0.00    +0.090 A 
ATOM     18 BR   UNL     1       3.983   0.615  -0.034  0.00  0.00    -0.008 Br
ENDBRANCH  12  17
ENDBRANCH   9  12
ENDBRANCH   1   9
BRANCH   7  19
ATOM     19  C   UNL     1      -5.048  -5.645  -4.050  0.00  0.00    +0.075 C 
ATOM     20  C   UNL     1      -6.473  -6.182  -4.192  0.00  0.00    +0.013 C 
ATOM     21  C   UNL     1      -5.286  -7.029  -4.656  0.00  0.00    +0.013 C 
ENDBRANCH   7  19
TORSDOF 4
