REMARK  Name = ZINC39696141
REMARK  10 active torsions:
REMARK  status: ('A' for Active; 'I' for Inactive)
REMARK    1  A    between atoms: C_1  and  C_2
REMARK    2  A    between atoms: C_2  and  C_3
REMARK    3  A    between atoms: C_6  and  C_9
REMARK    4  A    between atoms: C_9  and  C_11
REMARK    5  A    between atoms: C_9  and  N_12
REMARK    6  A    between atoms: C_13  and  C_15
REMARK    7  A    between atoms: C_26  and  C_28
REMARK    8  A    between atoms: C_33  and  S_34
REMARK    9  A    between atoms: S_34  and  C_35
REMARK   10  A    between atoms: C_35  and  C_36
REMARK                            x       y       z     vdW  Elec       q    Type
REMARK                         _______ _______ _______ _____ _____    ______ ____
ROOT
ATOM      1  C   UNL     1       5.887  -0.339  -6.227  0.00  0.00    +0.100 C 
ATOM      2  C   UNL     1       6.966  -1.030  -5.364  0.00  0.00    +0.121 C 
ATOM      3  N   UNL     1       7.645  -1.965  -6.292  0.00  0.00    -0.296 N 
ATOM      4  C   UNL     1       7.740  -1.214  -7.566  0.00  0.00    +0.115 C 
ATOM      5  C   UNL     1       6.401  -0.458  -7.672  0.00  0.00    -0.004 C 
ATOM      6  C   UNL     1       6.622   0.928  -8.270  0.00  0.00    -0.010 C 
ATOM      7  C   UNL     1       7.077   0.784  -9.725  0.00  0.00    -0.082 C 
ATOM      8  N   UNL     1       6.056   0.056 -10.489  0.00  0.00    +0.379 N 
ATOM      9  C   UNL     1       5.916  -1.308  -9.965  0.00  0.00    -0.082 C 
ATOM     10  C   UNL     1       5.413  -1.252  -8.520  0.00  0.00    -0.010 C 
ATOM     11  C   UNL     1       8.079  -3.215  -6.034  0.00  0.00    +0.249 C 
ATOM     12  O   UNL     1       7.841  -3.732  -4.960  0.00  0.00    -0.270 OA
ATOM     13  H   UNL     1       5.173   0.538 -10.411  0.00  0.00    -0.086 HD
ATOM     14  H   UNL     1       6.330   0.016 -11.460  0.00  0.00    -0.086 HD
ENDROOT
BRANCH  11  15
ATOM     15  C   UNL     1       8.843  -3.954  -7.055  0.00  0.00    +0.069 A 
ATOM     16  C   UNL     1       9.730  -3.285  -7.906  0.00  0.00    +0.017 A 
ATOM     17  C   UNL     1      10.423  -4.024  -8.848  0.00  0.00    +0.020 A 
ATOM     18  C   UNL     1      10.222  -5.392  -8.923  0.00  0.00    +0.112 A 
ATOM     19  N   UNL     1       9.382  -6.005  -8.113  0.00  0.00    -0.248 NA
ATOM     20  C   UNL     1       8.697  -5.346  -7.189  0.00  0.00    +0.109 A 
BRANCH  20  21
ATOM     21  S   UNL     1       7.593  -6.218  -6.128  0.00  0.00    -0.105 S 
BRANCH  21  22
ATOM     22  C   UNL     1       7.741  -7.945  -6.665  0.00  0.00    +0.072 C 
ATOM     23  C   UNL     1       6.822  -8.823  -5.814  0.00  0.00    +0.015 C 
ENDBRANCH  21  22
ENDBRANCH  20  21
ENDBRANCH  11  15
BRANCH   1  25
ATOM     24  N   UNL     1       3.414  -0.354  -6.197  0.00  0.00    -0.308 N 
ATOM     25  C   UNL     1       4.564  -1.046  -6.080  0.00  0.00    +0.219 C 
ATOM     26  O   UNL     1       4.535  -2.237  -5.857  0.00  0.00    -0.275 OA
ATOM     27  H   UNL     1       3.437   0.599  -6.376  0.00  0.00    +0.149 HD
BRANCH  24  28
ATOM     28  C   UNL     1       2.128  -1.041  -6.055  0.00  0.00    +0.100 C 
ATOM     29  C   UNL     1       1.756  -1.125  -4.573  0.00  0.00    +0.033 C 
BRANCH  28  33
ATOM     30  C   UNL     1      -0.890   1.131  -8.158  0.00  0.00    -0.048 A 
ATOM     31  C   UNL     1      -0.878  -0.251  -8.199  0.00  0.00    +0.004 A 
ATOM     32  C   UNL     1       0.099  -0.954  -7.518  0.00  0.00    +0.006 A 
ATOM     33  C   UNL     1       1.064  -0.275  -6.797  0.00  0.00    -0.027 A 
ATOM     34  C   UNL     1       1.052   1.107  -6.757  0.00  0.00    +0.006 A 
ATOM     35  C   UNL     1       0.077   1.810  -7.441  0.00  0.00    +0.004 A 
BRANCH  30  37
ATOM     36  C   UNL     1      -1.474   2.192 -10.321  0.00  0.00    +0.009 C 
ATOM     37  C   UNL     1      -1.955   1.897  -8.899  0.00  0.00    +0.032 C 
ENDBRANCH  30  37
ENDBRANCH  28  33
ENDBRANCH  24  28
ENDBRANCH   1  25
TORSDOF 7
