REMARK  Name = ZINC40114575
REMARK  8 active torsions:
REMARK  status: ('A' for Active; 'I' for Inactive)
REMARK    1  A    between atoms: C_1  and  C_2
REMARK    2  A    between atoms: C_5  and  C_8
REMARK    3  A    between atoms: C_8  and  N_9
REMARK    4  A    between atoms: N_9  and  C_10
REMARK    5  A    between atoms: C_18  and  C_20
REMARK    6  A    between atoms: C_21  and  C_31
REMARK    7  A    between atoms: C_24  and  C_30
REMARK    8  A    between atoms: C_25  and  C_29
REMARK                            x       y       z     vdW  Elec       q    Type
REMARK                         _______ _______ _______ _____ _____    ______ ____
ROOT
ATOM      1  N   UNL     1       1.479  -4.720  -0.173  0.00  0.00    -0.286 N 
ATOM      2  C   UNL     1       2.041  -4.856  -1.390  0.00  0.00    +0.283 C 
ATOM      3  O   UNL     1       3.212  -5.173  -1.488  0.00  0.00    -0.267 OA
ENDROOT
BRANCH   2   4
ATOM      4  C   UNL     1       1.240  -4.622  -2.600  0.00  0.00    +0.194 A 
ATOM      5  C   UNL     1       1.679  -4.793  -3.873  0.00  0.00    +0.008 A 
ATOM      6  C   UNL     1       0.553  -4.446  -4.740  0.00  0.00    +0.024 A 
ATOM      7  C   UNL     1       0.363  -4.415  -6.124  0.00  0.00    +0.015 A 
ATOM      8  C   UNL     1      -0.846  -4.034  -6.633  0.00  0.00    -0.047 A 
ATOM      9  C   UNL     1      -1.885  -3.678  -5.784  0.00  0.00    -0.044 A 
ATOM     10  C   UNL     1      -1.718  -3.702  -4.417  0.00  0.00    +0.050 A 
ATOM     11  C   UNL     1      -0.497  -4.087  -3.876  0.00  0.00    +0.136 A 
ATOM     12  O   UNL     1      -0.046  -4.212  -2.612  0.00  0.00    -0.450 OA
ATOM     13  C   UNL     1      -3.212  -3.260  -6.366  0.00  0.00    +0.044 C 
ATOM     14  C   UNL     1      -1.052  -3.999  -8.125  0.00  0.00    +0.044 C 
ATOM     15  C   UNL     1       3.050  -5.246  -4.306  0.00  0.00    +0.048 C 
ENDBRANCH   2   4
BRANCH   1  16
ATOM     16  C   UNL     1       2.244  -5.059   1.030  0.00  0.00    +0.099 C 
ATOM     17  C   UNL     1       3.471  -4.138   1.141  0.00  0.00    +0.047 C 
ATOM     18  C   UNL     1       4.447  -4.687   2.210  0.00  0.00    +0.168 C 
ATOM     19  S   UNL     1       4.115  -6.495   2.170  0.00  0.00    -0.029 S 
ATOM     20  O   UNL     1       3.607  -6.901   3.433  0.00  0.00    -0.174 OA
ATOM     21  O   UNL     1       5.247  -7.161   1.625  0.00  0.00    -0.174 OA
ATOM     22  C   UNL     1       2.749  -6.527   0.934  0.00  0.00    +0.188 C 
ENDBRANCH   1  16
BRANCH   1  23
ATOM     23  C   UNL     1       0.103  -4.232  -0.052  0.00  0.00    +0.143 C 
BRANCH  23  28
ATOM     24  C   UNL     1       0.130   1.528   0.407  0.00  0.00    +0.044 C 
ATOM     25  C   UNL     1       0.123   0.026   0.288  0.00  0.00    -0.050 A 
ATOM     26  C   UNL     1       0.176  -0.568  -0.959  0.00  0.00    +0.003 A 
ATOM     27  C   UNL     1       0.170  -1.946  -1.069  0.00  0.00    +0.005 A 
ATOM     28  C   UNL     1       0.111  -2.730   0.068  0.00  0.00    -0.030 A 
ATOM     29  C   UNL     1       0.059  -2.136   1.315  0.00  0.00    +0.005 A 
ATOM     30  C   UNL     1       0.069  -0.758   1.425  0.00  0.00    +0.003 A 
ENDBRANCH  23  28
ENDBRANCH   1  23
TORSDOF 4
