REMARK  Name = ZINC03445989
REMARK  8 active torsions:
REMARK  status: ('A' for Active; 'I' for Inactive)
REMARK    1  A    between atoms: C_1  and  C_2
REMARK    2  A    between atoms: C_2  and  N_36
REMARK    3  A    between atoms: C_3  and  C_4
REMARK    4  A    between atoms: C_3  and  N_36
REMARK    5  A    between atoms: C_5  and  C_6
REMARK    6  A    between atoms: C_5  and  N_36
REMARK    7  A    between atoms: C_10  and  C_14
REMARK    8  A    between atoms: C_11  and  C_13
REMARK                            x       y       z     vdW  Elec       q    Type
REMARK                         _______ _______ _______ _____ _____    ______ ____
ROOT
ATOM      1  C   UNL     1       1.008   4.048  -0.159  0.00  0.00    +0.116 A 
ATOM      2  N   UNL     1       2.157   3.461  -0.435  0.00  0.00    -0.227 NA
ATOM      3  C   UNL     1       2.224   2.151  -0.541  0.00  0.00    +0.114 A 
ATOM      4  C   UNL     1       1.078   1.338  -0.365  0.00  0.00    +0.048 A 
ATOM      5  C   UNL     1       1.314  -0.088  -0.513  0.00  0.00    -0.028 A 
ATOM      6  C   UNL     1       2.551  -0.520  -0.796  0.00  0.00    -0.008 A 
ATOM      7  S   UNL     1       3.510   0.980  -0.887  0.00  0.00    -0.074 S 
ATOM      8  C   UNL     1       3.021  -1.939  -0.992  0.00  0.00    +0.052 C 
ATOM      9  C   UNL     1       0.182  -1.069  -0.350  0.00  0.00    +0.045 C 
ATOM     10  C   UNL     1      -0.118   2.031  -0.066  0.00  0.00    +0.141 A 
ATOM     11  N   UNL     1      -0.097   3.346   0.018  0.00  0.00    -0.222 NA
ATOM     12 CL   UNL     1      -1.599   1.160   0.183  0.00  0.00    -0.061 Cl
ENDROOT
BRANCH   1  13
ATOM     13  C   UNL     1       0.956   5.549  -0.042  0.00  0.00    -0.001 C 
BRANCH  13  14
ATOM     14  N   UNL     1       0.681   6.122  -1.377  0.00  0.00    +0.384 N 
ATOM     15  H   UNL     1       1.351   5.733  -2.051  0.00  0.00    -0.081 HD
BRANCH  14  17
ATOM     16  C   UNL     1      -1.719   6.327  -0.819  0.00  0.00    -0.017 C 
ATOM     17  C   UNL     1      -0.690   5.769  -1.804  0.00  0.00    -0.082 C 
ENDBRANCH  14  17
BRANCH  14  18
ATOM     18  C   UNL     1       0.836   7.591  -1.338  0.00  0.00    -0.082 C 
ATOM     19  C   UNL     1       0.907   8.116  -2.773  0.00  0.00    -0.017 C 
ENDBRANCH  14  18
ENDBRANCH  13  14
ENDBRANCH   1  13
TORSDOF 4
