REMARK  Name = ZINC66877862
REMARK  10 active torsions:
REMARK  status: ('A' for Active; 'I' for Inactive)
REMARK    1  A    between atoms: C_1  and  C_2
REMARK    2  A    between atoms: C_2  and  C_4
REMARK    3  A    between atoms: C_2  and  O_13
REMARK    4  A    between atoms: C_7  and  N_10
REMARK    5  A    between atoms: O_13  and  C_14
REMARK    6  A    between atoms: C_14  and  C_16
REMARK    7  A    between atoms: C_18  and  N_26
REMARK    8  A    between atoms: C_20  and  N_22
REMARK    9  A    between atoms: C_23  and  C_25
REMARK   10  A    between atoms: C_27  and  C_29
REMARK                            x       y       z     vdW  Elec       q    Type
REMARK                         _______ _______ _______ _____ _____    ______ ____
ROOT
ATOM      1  C   UNL     1       1.943  -1.156  -2.448  0.00  0.00    +0.063 A 
ATOM      2  C   UNL     1       1.228  -1.447  -3.610  0.00  0.00    +0.038 A 
ATOM      3  C   UNL     1       1.889  -1.945  -4.722  0.00  0.00    +0.036 A 
ATOM      4  C   UNL     1       3.261  -2.155  -4.680  0.00  0.00    +0.046 A 
ATOM      5  C   UNL     1       3.976  -1.867  -3.525  0.00  0.00    +0.036 A 
ATOM      6  C   UNL     1       3.322  -1.363  -2.411  0.00  0.00    +0.038 A 
ENDROOT
BRANCH   5   7
ATOM      7  N   UNL     1       5.358  -2.082  -3.486  0.00  0.00    -0.286 N 
ATOM      8  C   UNL     1       5.945  -2.492  -2.345  0.00  0.00    +0.214 C 
ATOM      9  O   UNL     1       5.266  -2.768  -1.379  0.00  0.00    -0.276 OA
ATOM     10  C   UNL     1       7.446  -2.607  -2.268  0.00  0.00    +0.109 C 
ATOM     11  H   UNL     1       5.894  -1.935  -4.282  0.00  0.00    +0.155 HD
ENDBRANCH   5   7
BRANCH   3  12
ATOM     12  N   UNL     1       1.173  -2.237  -5.889  0.00  0.00    -0.286 N 
ATOM     13  C   UNL     1       1.741  -2.038  -7.095  0.00  0.00    +0.214 C 
ATOM     14  O   UNL     1       2.833  -1.517  -7.173  0.00  0.00    -0.276 OA
ATOM     15  C   UNL     1       1.018  -2.464  -8.347  0.00  0.00    +0.109 C 
ATOM     16  H   UNL     1       0.269  -2.582  -5.830  0.00  0.00    +0.155 HD
ENDBRANCH   3  12
BRANCH   1  17
ATOM     17  C   UNL     1       1.241  -0.625  -1.260  0.00  0.00    +0.340 C 
ATOM     18  O   UNL     1       1.866  -0.368  -0.251  0.00  0.00    -0.245 OA
BRANCH  17  19
ATOM     19  O   UNL     1      -0.090  -0.427  -1.298  0.00  0.00    -0.453 OA
BRANCH  19  21
ATOM     20  C   UNL     1      -0.707   1.618  -0.167  0.00  0.00    +0.057 C 
ATOM     21  C   UNL     1      -0.703   0.089  -0.114  0.00  0.00    +0.204 C 
BRANCH  21  22
ATOM     22  C   UNL     1      -2.120  -0.415  -0.022  0.00  0.00    -0.007 A 
ATOM     23  C   UNL     1      -2.866  -0.594  -1.171  0.00  0.00    +0.009 A 
ATOM     24  C   UNL     1      -4.167  -1.056  -1.087  0.00  0.00    +0.033 A 
ATOM     25  C   UNL     1      -4.720  -1.339   0.148  0.00  0.00    +0.126 A 
ATOM     26  C   UNL     1      -3.974  -1.161   1.298  0.00  0.00    +0.033 A 
ATOM     27  C   UNL     1      -2.672  -0.703   1.212  0.00  0.00    +0.009 A 
BRANCH  25  28
ATOM     28  N   UNL     1      -6.113  -1.833   0.239  0.00  0.00    +0.056 N 
ATOM     29  O   UNL     1      -6.766  -1.988  -0.767  0.00  0.00    -0.126 OA
ATOM     30  O   UNL     1      -6.597  -2.080   1.318  0.00  0.00    -0.126 OA
ENDBRANCH  25  28
ENDBRANCH  21  22
ENDBRANCH  19  21
ENDBRANCH  17  19
ENDBRANCH   1  17
TORSDOF 7
