REMARK  Name = ZINC14025041
REMARK  12 active torsions:
REMARK  status: ('A' for Active; 'I' for Inactive)
REMARK    1  A    between atoms: C_1  and  C_2
REMARK    2  A    between atoms: C_2  and  C_3
REMARK    3  A    between atoms: C_2  and  C_4
REMARK    4  A    between atoms: C_4  and  O_5
REMARK    5  A    between atoms: O_5  and  C_6
REMARK    6  A    between atoms: C_9  and  C_12
REMARK    7  A    between atoms: N_14  and  N_15
REMARK    8  A    between atoms: N_15  and  C_16
REMARK    9  A    between atoms: C_16  and  N_18
REMARK   10  A    between atoms: C_19  and  C_21
REMARK   11  A    between atoms: C_21  and  C_22
REMARK   12  A    between atoms: C_21  and  C_28
REMARK                            x       y       z     vdW  Elec       q    Type
REMARK                         _______ _______ _______ _____ _____    ______ ____
ROOT
ATOM      1  C   UNL     1      -0.823  -0.178   3.622  0.00  0.00    +0.153 C 
ATOM      2  S   UNL     1      -2.341  -0.969   3.594  0.00  0.00    -0.017 S 
ENDROOT
BRANCH   1   3
ATOM      3  N   UNL     1      -0.175   0.077   2.468  0.00  0.00    -0.266 N 
ATOM      4  C   UNL     1      -0.722  -0.290   1.292  0.00  0.00    +0.230 C 
ATOM      5  O   UNL     1      -1.798  -0.850   1.273  0.00  0.00    -0.274 OA
ATOM      6  H   UNL     1       0.685   0.525   2.483  0.00  0.00    +0.157 HD
BRANCH   4   7
ATOM      7  C   UNL     1       0.002  -0.004   0.002  0.00  0.00    +0.135 C 
BRANCH   7   8
ATOM      8  C   UNL     1       0.208   1.482  -0.140  0.00  0.00    -0.031 A 
ATOM      9  C   UNL     1      -0.864   2.344  -0.003  0.00  0.00    +0.005 A 
ATOM     10  C   UNL     1      -0.675   3.708  -0.129  0.00  0.00    +0.000 A 
ATOM     11  C   UNL     1       0.585   4.208  -0.402  0.00  0.00    +0.000 A 
ATOM     12  C   UNL     1       1.655   3.346  -0.545  0.00  0.00    +0.000 A 
ATOM     13  C   UNL     1       1.467   1.983  -0.414  0.00  0.00    +0.005 A 
ENDBRANCH   7   8
BRANCH   7  14
ATOM     14  C   UNL     1      -0.817  -0.511  -1.157  0.00  0.00    -0.031 A 
ATOM     15  C   UNL     1      -2.134  -0.116  -1.298  0.00  0.00    +0.005 A 
ATOM     16  C   UNL     1      -2.884  -0.577  -2.364  0.00  0.00    +0.000 A 
ATOM     17  C   UNL     1      -2.320  -1.442  -3.283  0.00  0.00    +0.000 A 
ATOM     18  C   UNL     1      -1.005  -1.842  -3.138  0.00  0.00    +0.000 A 
ATOM     19  C   UNL     1      -0.253  -1.376  -2.076  0.00  0.00    +0.005 A 
ENDBRANCH   7  14
ENDBRANCH   4   7
ENDBRANCH   1   3
BRANCH   1  20
ATOM     20  N   UNL     1      -0.275   0.189   4.798  0.00  0.00    -0.245 N 
ATOM     21  H   UNL     1      -0.742   0.005   5.628  0.00  0.00    +0.172 HD
BRANCH  20  24
ATOM     22  C   UNL     1       1.514   1.203   5.996  0.00  0.00    +0.260 C 
ATOM     23  O   UNL     1       0.930   0.973   7.037  0.00  0.00    -0.269 OA
ATOM     24  N   UNL     1       0.967   0.836   4.820  0.00  0.00    -0.231 N 
ATOM     25  H   UNL     1       1.433   1.020   3.990  0.00  0.00    +0.173 HD
BRANCH  22  29
ATOM     26  C   UNL     1       5.281   3.163   6.064  0.00  0.00    +0.121 A 
ATOM     27  C   UNL     1       4.614   2.902   7.255  0.00  0.00    +0.046 A 
ATOM     28  C   UNL     1       3.393   2.267   7.237  0.00  0.00    +0.016 A 
ATOM     29  C   UNL     1       2.823   1.885   6.019  0.00  0.00    +0.038 A 
ATOM     30  C   UNL     1       3.499   2.146   4.824  0.00  0.00    +0.016 A 
ATOM     31  C   UNL     1       4.718   2.786   4.851  0.00  0.00    +0.046 A 
BRANCH  26  32
ATOM     32  O   UNL     1       6.485   3.790   6.086  0.00  0.00    -0.492 OA
BRANCH  32  33
ATOM     33  C   UNL     1       7.115   4.028   4.826  0.00  0.00    +0.232 C 
BRANCH  33  35
ATOM     34  C   UNL     1       9.184   4.881   3.715  0.00  0.00    +0.010 C 
ATOM     35  C   UNL     1       8.452   4.738   5.050  0.00  0.00    +0.020 C 
ATOM     36  C   UNL     1       8.199   6.125   5.645  0.00  0.00    +0.010 C 
ENDBRANCH  33  35
ENDBRANCH  32  33
ENDBRANCH  26  32
ENDBRANCH  22  29
ENDBRANCH  20  24
ENDBRANCH   1  20
TORSDOF 10
