REMARK  Name = ZINC36492811
REMARK  8 active torsions:
REMARK  status: ('A' for Active; 'I' for Inactive)
REMARK    1  A    between atoms: C_4  and  C_7
REMARK    2  A    between atoms: C_7  and  C_8
REMARK    3  A    between atoms: N_10  and  C_11
REMARK    4  A    between atoms: N_10  and  C_17
REMARK    5  A    between atoms: C_17  and  C_19
REMARK    6  A    between atoms: C_17  and  C_26
REMARK    7  A    between atoms: C_22  and  O_25
REMARK    8  A    between atoms: N_28  and  C_29
REMARK                            x       y       z     vdW  Elec       q    Type
REMARK                         _______ _______ _______ _____ _____    ______ ____
ROOT
ATOM      1  C   UNL     1       5.546  -2.171   2.933  0.00  0.00    +0.192 C 
ENDROOT
BRANCH   1   2
ATOM      2  C   UNL     1       7.003  -1.872   3.180  0.00  0.00    -0.018 A 
ATOM      3  C   UNL     1       7.893  -2.908   3.392  0.00  0.00    +0.009 A 
ATOM      4  C   UNL     1       9.229  -2.637   3.620  0.00  0.00    +0.046 A 
ATOM      5  C   UNL     1       9.676  -1.324   3.635  0.00  0.00    +0.117 A 
ATOM      6  C   UNL     1       8.780  -0.286   3.421  0.00  0.00    +0.046 A 
ATOM      7  C   UNL     1       7.447  -0.562   3.189  0.00  0.00    +0.009 A 
BRANCH   5   8
ATOM      8  O   UNL     1      10.989  -1.054   3.859  0.00  0.00    -0.507 OA
ATOM      9  H   UNL     1      11.526  -1.020   3.056  0.00  0.00    +0.292 HD
ENDBRANCH   5   8
ENDBRANCH   1   2
BRANCH   1  10
ATOM     10  C   UNL     1       5.366  -3.652   2.725  0.00  0.00    +0.238 C 
ATOM     11  O   UNL     1       4.977  -4.072   1.655  0.00  0.00    -0.273 OA
ATOM     12  N   UNL     1       5.636  -4.511   3.728  0.00  0.00    -0.311 N 
ATOM     13  H   UNL     1       5.947  -4.176   4.583  0.00  0.00    +0.149 HD
BRANCH  12  14
ATOM     14  C   UNL     1       5.460  -5.951   3.526  0.00  0.00    +0.073 C 
ATOM     15  C   UNL     1       4.002  -6.330   3.791  0.00  0.00    +0.022 C 
ATOM     16  C   UNL     1       3.818  -7.834   3.580  0.00  0.00    +0.002 C 
ATOM     17  C   UNL     1       4.727  -8.598   4.545  0.00  0.00    +0.000 C 
ATOM     18  C   UNL     1       6.185  -8.220   4.279  0.00  0.00    +0.002 C 
ATOM     19  C   UNL     1       6.369  -6.716   4.490  0.00  0.00    +0.022 C 
ENDBRANCH  12  14
ENDBRANCH   1  10
BRANCH   1  22
ATOM     20  C   UNL     1       4.057  -0.598   1.817  0.00  0.00    +0.221 C 
ATOM     21  O   UNL     1       3.544  -0.365   2.891  0.00  0.00    -0.275 OA
ATOM     22  N   UNL     1       5.097  -1.452   1.738  0.00  0.00    -0.283 N 
BRANCH  22  23
ATOM     23  C   UNL     1       5.777  -1.660   0.458  0.00  0.00    +0.077 C 
ATOM     24  C   UNL     1       4.840  -2.392  -0.505  0.00  0.00    +0.022 C 
ATOM     25  C   UNL     1       5.551  -2.610  -1.842  0.00  0.00    +0.002 C 
ATOM     26  C   UNL     1       6.810  -3.450  -1.619  0.00  0.00    +0.000 C 
ATOM     27  C   UNL     1       7.747  -2.719  -0.657  0.00  0.00    +0.002 C 
ATOM     28  C   UNL     1       7.037  -2.501   0.681  0.00  0.00    +0.022 C 
ENDBRANCH  22  23
BRANCH  20  29
ATOM     29  C   UNL     1       3.532   0.067   0.571  0.00  0.00    +0.131 C 
BRANCH  29  33
ATOM     30  C   UNL     1       0.618   3.002   1.640  0.00  0.00    +0.000 A 
ATOM     31  C   UNL     1       1.952   3.354   1.546  0.00  0.00    +0.000 A 
ATOM     32  C   UNL     1       2.895   2.405   1.200  0.00  0.00    +0.004 A 
ATOM     33  C   UNL     1       2.504   1.103   0.949  0.00  0.00    -0.039 A 
ATOM     34  C   UNL     1       1.171   0.750   1.044  0.00  0.00    +0.004 A 
ATOM     35  C   UNL     1       0.228   1.701   1.388  0.00  0.00    +0.000 A 
ENDBRANCH  29  33
ENDBRANCH  20  29
ENDBRANCH   1  22
TORSDOF 8
