REMARK  Name = ZINC16011870
REMARK  4 active torsions:
REMARK  status: ('A' for Active; 'I' for Inactive)
REMARK    1  A    between atoms: C_5  and  C_7
REMARK    2  A    between atoms: C_7  and  N_8
REMARK    3  A    between atoms: C_13  and  C_31
REMARK    4  A    between atoms: C_31  and  C_32
REMARK                            x       y       z     vdW  Elec       q    Type
REMARK                         _______ _______ _______ _____ _____    ______ ____
ROOT
ATOM      1  N   UNL     1       1.606  -2.677   1.306  0.00  0.00    -0.237 N 
ATOM      2  C   UNL     1       2.880  -2.805   1.694  0.00  0.00    +0.227 C 
ATOM      3  O   UNL     1       3.849  -2.537   1.017  0.00  0.00    -0.275 OA
ATOM      4  C   UNL     1       2.923  -3.336   3.110  0.00  0.00    +0.107 C 
ATOM      5  C   UNL     1       3.490  -4.772   3.095  0.00  0.00    +0.076 C 
ATOM      6  N   UNL     1       2.576  -5.552   3.971  0.00  0.00    -0.295 NA
ATOM      7  C   UNL     1       1.236  -5.015   3.666  0.00  0.00    +0.136 C 
ATOM      8  C   UNL     1       1.421  -3.489   3.480  0.00  0.00    +0.122 C 
ATOM      9  C   UNL     1       0.705  -3.028   2.231  0.00  0.00    +0.229 C 
ATOM     10  O   UNL     1      -0.498  -2.987   2.087  0.00  0.00    -0.275 OA
ATOM     11  C   UNL     1       0.259  -5.318   4.765  0.00  0.00    +0.005 A 
ATOM     12  C   UNL     1       0.217  -5.011   6.107  0.00  0.00    +0.027 A 
ATOM     13  C   UNL     1      -0.845  -5.443   6.884  0.00  0.00    +0.041 A 
ATOM     14  C   UNL     1      -1.863  -6.183   6.307  0.00  0.00    +0.022 A 
ATOM     15  C   UNL     1      -1.825  -6.490   4.963  0.00  0.00    +0.025 A 
ATOM     16  C   UNL     1      -0.760  -6.060   4.175  0.00  0.00    +0.039 A 
ATOM     17  N   UNL     1      -0.500  -6.241   2.815  0.00  0.00    -0.283 N 
ATOM     18  C   UNL     1       0.655  -5.659   2.437  0.00  0.00    +0.243 C 
ATOM     19  O   UNL     1       1.133  -5.655   1.322  0.00  0.00    -0.273 OA
ATOM     20 CL   UNL     1      -0.898  -5.059   8.576  0.00  0.00    -0.084 Cl
ATOM     21  H   UNL     1       2.627  -6.537   3.761  0.00  0.00    +0.124 HD
ATOM     22  H   UNL     1      -1.083  -6.729   2.212  0.00  0.00    +0.155 HD
ENDROOT
BRANCH   1  23
ATOM     23  C   UNL     1       1.229  -2.186  -0.022  0.00  0.00    +0.153 C 
BRANCH  23  28
ATOM     24  C   UNL     1      -0.656   1.071   0.286  0.00  0.00    +0.000 A 
ATOM     25  C   UNL     1       0.370   1.994   0.196  0.00  0.00    +0.001 A 
ATOM     26  C   UNL     1       1.673   1.565   0.035  0.00  0.00    +0.020 A 
ATOM     27  C   UNL     1       1.952   0.211  -0.036  0.00  0.00    +0.046 A 
ATOM     28  C   UNL     1       0.926  -0.712   0.055  0.00  0.00    -0.011 A 
ATOM     29  C   UNL     1      -0.378  -0.281   0.216  0.00  0.00    +0.006 A 
ATOM     30 CL   UNL     1       3.590  -0.329  -0.239  0.00  0.00    -0.083 Cl
ENDBRANCH  23  28
ENDBRANCH   1  23
BRANCH   5  31
ATOM     31  C   UNL     1       4.912  -4.788   3.657  0.00  0.00    +0.115 C 
BRANCH  31  32
ATOM     32  C   UNL     1       5.491  -6.173   3.520  0.00  0.00    +0.212 C 
ATOM     33  O   UNL     1       4.830  -7.060   3.022  0.00  0.00    -0.276 OA
ATOM     34  N   UNL     1       6.742  -6.427   3.951  0.00  0.00    -0.329 N 
ATOM     35  H   UNL     1       7.271  -5.718   4.349  0.00  0.00    +0.145 HD
ATOM     36  H   UNL     1       7.114  -7.318   3.863  0.00  0.00    +0.145 HD
ENDBRANCH  31  32
ENDBRANCH   5  31
TORSDOF 4
