REMARK  Name = ZINC19633338
REMARK  9 active torsions:
REMARK  status: ('A' for Active; 'I' for Inactive)
REMARK    1  A    between atoms: C_3  and  C_9
REMARK    2  A    between atoms: C_6  and  C_7
REMARK    3  A    between atoms: C_12  and  O_15
REMARK    4  A    between atoms: O_15  and  C_16
REMARK    5  A    between atoms: C_16  and  C_17
REMARK    6  A    between atoms: N_19  and  N_20
REMARK    7  A    between atoms: C_21  and  C_22
REMARK    8  A    between atoms: C_24  and  O_30
REMARK    9  A    between atoms: C_25  and  O_29
REMARK                            x       y       z     vdW  Elec       q    Type
REMARK                         _______ _______ _______ _____ _____    ______ ____
ROOT
ATOM      1  C   UNL     1       9.594   4.463  -0.073  0.00  0.00    +0.270 C 
ATOM      2  O   UNL     1       9.418   5.664  -0.060  0.00  0.00    -0.270 OA
ATOM      3  N   UNL     1      10.846   3.966  -0.093  0.00  0.00    -0.204 N 
ATOM      4  H   UNL     1      10.987   3.006  -0.104  0.00  0.00    +0.177 HD
ENDROOT
BRANCH   3   5
ATOM      5  N   UNL     1      11.945   4.835  -0.099  0.00  0.00    -0.188 NA
ATOM      6  C   UNL     1      13.151   4.356  -0.118  0.00  0.00    +0.138 C 
BRANCH   6   7
ATOM      7  C   UNL     1      14.308   5.270  -0.123  0.00  0.00    -0.000 A 
ATOM      8  C   UNL     1      15.607   4.756  -0.150  0.00  0.00    +0.058 A 
ATOM      9  C   UNL     1      16.688   5.618  -0.156  0.00  0.00    +0.160 A 
ATOM     10  C   UNL     1      16.481   6.995  -0.135  0.00  0.00    +0.177 A 
ATOM     11  C   UNL     1      15.191   7.507  -0.109  0.00  0.00    +0.087 A 
ATOM     12  C   UNL     1      14.107   6.653  -0.108  0.00  0.00    +0.033 A 
ATOM     13 CL   UNL     1      14.941   9.224  -0.083  0.00  0.00    -0.080 Cl
BRANCH  10  14
ATOM     14  O   UNL     1      17.546   7.841  -0.141  0.00  0.00    -0.502 OA
ATOM     15  H   UNL     1      17.841   8.097  -1.025  0.00  0.00    +0.292 HD
ENDBRANCH  10  14
BRANCH   9  16
ATOM     16  O   UNL     1      17.953   5.120  -0.181  0.00  0.00    -0.503 OA
ATOM     17  H   UNL     1      18.306   4.987  -1.071  0.00  0.00    +0.292 HD
ENDBRANCH   9  16
ENDBRANCH   6   7
ENDBRANCH   3   5
BRANCH   1  18
ATOM     18  C   UNL     1       8.412   3.529  -0.067  0.00  0.00    +0.326 C 
BRANCH  18  19
ATOM     19  O   UNL     1       7.203   4.290  -0.046  0.00  0.00    -0.483 OA
BRANCH  19  23
ATOM     20  C   UNL     1       3.657   2.175  -0.022  0.00  0.00    -0.018 A 
ATOM     21  C   UNL     1       3.639   3.570  -0.009  0.00  0.00    +0.012 A 
ATOM     22  C   UNL     1       4.825   4.273  -0.017  0.00  0.00    +0.046 A 
ATOM     23  C   UNL     1       6.036   3.594  -0.038  0.00  0.00    +0.121 A 
ATOM     24  C   UNL     1       6.057   2.206  -0.051  0.00  0.00    +0.046 A 
ATOM     25  C   UNL     1       4.875   1.496  -0.037  0.00  0.00    +0.012 A 
BRANCH  20  28
ATOM     26  C   UNL     1      -0.017   1.394   0.010  0.00  0.00    +0.019 A 
ATOM     27  C   UNL     1       1.166   2.097   0.002  0.00  0.00    +0.010 A 
ATOM     28  C   UNL     1       2.384   1.416  -0.013  0.00  0.00    -0.018 A 
ATOM     29  C   UNL     1       2.404   0.021  -0.021  0.00  0.00    +0.010 A 
ATOM     30  C   UNL     1       1.223  -0.685  -0.014  0.00  0.00    +0.019 A 
ATOM     31  C   UNL     1       0.002  -0.004   0.002  0.00  0.00    +0.052 A 
BRANCH  31  32
ATOM     32  C   UNL     1      -1.228  -0.738   0.010  0.00  0.00    +0.099 C 
ATOM     33  N   UNL     1      -2.204  -1.319   0.017  0.00  0.00    -0.191 NA
ENDBRANCH  31  32
ENDBRANCH  20  28
ENDBRANCH  19  23
ENDBRANCH  18  19
ENDBRANCH   1  18
TORSDOF 9
