REMARK  Name = ZINC13568544
REMARK  6 active torsions:
REMARK  status: ('A' for Active; 'I' for Inactive)
REMARK    1  A    between atoms: C_1  and  C_2
REMARK    2  A    between atoms: C_2  and  C_3
REMARK    3  A    between atoms: C_2  and  O_4
REMARK    4  A    between atoms: O_4  and  C_5
REMARK    5  A    between atoms: C_10  and  C_11
REMARK    6  A    between atoms: C_16  and  C_21
REMARK                            x       y       z     vdW  Elec       q    Type
REMARK                         _______ _______ _______ _____ _____    ______ ____
ROOT
ATOM      1  C   UNL     1       0.405   1.443   0.085  0.00  0.00    +0.139 C 
ATOM      2  C   UNL     1      -0.191   2.041   1.337  0.00  0.00    +0.037 C 
ATOM      3  C   UNL     1       0.489   2.403   2.438  0.00  0.00    +0.017 C 
ATOM      4  C   UNL     1      -0.238   2.999   3.632  0.00  0.00    +0.060 C 
ATOM      5  C   UNL     1      -1.647   2.419   3.730  0.00  0.00    +0.039 C 
ATOM      6  C   UNL     1      -2.384   2.759   2.429  0.00  0.00    +0.088 C 
ATOM      7  C   UNL     1      -1.595   2.207   1.279  0.00  0.00    +0.163 C 
ATOM      8  O   UNL     1      -2.182   1.891   0.263  0.00  0.00    -0.292 OA
ATOM      9  N   UNL     1       1.835   2.299   2.590  0.00  0.00    -0.316 N 
ATOM     10  C   UNL     1       2.589   1.175   2.270  0.00  0.00    +0.052 A 
ATOM     11  C   UNL     1       3.298   0.462   3.220  0.00  0.00    +0.025 A 
ATOM     12  C   UNL     1       4.095  -0.596   2.818  0.00  0.00    +0.002 A 
ATOM     13  C   UNL     1       4.179  -0.936   1.480  0.00  0.00    +0.002 A 
ATOM     14  C   UNL     1       3.450  -0.239   0.532  0.00  0.00    +0.025 A 
ATOM     15  C   UNL     1       2.636   0.810   0.933  0.00  0.00    +0.049 A 
ATOM     16  N   UNL     1       1.849   1.505   0.020  0.00  0.00    -0.331 N 
ATOM     17  H   UNL     1       2.306   3.067   2.950  0.00  0.00    +0.152 HD
ATOM     18  H   UNL     1       2.274   2.039  -0.670  0.00  0.00    +0.147 HD
ENDROOT
BRANCH   1  24
ATOM     19  C   UNL     1       0.005  -0.659  -1.222  0.00  0.00    +0.126 A 
ATOM     20  C   UNL     1      -0.382  -1.990  -1.298  0.00  0.00    +0.046 A 
ATOM     21  C   UNL     1      -0.787  -2.656  -0.158  0.00  0.00    +0.004 A 
ATOM     22  C   UNL     1      -0.807  -1.998   1.059  0.00  0.00    +0.001 A 
ATOM     23  C   UNL     1      -0.416  -0.674   1.137  0.00  0.00    +0.009 A 
ATOM     24  C   UNL     1      -0.016  -0.002  -0.001  0.00  0.00    +0.019 A 
BRANCH  19  25
ATOM     25  O   UNL     1       0.404  -0.002  -2.343  0.00  0.00    -0.489 OA
BRANCH  25  27
ATOM     26  C   UNL     1      -0.863  -0.849  -4.218  0.00  0.00    +0.051 C 
ATOM     27  C   UNL     1       0.508  -0.770  -3.543  0.00  0.00    +0.167 C 
ATOM     28  C   UNL     1       1.506  -0.102  -4.492  0.00  0.00    +0.051 C 
ENDBRANCH  25  27
ENDBRANCH  19  25
ENDBRANCH   1  24
BRANCH   5  29
ATOM     29  C   UNL     1      -2.371   3.031   4.902  0.00  0.00    -0.006 A 
ATOM     30  C   UNL     1      -2.923   2.420   5.979  0.00  0.00    +0.011 A 
ATOM     31  C   UNL     1      -3.544   3.192   6.942  0.00  0.00    +0.008 A 
ATOM     32  C   UNL     1      -3.583   4.537   6.782  0.00  0.00    +0.045 A 
ATOM     33  S   UNL     1      -2.719   4.750   5.235  0.00  0.00    -0.101 S 
ENDBRANCH   5  29
TORSDOF 4
