REMARK  Name = ZINC09946766
REMARK  11 active torsions:
REMARK  status: ('A' for Active; 'I' for Inactive)
REMARK    1  A    between atoms: C_1  and  C_2
REMARK    2  A    between atoms: C_4  and  C_30
REMARK    3  A    between atoms: C_5  and  N_9
REMARK    4  A    between atoms: C_6  and  C_8
REMARK    5  A    between atoms: C_10  and  C_12
REMARK    6  A    between atoms: C_12  and  C_14
REMARK    7  A    between atoms: C_12  and  S_15
REMARK    8  A    between atoms: S_15  and  C_16
REMARK    9  A    between atoms: C_19  and  C_29
REMARK   10  A    between atoms: C_20  and  C_22
REMARK   11  A    between atoms: C_22  and  C_23
REMARK                            x       y       z     vdW  Elec       q    Type
REMARK                         _______ _______ _______ _____ _____    ______ ____
ROOT
ATOM      1  C   UNL     1       5.925  -1.065   0.561  0.00  0.00    +0.137 C 
ATOM      2  C   UNL     1       6.390  -1.723  -0.740  0.00  0.00    +0.029 C 
ENDROOT
BRANCH   1   4
ATOM      3  N   UNL     1       3.472  -0.860   0.322  0.00  0.00    -0.284 N 
ATOM      4  C   UNL     1       4.678  -0.260   0.299  0.00  0.00    +0.230 C 
ATOM      5  O   UNL     1       4.761   0.927   0.067  0.00  0.00    -0.274 OA
ATOM      6  H   UNL     1       3.410  -1.821   0.443  0.00  0.00    +0.155 HD
BRANCH   3  11
ATOM      7  C   UNL     1      -1.243   2.236  -0.284  0.00  0.00    +0.044 C 
ATOM      8  C   UNL     1       0.007   1.410  -0.125  0.00  0.00    -0.050 A 
ATOM      9  C   UNL     1       0.186   0.641   1.010  0.00  0.00    +0.008 A 
ATOM     10  C   UNL     1       1.334  -0.113   1.162  0.00  0.00    -0.029 A 
ATOM     11  C   UNL     1       2.308  -0.098   0.172  0.00  0.00    +0.039 A 
ATOM     12  C   UNL     1       2.125   0.676  -0.967  0.00  0.00    -0.029 A 
ATOM     13  C   UNL     1       0.976   1.427  -1.112  0.00  0.00    +0.008 A 
ATOM     14  C   UNL     1       3.180   0.695  -2.043  0.00  0.00    +0.045 C 
ATOM     15  C   UNL     1       1.528  -0.951   2.399  0.00  0.00    +0.045 C 
ENDBRANCH   3  11
ENDBRANCH   1   4
BRANCH   1  16
ATOM     16  S   UNL     1       7.228   0.026   1.184  0.00  0.00    -0.075 S 
BRANCH  16  17
ATOM     17  C   UNL     1       8.479  -1.163   1.540  0.00  0.00    +0.167 A 
ATOM     18  N   UNL     1       9.713  -0.893   2.047  0.00  0.00    -0.337 N 
ATOM     19  H   UNL     1      10.074   0.009   2.285  0.00  0.00    +0.168 HD
ATOM     20  C   UNL     1      10.369  -2.097   2.170  0.00  0.00    +0.037 A 
ATOM     21  C   UNL     1       9.525  -3.050   1.739  0.00  0.00    +0.067 A 
ATOM     22  N   UNL     1       8.377  -2.460   1.365  0.00  0.00    -0.226 NA
ATOM     23  C   UNL     1      11.768  -2.307   2.690  0.00  0.00    +0.065 C 
BRANCH  21  24
ATOM     24  C   UNL     1       9.814  -4.528   1.691  0.00  0.00    +0.092 C 
BRANCH  24  25
ATOM     25  C   UNL     1       9.399  -5.164   2.992  0.00  0.00    -0.042 A 
ATOM     26  C   UNL     1      10.304  -5.262   4.033  0.00  0.00    +0.004 A 
ATOM     27  C   UNL     1       9.922  -5.841   5.229  0.00  0.00    +0.000 A 
ATOM     28  C   UNL     1       8.639  -6.331   5.380  0.00  0.00    +0.000 A 
ATOM     29  C   UNL     1       7.736  -6.238   4.338  0.00  0.00    +0.000 A 
ATOM     30  C   UNL     1       8.116  -5.655   3.144  0.00  0.00    +0.004 A 
ENDBRANCH  24  25
ENDBRANCH  21  24
ENDBRANCH  16  17
ENDBRANCH   1  16
TORSDOF 6
