REMARK  Name = ZINC38825912
REMARK  6 active torsions:
REMARK  status: ('A' for Active; 'I' for Inactive)
REMARK    1  A    between atoms: C_6  and  C_10
REMARK    2  A    between atoms: C_10  and  C_27
REMARK    3  A    between atoms: C_11  and  C_12
REMARK    4  A    between atoms: C_15  and  O_18
REMARK    5  A    between atoms: O_18  and  C_19
REMARK    6  A    between atoms: C_19  and  C_21
REMARK                            x       y       z     vdW  Elec       q    Type
REMARK                         _______ _______ _______ _____ _____    ______ ____
ROOT
ATOM      1  C   UNL     1       3.099  -3.260  -1.162  0.00  0.00    +0.072 C 
ATOM      2  C   UNL     1       4.298  -3.878  -1.183  0.00  0.00    +0.026 C 
ENDROOT
BRANCH   1   8
ATOM      3  C   UNL     1      -1.418  -0.526   0.674  0.00  0.00    +0.002 A 
ATOM      4  C   UNL     1      -0.845   0.540  -0.041  0.00  0.00    +0.002 A 
ATOM      5  C   UNL     1       0.423   0.509  -0.499  0.00  0.00    +0.027 A 
ATOM      6  C   UNL     1       1.255  -0.676  -0.251  0.00  0.00    +0.060 A 
ATOM      7  N   UNL     1       2.482  -0.978  -0.566  0.00  0.00    -0.359 N 
ATOM      8  C   UNL     1       2.755  -2.320  -0.036  0.00  0.00    +0.216 C 
ATOM      9  N   UNL     1       1.523  -2.760   0.630  0.00  0.00    -0.359 N 
ATOM     10  C   UNL     1       0.648  -1.804   0.506  0.00  0.00    +0.060 A 
ATOM     11  C   UNL     1      -0.743  -1.659   0.956  0.00  0.00    +0.027 A 
ATOM     12  H   UNL     1       3.101  -0.419  -1.061  0.00  0.00    +0.162 HD
ATOM     13  H   UNL     1       1.386  -3.609   1.080  0.00  0.00    +0.162 HD
ENDBRANCH   1   8
BRANCH   2  14
ATOM     14  C   UNL     1       4.699  -4.667  -2.358  0.00  0.00    -0.024 A 
ATOM     15  C   UNL     1       4.349  -4.238  -3.644  0.00  0.00    +0.011 A 
ATOM     16  C   UNL     1       4.728  -4.979  -4.740  0.00  0.00    +0.047 A 
ATOM     17  C   UNL     1       5.455  -6.152  -4.573  0.00  0.00    +0.132 A 
ATOM     18  C   UNL     1       5.805  -6.582  -3.298  0.00  0.00    +0.047 A 
ATOM     19  C   UNL     1       5.436  -5.845  -2.195  0.00  0.00    +0.011 A 
BRANCH  17  20
ATOM     20  O   UNL     1       5.825  -6.880  -5.658  0.00  0.00    -0.422 OA
BRANCH  20  21
ATOM     21  C   UNL     1       6.858  -6.431  -6.400  0.00  0.00    +0.351 C 
ATOM     22  O   UNL     1       7.370  -5.357  -6.143  0.00  0.00    -0.244 OA
BRANCH  21  23
ATOM     23  C   UNL     1       7.363  -7.234  -7.513  0.00  0.00    +0.098 A 
ATOM     24  C   UNL     1       8.407  -6.961  -8.386  0.00  0.00    +0.024 A 
ATOM     25  C   UNL     1       8.650  -7.916  -9.342  0.00  0.00    +0.024 A 
ATOM     26  C   UNL     1       7.877  -9.032  -9.371  0.00  0.00    +0.056 A 
ATOM     27  S   UNL     1       6.803  -8.823  -8.097  0.00  0.00    -0.075 S 
ATOM     28 BR   UNL     1       7.990 -10.493 -10.568  0.00  0.00    -0.043 Br
ENDBRANCH  21  23
ENDBRANCH  20  21
ENDBRANCH  17  20
ENDBRANCH   2  14
BRANCH   1  29
ATOM     29  C   UNL     1       2.152  -3.499  -2.210  0.00  0.00    +0.099 C 
ATOM     30  N   UNL     1       1.401  -3.688  -3.042  0.00  0.00    -0.191 NA
ENDBRANCH   1  29
TORSDOF 6
