REMARK  Name = ZINC40364236
REMARK  5 active torsions:
REMARK  status: ('A' for Active; 'I' for Inactive)
REMARK    1  A    between atoms: C_2  and  S_8
REMARK    2  A    between atoms: S_8  and  N_11
REMARK    3  A    between atoms: N_11  and  C_12
REMARK    4  A    between atoms: C_12  and  C_18
REMARK    5  A    between atoms: C_18  and  N_20
REMARK                            x       y       z     vdW  Elec       q    Type
REMARK                         _______ _______ _______ _____ _____    ______ ____
ROOT
ATOM      1  N   UNL     1       2.022   4.318   1.406  0.00  0.00    -0.178 NA
ATOM      2  H   UNL     1       1.448   3.558   1.224  0.00  0.00    +0.149 HD
ENDROOT
BRANCH   1   3
ATOM      3  C   UNL     1       3.432   4.106   1.744  0.00  0.00    +0.084 C 
ATOM      4  C   UNL     1       3.785   2.629   1.558  0.00  0.00    +0.030 C 
ATOM      5  C   UNL     1       2.907   1.776   2.475  0.00  0.00    +0.002 C 
ATOM      6  C   UNL     1       3.149   2.178   3.931  0.00  0.00    +0.000 C 
ATOM      7  C   UNL     1       2.796   3.655   4.117  0.00  0.00    +0.002 C 
ATOM      8  C   UNL     1       3.674   4.509   3.200  0.00  0.00    +0.030 C 
BRANCH   3   9
ATOM      9  C   UNL     1       4.297   4.947   0.840  0.00  0.00    +0.068 C 
ATOM     10  S   UNL     1       5.355   5.967   1.468  0.00  0.00    -0.039 S 
BRANCH   9  11
ATOM     11  N   UNL     1       4.178   4.839  -0.498  0.00  0.00    -0.354 N 
ATOM     12  H   UNL     1       3.487   4.275  -0.880  0.00  0.00    +0.143 HD
ATOM     13  H   UNL     1       4.783   5.325  -1.080  0.00  0.00    +0.143 HD
ENDBRANCH   9  11
ENDBRANCH   3   9
ENDBRANCH   1   3
BRANCH   1  14
ATOM     14  S   UNL     1       1.409   5.855   1.336  0.00  0.00    +0.061 S 
ATOM     15  O   UNL     1       0.048   5.731   0.949  0.00  0.00    -0.153 OA
ATOM     16  O   UNL     1       2.343   6.631   0.599  0.00  0.00    -0.153 OA
BRANCH  14  18
ATOM     17  C   UNL     1       2.232   7.550   3.322  0.00  0.00    +0.057 A 
ATOM     18  C   UNL     1       1.410   6.491   2.979  0.00  0.00    +0.132 A 
ATOM     19  C   UNL     1       0.605   5.951   3.927  0.00  0.00    +0.106 A 
ATOM     20  S   UNL     1       0.998   6.946   5.356  0.00  0.00    -0.063 S 
ATOM     21  C   UNL     1       2.208   8.015   4.595  0.00  0.00    +0.081 A 
ATOM     22 CL   UNL     1       3.118   9.314   5.302  0.00  0.00    -0.076 Cl
ATOM     23 CL   UNL     1      -0.516   4.633   3.788  0.00  0.00    -0.074 Cl
ENDBRANCH  14  18
ENDBRANCH   1  14
TORSDOF 5
