REMARK  Name = ZINC13033343
REMARK  13 active torsions:
REMARK  status: ('A' for Active; 'I' for Inactive)
REMARK    1  A    between atoms: C_1  and  C_2
REMARK    2  A    between atoms: C_5  and  C_8
REMARK    3  A    between atoms: C_8  and  N_65
REMARK    4  A    between atoms: C_9  and  C_10
REMARK    5  A    between atoms: C_9  and  N_65
REMARK    6  A    between atoms: C_13  and  C_23
REMARK    7  A    between atoms: C_15  and  C_22
REMARK    8  A    between atoms: C_24  and  C_25
REMARK    9  A    between atoms: C_24  and  N_65
REMARK   10  A    between atoms: N_29  and  C_30
REMARK   11  A    between atoms: C_30  and  C_31
REMARK   12  A    between atoms: C_30  and  C_32
REMARK   13  A    between atoms: C_30  and  C_33
REMARK                            x       y       z     vdW  Elec       q    Type
REMARK                         _______ _______ _______ _____ _____    ______ ____
ROOT
ATOM      1  N   UNL     1       5.488   4.140  -1.583  0.00  0.00    +0.390 N 
ATOM      2  H   UNL     1       5.487   3.315  -2.195  0.00  0.00    -0.080 HD
ENDROOT
BRANCH   1   3
ATOM      3  C   UNL     1       6.805   4.804  -1.676  0.00  0.00    -0.042 C 
BRANCH   3   8
ATOM      4  C   UNL     1      10.926   0.753  -1.702  0.00  0.00    +0.044 C 
ATOM      5  C   UNL     1       9.852   1.810  -1.695  0.00  0.00    -0.050 A 
ATOM      6  C   UNL     1       9.337   2.280  -2.889  0.00  0.00    +0.003 A 
ATOM      7  C   UNL     1       8.352   3.250  -2.883  0.00  0.00    +0.002 A 
ATOM      8  C   UNL     1       7.880   3.748  -1.683  0.00  0.00    -0.064 A 
ATOM      9  C   UNL     1       8.398   3.281  -0.489  0.00  0.00    +0.002 A 
ATOM     10  C   UNL     1       9.380   2.308  -0.495  0.00  0.00    +0.003 A 
ENDBRANCH   3   8
ENDBRANCH   1   3
BRANCH   1  11
ATOM     11  C   UNL     1       5.239   3.706  -0.192  0.00  0.00    -0.036 C 
BRANCH  11  12
ATOM     12  C   UNL     1       4.003   2.844  -0.166  0.00  0.00    +0.001 A 
ATOM     13  C   UNL     1       4.118   1.495  -0.250  0.00  0.00    +0.017 A 
ATOM     14  C   UNL     1       2.898   0.686  -0.222  0.00  0.00    +0.002 A 
ATOM     15  C   UNL     1       2.953  -0.709  -0.305  0.00  0.00    -0.041 A 
ATOM     16  C   UNL     1       1.796  -1.435  -0.278  0.00  0.00    +0.007 A 
ATOM     17  C   UNL     1       0.566  -0.801  -0.167  0.00  0.00    -0.048 A 
ATOM     18  C   UNL     1       0.488   0.573  -0.083  0.00  0.00    +0.029 A 
ATOM     19  C   UNL     1       1.653   1.333  -0.110  0.00  0.00    +0.050 A 
ATOM     20  N   UNL     1       1.604   2.709  -0.028  0.00  0.00    -0.322 N 
ATOM     21  H   UNL     1       0.745   3.153   0.049  0.00  0.00    +0.169 HD
ATOM     22  C   UNL     1       2.730   3.443  -0.055  0.00  0.00    +0.251 A 
ATOM     23  O   UNL     1       2.649   4.657   0.020  0.00  0.00    -0.268 OA
ATOM     24  C   UNL     1      -0.697  -1.622  -0.138  0.00  0.00    +0.044 C 
ATOM     25  C   UNL     1       4.283  -1.408  -0.425  0.00  0.00    +0.044 C 
ENDBRANCH  11  12
ENDBRANCH   1  11
BRANCH   1  26
ATOM     26  C   UNL     1       4.423   5.066  -2.022  0.00  0.00    +0.001 C 
BRANCH  26  27
ATOM     27  C   UNL     1       4.662   5.438  -3.462  0.00  0.00    +0.136 A 
ATOM     28  N   UNL     1       5.431   6.403  -3.904  0.00  0.00    -0.115 NA
ATOM     29  N   UNL     1       5.374   6.400  -5.191  0.00  0.00    -0.023 NA
ATOM     30  N   UNL     1       4.583   5.463  -5.582  0.00  0.00    -0.043 NA
ATOM     31  N   UNL     1       4.124   4.847  -4.545  0.00  0.00    -0.226 N 
BRANCH  31  32
ATOM     32  C   UNL     1       3.192   3.717  -4.546  0.00  0.00    +0.059 C 
ATOM     33  C   UNL     1       1.868   4.147  -3.911  0.00  0.00    +0.036 C 
ATOM     34  C   UNL     1       2.942   3.263  -5.986  0.00  0.00    +0.036 C 
ATOM     35  C   UNL     1       3.791   2.560  -3.744  0.00  0.00    +0.036 C 
ENDBRANCH  31  32
ENDBRANCH  26  27
ENDBRANCH   1  26
TORSDOF 7
