REMARK  Name = ZINC22242634
REMARK  6 active torsions:
REMARK  status: ('A' for Active; 'I' for Inactive)
REMARK    1  A    between atoms: C_11  and  C_33
REMARK    2  A    between atoms: C_14  and  C_16
REMARK    3  A    between atoms: C_16  and  O_17
REMARK    4  A    between atoms: O_17  and  C_18
REMARK    5  A    between atoms: C_21  and  C_24
REMARK    6  A    between atoms: C_24  and  C_26
REMARK                            x       y       z     vdW  Elec       q    Type
REMARK                         _______ _______ _______ _____ _____    ______ ____
ROOT
ATOM      1  C   UNL     1       1.944  10.069  -2.009  0.00  0.00    +0.002 A 
ATOM      2  C   UNL     1       2.316   9.651  -0.744  0.00  0.00    +0.002 A 
ATOM      3  C   UNL     1       3.489   8.942  -0.561  0.00  0.00    +0.025 A 
ATOM      4  C   UNL     1       4.293   8.647  -1.650  0.00  0.00    +0.058 A 
ATOM      5  C   UNL     1       3.907   9.052  -2.929  0.00  0.00    +0.055 A 
ATOM      6  C   UNL     1       2.737   9.772  -3.102  0.00  0.00    +0.025 A 
ATOM      7  N   UNL     1       4.697   8.691  -4.027  0.00  0.00    -0.284 N 
ATOM      8  C   UNL     1       6.032   8.894  -4.006  0.00  0.00    +0.219 C 
ATOM      9  O   UNL     1       6.715   8.500  -4.928  0.00  0.00    -0.275 OA
ATOM     10  C   UNL     1       6.678   9.605  -2.847  0.00  0.00    +0.128 C 
ATOM     11  C   UNL     1       6.760   8.675  -1.631  0.00  0.00    +0.194 C 
ATOM     12  N   UNL     1       5.497   7.949  -1.482  0.00  0.00    -0.255 N 
ATOM     13  C   UNL     1       5.492   6.635  -1.183  0.00  0.00    +0.258 C 
ATOM     14  O   UNL     1       6.540   6.042  -1.040  0.00  0.00    -0.271 OA
ATOM     15  H   UNL     1       4.231   8.238  -4.914  0.00  0.00    +0.155 HD
ENDROOT
BRANCH  11  16
ATOM     16  C   UNL     1       7.024   9.500  -0.370  0.00  0.00    +0.409 C 
ATOM     17  F   UNL     1       7.103   8.648   0.736  0.00  0.00    -0.169 F 
ATOM     18  F   UNL     1       8.230  10.194  -0.512  0.00  0.00    -0.169 F 
ATOM     19  F   UNL     1       5.980  10.412  -0.183  0.00  0.00    -0.169 F 
ENDBRANCH  11  16
BRANCH  13  20
ATOM     20  C   UNL     1       4.184   5.903  -1.026  0.00  0.00    +0.325 C 
BRANCH  20  21
ATOM     21  O   UNL     1       4.441   4.532  -0.712  0.00  0.00    -0.483 OA
BRANCH  21  22
ATOM     22  C   UNL     1       3.362   3.728  -0.537  0.00  0.00    +0.121 A 
ATOM     23  C   UNL     1       3.541   2.384  -0.230  0.00  0.00    +0.046 A 
ATOM     24  C   UNL     1       2.450   1.565  -0.052  0.00  0.00    +0.015 A 
ATOM     25  C   UNL     1       1.159   2.086  -0.180  0.00  0.00    +0.022 A 
ATOM     26  C   UNL     1       0.982   3.437  -0.495  0.00  0.00    +0.015 A 
ATOM     27  C   UNL     1       2.080   4.251  -0.666  0.00  0.00    +0.046 A 
BRANCH  25  28
ATOM     28  C   UNL     1      -0.014   1.212   0.009  0.00  0.00    +0.193 C 
ATOM     29  O   UNL     1       0.037   0.044  -0.326  0.00  0.00    -0.287 OA
BRANCH  28  30
ATOM     30  C   UNL     1      -1.254   1.756   0.599  0.00  0.00    +0.022 A 
ATOM     31  C   UNL     1      -1.267   3.047   1.133  0.00  0.00    +0.014 A 
ATOM     32  C   UNL     1      -2.428   3.552   1.678  0.00  0.00    +0.039 A 
ATOM     33  C   UNL     1      -3.578   2.777   1.707  0.00  0.00    +0.123 A 
ATOM     34  C   UNL     1      -3.569   1.493   1.183  0.00  0.00    +0.039 A 
ATOM     35  C   UNL     1      -2.415   0.980   0.630  0.00  0.00    +0.014 A 
ATOM     36  F   UNL     1      -4.712   3.275   2.247  0.00  0.00    -0.205 F 
ENDBRANCH  28  30
ENDBRANCH  25  28
ENDBRANCH  21  22
ENDBRANCH  20  21
ENDBRANCH  13  20
TORSDOF 6
