REMARK  Name = ZINC65323156
REMARK  10 active torsions:
REMARK  status: ('A' for Active; 'I' for Inactive)
REMARK    1  A    between atoms: C_1  and  C_2
REMARK    2  A    between atoms: C_2  and  C_3
REMARK    3  A    between atoms: C_8  and  N_9
REMARK    4  A    between atoms: N_9  and  C_10
REMARK    5  A    between atoms: C_10  and  C_11
REMARK    6  A    between atoms: N_21  and  C_22
REMARK    7  A    between atoms: C_22  and  C_23
REMARK    8  A    between atoms: C_26  and  C_29
REMARK    9  A    between atoms: C_29  and  C_30
REMARK   10  A    between atoms: C_29  and  C_31
REMARK                            x       y       z     vdW  Elec       q    Type
REMARK                         _______ _______ _______ _____ _____    ______ ____
ROOT
ATOM      1  C   UNL     1      -1.375  -0.021  -4.795  0.00  0.00    +0.067 A 
ATOM      2  C   UNL     1      -1.872  -0.065  -6.096  0.00  0.00    +0.097 A 
ATOM      3  C   UNL     1      -1.069   0.337  -7.130  0.00  0.00    +0.276 A 
ATOM      4  O   UNL     1      -1.522   0.306  -8.404  0.00  0.00    -0.266 OA
ATOM      5  N   UNL     1       0.193   0.767  -6.855  0.00  0.00    -0.158 N 
ATOM      6  C   UNL     1       0.644   0.795  -5.565  0.00  0.00    +0.258 A 
ATOM      7  N   UNL     1      -0.152   0.406  -4.563  0.00  0.00    -0.214 NA
ATOM      8  N   UNL     1       1.892   1.252  -5.592  0.00  0.00    -0.176 NA
ATOM      9  C   UNL     1       2.247   1.513  -6.849  0.00  0.00    +0.237 A 
ATOM     10  N   UNL     1       1.244   1.233  -7.655  0.00  0.00    -0.125 NA
ATOM     11  N   UNL     1       3.487   2.006  -7.248  0.00  0.00    -0.308 N 
ATOM     12  H   UNL     1       3.664   2.169  -8.188  0.00  0.00    +0.149 HD
ENDROOT
BRANCH   1  13
ATOM     13  C   UNL     1      -2.247  -0.459  -3.646  0.00  0.00    +0.157 C 
BRANCH  13  14
ATOM     14  N   UNL     1      -1.507  -0.315  -2.390  0.00  0.00    -0.338 N 
ATOM     15  H   UNL     1      -0.597   0.021  -2.398  0.00  0.00    +0.146 HD
BRANCH  14  21
ATOM     16  C   UNL     1      -1.412  -0.526   0.013  0.00  0.00    -0.027 A 
ATOM     17  C   UNL     1      -2.015  -0.864   1.208  0.00  0.00    +0.005 A 
ATOM     18  C   UNL     1      -3.312  -1.343   1.219  0.00  0.00    +0.000 A 
ATOM     19  C   UNL     1      -4.010  -1.485   0.034  0.00  0.00    +0.002 A 
ATOM     20  C   UNL     1      -3.413  -1.148  -1.165  0.00  0.00    +0.023 A 
ATOM     21  C   UNL     1      -2.112  -0.662  -1.179  0.00  0.00    +0.031 A 
BRANCH  16  23
ATOM     22  C   UNL     1      -0.019   1.526   0.010  0.00  0.00    +0.009 C 
ATOM     23  C   UNL     1       0.002  -0.004   0.002  0.00  0.00    +0.033 C 
ENDBRANCH  16  23
ENDBRANCH  14  21
ENDBRANCH  13  14
ENDBRANCH   1  13
BRANCH  11  24
ATOM     24  C   UNL     1       4.524   2.277  -6.249  0.00  0.00    +0.139 C 
BRANCH  24  25
ATOM     25  C   UNL     1       5.759   2.799  -6.937  0.00  0.00    -0.030 A 
ATOM     26  C   UNL     1       6.730   1.919  -7.375  0.00  0.00    +0.005 A 
ATOM     27  C   UNL     1       7.864   2.397  -8.006  0.00  0.00    +0.004 A 
ATOM     28  C   UNL     1       8.025   3.756  -8.198  0.00  0.00    -0.045 A 
ATOM     29  C   UNL     1       7.054   4.637  -7.761  0.00  0.00    +0.004 A 
ATOM     30  C   UNL     1       5.919   4.158  -7.134  0.00  0.00    +0.005 A 
BRANCH  28  31
ATOM     31  C   UNL     1       9.261   4.278  -8.885  0.00  0.00    +0.013 C 
ATOM     32  C   UNL     1       8.859   5.042 -10.148  0.00  0.00    +0.012 C 
ATOM     33  C   UNL     1      10.012   5.218  -7.939  0.00  0.00    +0.012 C 
ENDBRANCH  28  31
ENDBRANCH  24  25
ENDBRANCH  11  24
TORSDOF 7
