REMARK  Name = ZINC39852616
REMARK  7 active torsions:
REMARK  status: ('A' for Active; 'I' for Inactive)
REMARK    1  A    between atoms: C_1  and  C_2
REMARK    2  A    between atoms: C_2  and  C_3
REMARK    3  A    between atoms: C_10  and  C_12
REMARK    4  A    between atoms: C_12  and  C_13
REMARK    5  A    between atoms: C_13  and  C_14
REMARK    6  A    between atoms: C_14  and  C_15
REMARK    7  A    between atoms: C_23  and  C_25
REMARK                            x       y       z     vdW  Elec       q    Type
REMARK                         _______ _______ _______ _____ _____    ______ ____
ROOT
ATOM      1  C   UNL     1       6.100   3.111   2.284  0.00  0.00    -0.013 A 
ATOM      2  C   UNL     1       6.483   2.704   3.634  0.00  0.00    +0.005 A 
ATOM      3  C   UNL     1       6.717   1.467   4.242  0.00  0.00    +0.030 A 
ATOM      4  C   UNL     1       7.072   1.416   5.561  0.00  0.00    +0.042 A 
ATOM      5  C   UNL     1       7.203   2.583   6.302  0.00  0.00    +0.022 A 
ATOM      6  C   UNL     1       6.977   3.813   5.723  0.00  0.00    +0.027 A 
ATOM      7  C   UNL     1       6.615   3.890   4.382  0.00  0.00    +0.047 A 
ATOM      8  N   UNL     1       6.331   4.942   3.540  0.00  0.00    -0.353 N 
ATOM      9  C   UNL     1       6.028   4.465   2.284  0.00  0.00    +0.069 A 
ATOM     10  H   UNL     1       6.344   5.878   3.793  0.00  0.00    +0.166 HD
ATOM     11 CL   UNL     1       7.362  -0.121   6.316  0.00  0.00    -0.084 Cl
ENDROOT
BRANCH   9  12
ATOM     12  C   UNL     1       5.676   5.301   1.117  0.00  0.00    +0.087 A 
ATOM     13  C   UNL     1       5.135   6.573   1.314  0.00  0.00    +0.030 A 
ATOM     14  C   UNL     1       4.811   7.343   0.211  0.00  0.00    +0.004 A 
ATOM     15  C   UNL     1       5.037   6.817  -1.054  0.00  0.00    +0.020 A 
ATOM     16  C   UNL     1       5.576   5.550  -1.177  0.00  0.00    +0.111 A 
ATOM     17  N   UNL     1       5.881   4.838  -0.111  0.00  0.00    -0.254 NA
ENDBRANCH   9  12
BRANCH   1  18
ATOM     18  C   UNL     1       5.840   2.200   1.112  0.00  0.00    +0.038 C 
BRANCH  18  19
ATOM     19  C   UNL     1       4.360   1.811   1.087  0.00  0.00    +0.014 C 
BRANCH  19  20
ATOM     20  C   UNL     1       4.096   0.886  -0.103  0.00  0.00    +0.096 C 
BRANCH  20  27
ATOM     21  C   UNL     1       0.735  -0.599  -1.203  0.00  0.00    +0.076 C 
ATOM     22  C   UNL     1       0.532  -2.118  -1.211  0.00  0.00    +0.022 C 
ATOM     23  C   UNL     1       1.382  -2.736  -2.323  0.00  0.00    +0.003 C 
ATOM     24  C   UNL     1       2.862  -2.448  -2.057  0.00  0.00    +0.019 C 
ATOM     25  C   UNL     1       3.091  -0.934  -2.058  0.00  0.00    +0.108 C 
ATOM     26  N   UNL     1       2.172  -0.312  -1.095  0.00  0.00    -0.298 N 
ATOM     27  C   UNL     1       2.638   0.503  -0.128  0.00  0.00    +0.216 C 
ATOM     28  O   UNL     1       1.885   0.928   0.722  0.00  0.00    -0.276 OA
BRANCH  21  30
ATOM     29  C   UNL     1      -1.497  -0.289  -0.125  0.00  0.00    +0.006 C 
ATOM     30  C   UNL     1      -0.001   0.011  -0.009  0.00  0.00    +0.019 C 
ENDBRANCH  21  30
ENDBRANCH  20  27
ENDBRANCH  19  20
ENDBRANCH  18  19
ENDBRANCH   1  18
TORSDOF 6
