REMARK  Name = ZINC39623466
REMARK  9 active torsions:
REMARK  status: ('A' for Active; 'I' for Inactive)
REMARK    1  A    between atoms: C_1  and  C_2
REMARK    2  A    between atoms: C_2  and  C_3
REMARK    3  A    between atoms: C_3  and  C_4
REMARK    4  A    between atoms: C_4  and  C_5
REMARK    5  A    between atoms: C_5  and  N_6
REMARK    6  A    between atoms: C_7  and  C_9
REMARK    7  A    between atoms: C_20  and  C_22
REMARK    8  A    between atoms: C_27  and  O_28
REMARK    9  A    between atoms: O_28  and  C_29
REMARK                            x       y       z     vdW  Elec       q    Type
REMARK                         _______ _______ _______ _____ _____    ______ ____
ROOT
ATOM      1  C   UNL     1      -3.802  -6.598   0.419  0.00  0.00    +0.100 C 
ATOM      2  C   UNL     1      -3.331  -6.935  -1.013  0.00  0.00    +0.121 C 
ATOM      3  N   UNL     1      -4.189  -8.069  -1.433  0.00  0.00    -0.296 N 
ATOM      4  C   UNL     1      -5.529  -7.736  -0.892  0.00  0.00    +0.115 C 
ATOM      5  C   UNL     1      -5.245  -7.123   0.494  0.00  0.00    -0.004 C 
ATOM      6  C   UNL     1      -6.212  -5.976   0.771  0.00  0.00    -0.010 C 
ATOM      7  C   UNL     1      -7.633  -6.532   0.900  0.00  0.00    -0.082 C 
ATOM      8  N   UNL     1      -7.680  -7.513   1.991  0.00  0.00    +0.379 N 
ATOM      9  C   UNL     1      -6.818  -8.657   1.673  0.00  0.00    -0.082 C 
ATOM     10  C   UNL     1      -5.363  -8.192   1.577  0.00  0.00    -0.010 C 
ATOM     11  C   UNL     1      -3.832  -9.156  -2.144  0.00  0.00    +0.252 C 
ATOM     12  O   UNL     1      -4.676  -9.959  -2.491  0.00  0.00    -0.270 OA
ATOM     13  H   UNL     1      -7.361  -7.080   2.845  0.00  0.00    -0.086 HD
ATOM     14  H   UNL     1      -8.630  -7.832   2.113  0.00  0.00    -0.086 HD
ENDROOT
BRANCH  11  15
ATOM     15  C   UNL     1      -2.417  -9.373  -2.500  0.00  0.00    +0.099 A 
ATOM     16  C   UNL     1      -1.582  -8.288  -2.792  0.00  0.00    +0.020 A 
ATOM     17  C   UNL     1      -0.262  -8.544  -3.120  0.00  0.00    +0.021 A 
ATOM     18  C   UNL     1       0.190  -9.851  -3.151  0.00  0.00    +0.114 A 
ATOM     19  N   UNL     1      -0.615 -10.859  -2.873  0.00  0.00    -0.220 NA
ATOM     20  C   UNL     1      -1.883 -10.669  -2.548  0.00  0.00    +0.233 A 
BRANCH  20  21
ATOM     21  O   UNL     1      -2.671 -11.733  -2.265  0.00  0.00    -0.437 OA
BRANCH  21  22
ATOM     22  C   UNL     1      -2.144 -12.976  -2.416  0.00  0.00    +0.130 A 
ATOM     23  C   UNL     1      -1.301 -13.496  -1.444  0.00  0.00    +0.048 A 
ATOM     24  C   UNL     1      -0.766 -14.760  -1.599  0.00  0.00    +0.023 A 
ATOM     25  C   UNL     1      -1.071 -15.508  -2.723  0.00  0.00    +0.041 A 
ATOM     26  C   UNL     1      -1.911 -14.991  -3.693  0.00  0.00    +0.023 A 
ATOM     27  C   UNL     1      -2.452 -13.730  -3.539  0.00  0.00    +0.048 A 
ATOM     28 CL   UNL     1      -0.397 -17.096  -2.915  0.00  0.00    -0.084 Cl
ENDBRANCH  21  22
ENDBRANCH  20  21
ENDBRANCH  11  15
BRANCH   1  30
ATOM     29  N   UNL     1      -3.618  -4.616   1.888  0.00  0.00    -0.315 N 
ATOM     30  C   UNL     1      -3.774  -5.108   0.643  0.00  0.00    +0.218 C 
ATOM     31  O   UNL     1      -3.893  -4.351  -0.298  0.00  0.00    -0.275 OA
ATOM     32  H   UNL     1      -3.523  -5.221   2.640  0.00  0.00    +0.149 HD
BRANCH  29  33
ATOM     33  C   UNL     1      -3.591  -3.167   2.105  0.00  0.00    +0.104 C 
BRANCH  33  34
ATOM     34  C   UNL     1      -3.403  -2.879   3.596  0.00  0.00    +0.019 C 
BRANCH  34  35
ATOM     35  C   UNL     1      -3.375  -1.366   3.823  0.00  0.00    +0.001 C 
BRANCH  35  37
ATOM     36  C   UNL     1      -3.159   0.435   5.541  0.00  0.00    +0.004 C 
ATOM     37  C   UNL     1      -3.187  -1.078   5.314  0.00  0.00    -0.003 C 
ENDBRANCH  35  37
ENDBRANCH  34  35
ENDBRANCH  33  34
ENDBRANCH  29  33
ENDBRANCH   1  30
TORSDOF 8
