REMARK  Name = ZINC38664531
REMARK  8 active torsions:
REMARK  status: ('A' for Active; 'I' for Inactive)
REMARK    1  A    between atoms: C_1  and  C_2
REMARK    2  A    between atoms: C_2  and  O_3
REMARK    3  A    between atoms: O_3  and  C_4
REMARK    4  A    between atoms: C_4  and  C_6
REMARK    5  A    between atoms: C_8  and  N_17
REMARK    6  A    between atoms: N_23  and  C_28
REMARK    7  A    between atoms: C_24  and  C_27
REMARK    8  A    between atoms: C_32  and  C_34
REMARK                            x       y       z     vdW  Elec       q    Type
REMARK                         _______ _______ _______ _____ _____    ______ ____
ROOT
ATOM      1  N   UNL     1       3.616  -1.221   2.209  0.00  0.00    -0.270 N 
ATOM      2  C   UNL     1       4.936  -1.268   1.940  0.00  0.00    +0.306 C 
ATOM      3  O   UNL     1       5.476  -2.337   1.729  0.00  0.00    -0.252 OA
ATOM      4  N   UNL     1       5.657  -0.130   1.904  0.00  0.00    -0.282 N 
ATOM      5  C   UNL     1       5.000   1.177   2.049  0.00  0.00    +0.128 C 
ATOM      6  C   UNL     1       5.367   2.047   0.840  0.00  0.00    +0.124 C 
ATOM      7  N   UNL     1       6.824   2.003   0.656  0.00  0.00    -0.324 N 
ATOM      8  C   UNL     1       7.481   0.697   0.510  0.00  0.00    +0.088 C 
ATOM      9  C   UNL     1       7.115  -0.174   1.724  0.00  0.00    +0.131 C 
ATOM     10  C   UNL     1       7.003   0.022  -0.777  0.00  0.00    +0.029 C 
ATOM     11  H   UNL     1       3.168  -0.365   2.295  0.00  0.00    +0.156 HD
ENDROOT
BRANCH   1  13
ATOM     12  C   UNL     1       3.466  -3.781   2.442  0.00  0.00    +0.234 C 
ATOM     13  C   UNL     1       2.910  -2.377   2.361  0.00  0.00    +0.054 C 
ATOM     14  C   UNL     1       1.537  -2.508   2.473  0.00  0.00    +0.020 A 
ATOM     15  C   UNL     1       0.483  -1.562   2.468  0.00  0.00    +0.050 A 
ATOM     16  C   UNL     1      -0.800  -1.984   2.599  0.00  0.00    +0.124 A 
ATOM     17  C   UNL     1      -1.114  -3.341   2.740  0.00  0.00    +0.040 A 
ATOM     18  C   UNL     1      -0.157  -4.299   2.752  0.00  0.00    +0.029 A 
ATOM     19  C   UNL     1       1.209  -3.936   2.621  0.00  0.00    +0.045 A 
ATOM     20  N   UNL     1       2.308  -4.666   2.603  0.00  0.00    -0.367 N 
ATOM     21  F   UNL     1      -1.798  -1.073   2.594  0.00  0.00    -0.205 F 
ATOM     22  H   UNL     1       2.345  -5.632   2.684  0.00  0.00    +0.161 HD
BRANCH  12  23
ATOM     23  C   UNL     1       4.385  -3.908   3.630  0.00  0.00    +0.336 C 
ATOM     24  O   UNL     1       3.950  -4.282   4.693  0.00  0.00    -0.248 OA
BRANCH  23  25
ATOM     25  O   UNL     1       5.687  -3.606   3.506  0.00  0.00    -0.463 OA
BRANCH  25  27
ATOM     26  C   UNL     1       7.942  -3.361   4.339  0.00  0.00    +0.048 C 
ATOM     27  C   UNL     1       6.500  -3.748   4.672  0.00  0.00    +0.229 C 
ENDBRANCH  25  27
ENDBRANCH  23  25
ENDBRANCH  12  23
ENDBRANCH   1  13
BRANCH   7  28
ATOM     28  C   UNL     1       7.571   3.183   0.618  0.00  0.00    +0.030 A 
ATOM     29  C   UNL     1       6.959   4.403   0.877  0.00  0.00    +0.023 A 
ATOM     30  C   UNL     1       7.701   5.567   0.839  0.00  0.00    +0.002 A 
ATOM     31  C   UNL     1       9.052   5.519   0.545  0.00  0.00    +0.003 A 
ATOM     32  C   UNL     1       9.664   4.307   0.287  0.00  0.00    -0.049 A 
ATOM     33  C   UNL     1       8.929   3.138   0.329  0.00  0.00    +0.026 A 
ATOM     34  C   UNL     1      11.135   4.260  -0.034  0.00  0.00    +0.044 C 
ENDBRANCH   7  28
TORSDOF 5
