REMARK  Name = ZINC03401903
REMARK  7 active torsions:
REMARK  status: ('A' for Active; 'I' for Inactive)
REMARK    1  A    between atoms: C_10  and  N_12
REMARK    2  A    between atoms: N_12  and  C_13
REMARK    3  A    between atoms: C_13  and  C_14
REMARK    4  A    between atoms: C_14  and  C_16
REMARK    5  A    between atoms: C_14  and  O_26
REMARK    6  A    between atoms: C_16  and  O_17
REMARK    7  A    between atoms: O_17  and  C_18
REMARK                            x       y       z     vdW  Elec       q    Type
REMARK                         _______ _______ _______ _____ _____    ______ ____
ROOT
ATOM      1  C   UNL     1       4.988   1.339   0.311  0.00  0.00    -0.047 C 
ENDROOT
BRANCH   1   2
ATOM      2  N   UNL     1       4.651   0.020   0.863  0.00  0.00    +0.385 N 
ATOM      3  H   UNL     1       4.362   0.122   1.824  0.00  0.00    -0.085 HD
ATOM      4  H   UNL     1       5.460  -0.581   0.817  0.00  0.00    -0.085 HD
BRANCH   2  14
ATOM      5  C   UNL     1       2.325  -4.169   2.041  0.00  0.00    +0.000 A 
ATOM      6  C   UNL     1       2.625  -3.033   2.770  0.00  0.00    +0.000 A 
ATOM      7  C   UNL     1       3.022  -1.885   2.116  0.00  0.00    +0.002 A 
ATOM      8  C   UNL     1       3.125  -1.861   0.731  0.00  0.00    -0.058 A 
ATOM      9  C   UNL     1       2.830  -2.994   0.006  0.00  0.00    -0.046 A 
ATOM     10  C   UNL     1       2.427  -4.148   0.666  0.00  0.00    +0.004 A 
ATOM     11  C   UNL     1       2.935  -3.044  -1.496  0.00  0.00    +0.035 C 
ATOM     12  C   UNL     1       2.960  -1.634  -2.080  0.00  0.00    +0.003 C 
ATOM     13  C   UNL     1       4.035  -0.824  -1.346  0.00  0.00    -0.011 C 
ATOM     14  C   UNL     1       3.556  -0.572   0.082  0.00  0.00    -0.041 C 
ENDBRANCH   2  14
ENDBRANCH   1   2
BRANCH   1  15
ATOM     15  C   UNL     1       6.036   2.012   1.200  0.00  0.00    +0.135 C 
BRANCH  15  16
ATOM     16  O   UNL     1       7.251   1.261   1.155  0.00  0.00    -0.390 OA
ATOM     17  H   UNL     1       7.634   1.185   0.271  0.00  0.00    +0.210 HD
ENDBRANCH  15  16
BRANCH  15  18
ATOM     18  C   UNL     1       6.295   3.433   0.697  0.00  0.00    +0.258 C 
BRANCH  18  19
ATOM     19  O   UNL     1       7.185   4.101   1.594  0.00  0.00    -0.487 OA
BRANCH  19  20
ATOM     20  C   UNL     1       7.520   5.383   1.290  0.00  0.00    +0.157 A 
ATOM     21  C   UNL     1       8.627   5.642   0.493  0.00  0.00    +0.084 A 
ATOM     22  C   UNL     1       8.966   6.947   0.186  0.00  0.00    +0.024 A 
ATOM     23  C   UNL     1       8.203   7.993   0.671  0.00  0.00    +0.003 A 
ATOM     24  C   UNL     1       7.100   7.738   1.464  0.00  0.00    +0.024 A 
ATOM     25  C   UNL     1       6.753   6.435   1.770  0.00  0.00    +0.084 A 
ATOM     26 CL   UNL     1       5.363   6.115   2.760  0.00  0.00    -0.080 Cl
ATOM     27 CL   UNL     1       9.586   4.329  -0.115  0.00  0.00    -0.080 Cl
ENDBRANCH  19  20
ENDBRANCH  18  19
ENDBRANCH  15  18
ENDBRANCH   1  15
TORSDOF 7
