REMARK  Name = ZINC46697484
REMARK  7 active torsions:
REMARK  status: ('A' for Active; 'I' for Inactive)
REMARK    1  A    between atoms: C_1  and  C_2
REMARK    2  A    between atoms: N_16  and  C_17
REMARK    3  A    between atoms: C_17  and  C_18
REMARK    4  A    between atoms: C_18  and  C_19
REMARK    5  A    between atoms: N_21  and  C_22
REMARK    6  A    between atoms: C_22  and  C_23
REMARK    7  A    between atoms: C_23  and  C_24
REMARK                            x       y       z     vdW  Elec       q    Type
REMARK                         _______ _______ _______ _____ _____    ______ ____
ROOT
ATOM      1  C   UNL     1      -0.046  -0.716  -2.425  0.00  0.00    +0.119 C 
ENDROOT
BRANCH   1  17
ATOM      2  C   UNL     1      -0.277   1.267   0.215  0.00  0.00    +0.054 C 
ATOM      3  C   UNL     1      -0.019  -0.233   0.058  0.00  0.00    +0.109 C 
ATOM      4  C   UNL     1      -1.347  -0.994   0.100  0.00  0.00    +0.055 C 
ATOM      5  C   UNL     1      -1.288  -1.774   1.426  0.00  0.00    +0.100 C 
ATOM      6  C   UNL     1       0.066  -1.473   2.020  0.00  0.00    +0.222 C 
ATOM      7  O   UNL     1       0.445  -1.862   3.104  0.00  0.00    -0.275 OA
ATOM      8  N   UNL     1       0.790  -0.721   1.188  0.00  0.00    -0.249 N 
ATOM      9  C   UNL     1       2.156  -0.435   1.263  0.00  0.00    +0.050 A 
ATOM     10  C   UNL     1       2.840  -0.290   2.450  0.00  0.00    +0.024 A 
ATOM     11  C   UNL     1       4.191   0.010   2.423  0.00  0.00    +0.002 A 
ATOM     12  C   UNL     1       4.852   0.164   1.215  0.00  0.00    +0.001 A 
ATOM     13  C   UNL     1       4.179   0.015   0.019  0.00  0.00    +0.015 A 
ATOM     14  C   UNL     1       2.823  -0.293   0.030  0.00  0.00    +0.058 A 
ATOM     15  C   UNL     1       2.054  -0.501  -1.211  0.00  0.00    +0.250 C 
ATOM     16  O   UNL     1       2.639  -0.691  -2.260  0.00  0.00    -0.270 OA
ATOM     17  N   UNL     1       0.703  -0.482  -1.188  0.00  0.00    -0.275 N 
ENDBRANCH   1  17
BRANCH   1  18
ATOM     18  C   UNL     1      -0.170   0.597  -3.202  0.00  0.00    +0.115 C 
BRANCH  18  19
ATOM     19  C   UNL     1      -0.940   0.357  -4.474  0.00  0.00    +0.215 C 
ATOM     20  O   UNL     1      -1.350  -0.755  -4.735  0.00  0.00    -0.276 OA
ATOM     21  N   UNL     1      -1.174   1.377  -5.323  0.00  0.00    -0.315 N 
ATOM     22  H   UNL     1      -0.847   2.266  -5.115  0.00  0.00    +0.149 HD
BRANCH  21  23
ATOM     23  C   UNL     1      -1.923   1.144  -6.561  0.00  0.00    +0.109 C 
BRANCH  23  24
ATOM     24  C   UNL     1      -2.047   2.456  -7.337  0.00  0.00    +0.054 C 
BRANCH  24  25
ATOM     25  C   UNL     1      -2.817   2.216  -8.610  0.00  0.00    -0.038 A 
ATOM     26  C   UNL     1      -2.156   1.964  -9.772  0.00  0.00    +0.004 A 
ATOM     27  C   UNL     1      -2.851   1.739 -10.959  0.00  0.00    +0.001 A 
ATOM     28  C   UNL     1      -4.212   1.767 -10.990  0.00  0.00    +0.008 A 
ATOM     29  C   UNL     1      -4.929   2.024  -9.810  0.00  0.00    -0.018 A 
ATOM     30  C   UNL     1      -4.222   2.246  -8.601  0.00  0.00    -0.015 A 
ATOM     31  C   UNL     1      -4.940   2.498  -7.420  0.00  0.00    +0.009 A 
ATOM     32  C   UNL     1      -6.300   2.520  -7.450  0.00  0.00    +0.001 A 
ATOM     33  C   UNL     1      -6.996   2.295  -8.637  0.00  0.00    +0.001 A 
ATOM     34  C   UNL     1      -6.334   2.061  -9.803  0.00  0.00    +0.008 A 
ENDBRANCH  24  25
ENDBRANCH  23  24
ENDBRANCH  21  23
ENDBRANCH  18  19
ENDBRANCH   1  18
TORSDOF 6
