REMARK  Name = ZINC13642465
REMARK  5 active torsions:
REMARK  status: ('A' for Active; 'I' for Inactive)
REMARK    1  A    between atoms: C_1  and  C_2
REMARK    2  A    between atoms: C_2  and  N_3
REMARK    3  A    between atoms: C_14  and  C_16
REMARK    4  A    between atoms: C_26  and  N_33
REMARK    5  A    between atoms: C_29  and  O_32
REMARK                            x       y       z     vdW  Elec       q    Type
REMARK                         _______ _______ _______ _____ _____    ______ ____
ROOT
ATOM      1  C   UNL     1       1.176  -1.382  -0.256  0.00  0.00    +0.105 C 
ATOM      2  C   UNL     1       0.718  -0.005   0.197  0.00  0.00    +0.029 C 
ATOM      3  C   UNL     1      -0.519   0.448  -0.617  0.00  0.00    +0.033 C 
ATOM      4  C   UNL     1      -0.384   1.959  -0.637  0.00  0.00    -0.030 C 
ATOM      5  C   UNL     1       0.857   2.312  -0.412  0.00  0.00    -0.023 C 
ATOM      6  C   UNL     1       1.731   1.085  -0.207  0.00  0.00    +0.051 C 
ATOM      7  C   UNL     1       2.389   0.760  -1.523  0.00  0.00    +0.014 A 
ATOM      8  C   UNL     1       3.266   1.699  -2.053  0.00  0.00    +0.132 A 
ATOM      9  C   UNL     1       3.905   1.467  -3.253  0.00  0.00    +0.037 A 
ATOM     10  C   UNL     1       3.677   0.290  -3.943  0.00  0.00    +0.049 A 
ATOM     11  C   UNL     1       2.806  -0.651  -3.425  0.00  0.00    +0.138 A 
ATOM     12  C   UNL     1       2.157  -0.415  -2.208  0.00  0.00    +0.076 A 
ATOM     13  N   UNL     1       1.283  -1.396  -1.731  0.00  0.00    -0.334 N 
ATOM     14  H   UNL     1       0.708  -2.128  -2.317  0.00  0.00    +0.147 HD
ENDROOT
BRANCH   1  26
ATOM     15  N   UNL     1       6.193  -2.341   2.155  0.00  0.00    -0.340 N 
ATOM     16  C   UNL     1       6.086  -1.589   3.311  0.00  0.00    +0.050 A 
ATOM     17  C   UNL     1       6.961  -1.370   4.371  0.00  0.00    +0.026 A 
ATOM     18  C   UNL     1       6.586  -0.555   5.418  0.00  0.00    +0.002 A 
ATOM     19  C   UNL     1       5.340   0.052   5.428  0.00  0.00    +0.001 A 
ATOM     20  C   UNL     1       4.460  -0.153   4.388  0.00  0.00    +0.010 A 
ATOM     21  C   UNL     1       4.825  -0.974   3.323  0.00  0.00    +0.008 A 
ATOM     22  C   UNL     1       4.143  -1.394   2.086  0.00  0.00    +0.008 A 
ATOM     23  C   UNL     1       5.035  -2.236   1.405  0.00  0.00    +0.050 A 
ATOM     24  C   UNL     1       4.654  -2.790   0.187  0.00  0.00    +0.027 A 
ATOM     25  C   UNL     1       3.409  -2.515  -0.337  0.00  0.00    +0.007 A 
ATOM     26  C   UNL     1       2.531  -1.677   0.334  0.00  0.00    -0.026 A 
ATOM     27  C   UNL     1       2.890  -1.119   1.542  0.00  0.00    +0.016 A 
BRANCH  15  29
ATOM     28  C   UNL     1       8.324  -2.270   0.957  0.00  0.00    +0.027 C 
ATOM     29  C   UNL     1       7.365  -3.135   1.778  0.00  0.00    +0.119 C 
ENDBRANCH  15  29
ENDBRANCH   1  26
BRANCH   8  30
ATOM     30  N   UNL     1       3.517   2.961  -1.322  0.00  0.00    +0.057 N 
ATOM     31  O   UNL     1       3.651   4.005  -1.937  0.00  0.00    -0.126 OA
ATOM     32  O   UNL     1       3.589   2.957  -0.106  0.00  0.00    -0.126 OA
ENDBRANCH   8  30
BRANCH  11  33
ATOM     33  O   UNL     1       2.580  -1.809  -4.101  0.00  0.00    -0.505 OA
ATOM     34  H   UNL     1       1.887  -2.559  -3.690  0.00  0.00    +0.292 HD
ENDBRANCH  11  33
TORSDOF 4
