REMARK  Name = ZINC08711026
REMARK  7 active torsions:
REMARK  status: ('A' for Active; 'I' for Inactive)
REMARK    1  A    between atoms: C_1  and  C_2
REMARK    2  A    between atoms: C_5  and  S_7
REMARK    3  A    between atoms: S_7  and  C_8
REMARK    4  A    between atoms: C_8  and  C_9
REMARK    5  A    between atoms: C_9  and  N_11
REMARK    6  A    between atoms: C_18  and  O_22
REMARK    7  A    between atoms: O_22  and  C_23
REMARK                            x       y       z     vdW  Elec       q    Type
REMARK                         _______ _______ _______ _____ _____    ______ ____
ROOT
ATOM      1  N   UNL     1       0.099  -7.579  -1.484  0.00  0.00    -0.156 NA
ATOM      2  C   UNL     1       0.217  -8.884  -1.250  0.00  0.00    +0.164 A 
ATOM      3  N   UNL     1       0.241  -9.515  -0.050  0.00  0.00    -0.335 N 
ATOM      4  H   UNL     1       0.166  -9.003   0.771  0.00  0.00    +0.168 HD
ATOM      5  C   UNL     1       0.371 -10.892   0.001  0.00  0.00    +0.055 A 
ATOM      6  C   UNL     1       0.418 -11.735   1.120  0.00  0.00    +0.030 A 
ATOM      7  C   UNL     1       0.555 -13.095   0.969  0.00  0.00    +0.048 A 
ATOM      8  C   UNL     1       0.650 -13.671  -0.292  0.00  0.00    +0.121 A 
ATOM      9  C   UNL     1       0.605 -12.857  -1.415  0.00  0.00    +0.062 A 
ATOM     10  C   UNL     1       0.469 -11.498  -1.260  0.00  0.00    +0.042 A 
ATOM     11  S   UNL     1       0.365 -10.123  -2.376  0.00  0.00    -0.052 S 
ENDROOT
BRANCH   1  12
ATOM     12  C   UNL     1       0.104  -6.719  -0.470  0.00  0.00    +0.249 C 
ATOM     13  O   UNL     1       0.122  -7.129   0.674  0.00  0.00    -0.273 OA
BRANCH  12  14
ATOM     14  C   UNL     1       0.089  -5.237  -0.740  0.00  0.00    +0.174 C 
BRANCH  14  15
ATOM     15  S   UNL     1       0.102  -4.336   0.835  0.00  0.00    -0.088 S 
BRANCH  15  20
ATOM     16  C   UNL     1       0.044   1.505   0.002  0.00  0.00    +0.075 C 
ATOM     17  C   UNL     1       0.056  -0.002  -0.005  0.00  0.00    +0.100 A 
ATOM     18  N   UNL     1       0.050  -0.844  -1.019  0.00  0.00    -0.146 NA
ATOM     19  N   UNL     1       0.062  -2.095  -0.854  0.00  0.00    -0.135 NA
ATOM     20  C   UNL     1       0.082  -2.640   0.356  0.00  0.00    +0.159 A 
ATOM     21  S   UNL     1       0.091  -1.159   1.361  0.00  0.00    -0.044 S 
ENDBRANCH  15  20
ENDBRANCH  14  15
ENDBRANCH  12  14
ENDBRANCH   1  12
BRANCH   8  22
ATOM     22  O   UNL     1       0.785 -15.018  -0.424  0.00  0.00    -0.495 OA
ATOM     23  C   UNL     1       0.823 -15.787   0.779  0.00  0.00    +0.277 C 
ENDBRANCH   8  22
TORSDOF 5
