REMARK  Name = ZINC28346913
REMARK  6 active torsions:
REMARK  status: ('A' for Active; 'I' for Inactive)
REMARK    1  A    between atoms: C_9  and  C_12
REMARK    2  A    between atoms: C_15  and  S_17
REMARK    3  A    between atoms: S_17  and  C_18
REMARK    4  A    between atoms: C_18  and  C_19
REMARK    5  A    between atoms: C_19  and  S_20
REMARK    6  A    between atoms: S_20  and  C_23
REMARK                            x       y       z     vdW  Elec       q    Type
REMARK                         _______ _______ _______ _____ _____    ______ ____
ROOT
ATOM      1  C   UNL     1       1.452   3.435   0.021  0.00  0.00    +0.262 A 
ATOM      2  N   UNL     1       1.202   4.191   1.049  0.00  0.00    -0.108 NA
ATOM      3  N   UNL     1       1.308   5.428   0.710  0.00  0.00    -0.101 NA
ATOM      4  C   UNL     1       1.632   5.503  -0.559  0.00  0.00    +0.278 A 
ATOM      5  O   UNL     1       1.734   4.243  -1.020  0.00  0.00    -0.412 OA
ENDROOT
BRANCH   1  14
ATOM      6  C   UNL     1       1.554  -2.580   2.045  0.00  0.00    +0.004 A 
ATOM      7  C   UNL     1       2.595  -1.874   2.619  0.00  0.00    +0.004 A 
ATOM      8  C   UNL     1       2.773  -0.536   2.321  0.00  0.00    +0.049 A 
ATOM      9  C   UNL     1       1.906   0.101   1.445  0.00  0.00    +0.163 A 
ATOM     10  C   UNL     1       0.861  -0.609   0.867  0.00  0.00    +0.162 A 
ATOM     11  C   UNL     1       0.688  -1.951   1.171  0.00  0.00    +0.049 A 
ATOM     12  O   UNL     1       0.002  -0.004   0.002  0.00  0.00    -0.484 OA
ATOM     13  C   UNL     1      -0.017   1.427   0.010  0.00  0.00    +0.283 C 
ATOM     14  C   UNL     1       1.433   1.928  -0.001  0.00  0.00    +0.297 C 
ATOM     15  O   UNL     1       2.092   1.420   1.164  0.00  0.00    -0.472 OA
ENDBRANCH   1  14
BRANCH   4  16
ATOM     16  S   UNL     1       1.890   6.980  -1.485  0.00  0.00    -0.064 S 
BRANCH  16  17
ATOM     17  C   UNL     1       1.583   8.216  -0.199  0.00  0.00    +0.102 C 
BRANCH  17  18
ATOM     18  C   UNL     1       1.754   9.617  -0.788  0.00  0.00    +0.183 C 
BRANCH  18  19
ATOM     19  S   UNL     1       1.446  10.856   0.501  0.00  0.00    -0.002 S 
ATOM     20  O   UNL     1       0.077  10.840   0.879  0.00  0.00    -0.169 OA
ATOM     21  O   UNL     1       2.470  10.803   1.486  0.00  0.00    -0.169 OA
BRANCH  19  22
ATOM     22  C   UNL     1       1.674  12.409  -0.300  0.00  0.00    +0.088 A 
ATOM     23  C   UNL     1       2.922  13.003  -0.315  0.00  0.00    +0.028 A 
ATOM     24  C   UNL     1       3.102  14.219  -0.947  0.00  0.00    +0.017 A 
ATOM     25  C   UNL     1       2.030  14.847  -1.556  0.00  0.00    +0.018 A 
ATOM     26  C   UNL     1       0.780  14.255  -1.536  0.00  0.00    +0.017 A 
ATOM     27  C   UNL     1       0.602  13.036  -0.908  0.00  0.00    +0.028 A 
ATOM     28 BR   UNL     1       2.274  16.514  -2.414  0.00  0.00    -0.050 Br
ENDBRANCH  19  22
ENDBRANCH  18  19
ENDBRANCH  17  18
ENDBRANCH  16  17
ENDBRANCH   4  16
TORSDOF 6
