REMARK  Name = ZINC59849568
REMARK  6 active torsions:
REMARK  status: ('A' for Active; 'I' for Inactive)
REMARK    1  A    between atoms: C_6  and  C_7
REMARK    2  A    between atoms: C_7  and  N_8
REMARK    3  A    between atoms: C_11  and  N_14
REMARK    4  A    between atoms: N_17  and  C_18
REMARK    5  A    between atoms: C_18  and  C_20
REMARK    6  A    between atoms: C_18  and  C_30
REMARK                            x       y       z     vdW  Elec       q    Type
REMARK                         _______ _______ _______ _____ _____    ______ ____
ROOT
ATOM      1  N   UNL     1      -2.972  -2.837  -4.963  0.00  0.00    -0.297 N 
ATOM      2  C   UNL     1      -3.868  -3.780  -5.319  0.00  0.00    +0.300 C 
ATOM      3  O   UNL     1      -4.322  -4.534  -4.480  0.00  0.00    -0.253 OA
ATOM      4  N   UNL     1      -4.260  -3.886  -6.604  0.00  0.00    -0.292 N 
ATOM      5  H   UNL     1      -2.610  -2.236  -5.633  0.00  0.00    +0.151 HD
ATOM      6  H   UNL     1      -3.898  -3.285  -7.273  0.00  0.00    +0.151 HD
ENDROOT
BRANCH   1  10
ATOM      7  N   UNL     1      -1.727  -1.018  -1.371  0.00  0.00    +0.382 N 
ATOM      8  C   UNL     1      -0.753  -1.886  -2.043  0.00  0.00    -0.077 C 
ATOM      9  C   UNL     1      -1.158  -2.077  -3.507  0.00  0.00    +0.004 C 
ATOM     10  C   UNL     1      -2.546  -2.722  -3.567  0.00  0.00    +0.071 C 
ATOM     11  C   UNL     1      -3.539  -1.845  -2.799  0.00  0.00    +0.004 C 
ATOM     12  C   UNL     1      -3.046  -1.663  -1.362  0.00  0.00    -0.077 C 
ATOM     13  H   UNL     1      -1.787  -0.139  -1.863  0.00  0.00    -0.081 HD
BRANCH   7  14
ATOM     14  C   UNL     1      -1.293  -0.775   0.011  0.00  0.00    -0.043 C 
BRANCH  14  20
ATOM     15  C   UNL     1      -0.017   1.378   0.010  0.00  0.00    +0.003 A 
ATOM     16  C   UNL     1       1.171   2.086   0.002  0.00  0.00    +0.020 A 
ATOM     17  C   UNL     1       2.378   1.410  -0.013  0.00  0.00    +0.041 A 
ATOM     18  C   UNL     1       2.396   0.027  -0.021  0.00  0.00    +0.020 A 
ATOM     19  C   UNL     1       1.208  -0.679  -0.013  0.00  0.00    +0.003 A 
ATOM     20  C   UNL     1       0.002  -0.004   0.002  0.00  0.00    -0.064 A 
ATOM     21 CL   UNL     1       3.870   2.298  -0.023  0.00  0.00    -0.084 Cl
ENDBRANCH  14  20
ENDBRANCH   7  14
ENDBRANCH   1  10
BRANCH   4  22
ATOM     22  C   UNL     1      -5.234  -4.911  -6.990  0.00  0.00    +0.108 C 
BRANCH  22  23
ATOM     23  C   UNL     1      -5.058  -5.246  -8.449  0.00  0.00    -0.023 A 
ATOM     24  C   UNL     1      -4.793  -4.241  -9.361  0.00  0.00    +0.009 A 
ATOM     25  C   UNL     1      -4.633  -4.544 -10.699  0.00  0.00    +0.050 A 
ATOM     26  C   UNL     1      -4.738  -5.858 -11.132  0.00  0.00    +0.162 A 
ATOM     27  C   UNL     1      -5.002  -6.868 -10.215  0.00  0.00    +0.162 A 
ATOM     28  C   UNL     1      -5.157  -6.558  -8.872  0.00  0.00    +0.055 A 
ATOM     29  O   UNL     1      -5.101  -8.165 -10.617  0.00  0.00    -0.485 OA
ATOM     30  C   UNL     1      -5.304  -8.391 -12.016  0.00  0.00    +0.270 C 
ATOM     31  C   UNL     1      -4.320  -7.506 -12.793  0.00  0.00    +0.270 C 
ATOM     32  O   UNL     1      -4.582  -6.140 -12.454  0.00  0.00    -0.485 OA
ENDBRANCH  22  23
BRANCH  22  33
ATOM     33  C   UNL     1      -6.650  -4.383  -6.755  0.00  0.00    +0.014 C 
ATOM     34  C   UNL     1      -6.801  -2.905  -6.387  0.00  0.00    +0.006 C 
ATOM     35  C   UNL     1      -7.027  -3.985  -5.326  0.00  0.00    +0.006 C 
ENDBRANCH  22  33
ENDBRANCH   4  22
TORSDOF 6
