REMARK  Name = ZINC39024330
REMARK  2 active torsions:
REMARK  status: ('A' for Active; 'I' for Inactive)
REMARK    1  A    between atoms: C_8  and  C_13
REMARK    2  A    between atoms: C_18  and  C_21
REMARK                            x       y       z     vdW  Elec       q    Type
REMARK                         _______ _______ _______ _____ _____    ______ ____
ROOT
ATOM      1  C   UNL     1       2.646  -4.199  -0.123  0.00  0.00    +0.233 C 
ATOM      2  O   UNL     1       1.757  -4.747   0.494  0.00  0.00    -0.275 OA
ATOM      3  N   UNL     1       3.751  -4.889  -0.468  0.00  0.00    -0.264 N 
ATOM      4  C   UNL     1       3.872  -6.229  -0.117  0.00  0.00    +0.165 A 
ATOM      5  N   UNL     1       4.869  -7.051  -0.361  0.00  0.00    -0.229 NA
ATOM      6  C   UNL     1       4.832  -8.307   0.044  0.00  0.00    +0.057 A 
ATOM      7  C   UNL     1       3.725  -8.706   0.717  0.00  0.00    +0.072 A 
ATOM      8  S   UNL     1       2.781  -7.190   0.731  0.00  0.00    -0.060 S 
ATOM      9  H   UNL     1       4.462  -4.451  -0.962  0.00  0.00    +0.157 HD
ENDROOT
BRANCH   1  17
ATOM     10  C   UNL     1      -0.017   1.377   0.010  0.00  0.00    +0.000 A 
ATOM     11  C   UNL     1       1.171   2.084   0.002  0.00  0.00    +0.004 A 
ATOM     12  C   UNL     1       2.374   1.409  -0.017  0.00  0.00    +0.046 A 
ATOM     13  C   UNL     1       2.396   0.018  -0.026  0.00  0.00    +0.135 A 
ATOM     14  C   UNL     1       1.207  -0.689  -0.012  0.00  0.00    -0.004 A 
ATOM     15  C   UNL     1       0.002  -0.004   0.002  0.00  0.00    +0.007 A 
ATOM     16  C   UNL     1       1.177  -2.196   0.001  0.00  0.00    +0.063 C 
ATOM     17  C   UNL     1       2.514  -2.747  -0.504  0.00  0.00    +0.188 C 
ATOM     18  C   UNL     1       3.619  -1.941   0.150  0.00  0.00    +0.325 C 
ATOM     19  O   UNL     1       4.472  -2.467   0.824  0.00  0.00    -0.250 OA
ATOM     20  O   UNL     1       3.604  -0.609  -0.056  0.00  0.00    -0.425 OA
ENDBRANCH   1  17
BRANCH   6  21
ATOM     21  C   UNL     1       5.970  -9.256  -0.232  0.00  0.00    +0.014 C 
ATOM     22  C   UNL     1       6.769  -9.481   1.054  0.00  0.00    +0.016 C 
ATOM     23  C   UNL     1       7.924 -10.445   0.774  0.00  0.00    -0.010 C 
ATOM     24  C   UNL     1       8.839  -9.847  -0.297  0.00  0.00    +0.007 C 
ATOM     25  C   UNL     1       8.040  -9.623  -1.583  0.00  0.00    -0.010 C 
ATOM     26  C   UNL     1       6.885  -8.659  -1.303  0.00  0.00    +0.016 C 
ATOM     27  C   UNL     1       7.481 -10.959  -2.076  0.00  0.00    +0.007 C 
ATOM     28  C   UNL     1       6.566 -11.556  -1.005  0.00  0.00    -0.010 C 
ATOM     29  C   UNL     1       7.366 -11.781   0.280  0.00  0.00    +0.007 C 
ATOM     30  C   UNL     1       5.411 -10.592  -0.725  0.00  0.00    +0.016 C 
ENDBRANCH   6  21
TORSDOF 2
