REMARK  Name = ZINC17100237
REMARK  6 active torsions:
REMARK  status: ('A' for Active; 'I' for Inactive)
REMARK    1  A    between atoms: C_1  and  O_2
REMARK    2  A    between atoms: O_2  and  C_3
REMARK    3  A    between atoms: C_6  and  C_18
REMARK    4  A    between atoms: C_8  and  C_9
REMARK    5  A    between atoms: C_9  and  O_10
REMARK    6  A    between atoms: O_10  and  C_11
REMARK                            x       y       z     vdW  Elec       q    Type
REMARK                         _______ _______ _______ _____ _____    ______ ____
ROOT
ATOM      1  C   UNL     1      -1.443  10.366   0.061  0.00  0.00    +0.127 A 
ATOM      2  C   UNL     1      -0.083  10.078   0.047  0.00  0.00    +0.047 A 
ATOM      3  C   UNL     1       0.345   8.769   0.038  0.00  0.00    +0.015 A 
ATOM      4  C   UNL     1      -0.589   7.730   0.043  0.00  0.00    +0.018 A 
ATOM      5  C   UNL     1      -1.955   8.024   0.051  0.00  0.00    +0.022 A 
ATOM      6  C   UNL     1      -2.375   9.336   0.066  0.00  0.00    +0.032 A 
ENDROOT
BRANCH   4   7
ATOM      7  C   UNL     1      -0.134   6.326   0.033  0.00  0.00    +0.142 A 
ATOM      8  N   UNL     1       1.207   6.073   0.018  0.00  0.00    -0.306 N 
ATOM      9  H   UNL     1       1.821   6.824   0.015  0.00  0.00    +0.170 HD
ATOM     10  C   UNL     1       1.720   4.819   0.009  0.00  0.00    +0.260 A 
ATOM     11  O   UNL     1       2.921   4.611  -0.004  0.00  0.00    -0.267 OA
ATOM     12  C   UNL     1       0.761   3.751   0.014  0.00  0.00    +0.075 A 
ATOM     13  C   UNL     1       1.048   2.328   0.005  0.00  0.00    -0.023 A 
ATOM     14  C   UNL     1      -0.018   1.493   0.010  0.00  0.00    -0.004 A 
ATOM     15  S   UNL     1      -1.441   2.555   0.022  0.00  0.00    -0.073 S 
ATOM     16  C   UNL     1      -0.607   4.111   0.028  0.00  0.00    +0.116 A 
ATOM     17  N   UNL     1      -1.044   5.363   0.038  0.00  0.00    -0.222 NA
ATOM     18  C   UNL     1       0.002  -0.004   0.002  0.00  0.00    +0.043 C 
ATOM     19  C   UNL     1       1.412  -0.469  -0.389  0.00  0.00    +0.005 C 
ATOM     20  C   UNL     1       2.433   0.311   0.444  0.00  0.00    +0.005 C 
ATOM     21  C   UNL     1       2.469   1.770  -0.011  0.00  0.00    +0.037 C 
ENDBRANCH   4   7
BRANCH   1  23
ATOM     22  C   UNL     1      -0.850  12.667   0.064  0.00  0.00    +0.277 C 
ATOM     23  O   UNL     1      -1.861  11.658   0.070  0.00  0.00    -0.495 OA
ENDBRANCH   1  23
BRANCH   6  24
ATOM     24  C   UNL     1      -3.848   9.654   0.081  0.00  0.00    +0.268 C 
BRANCH  24  25
ATOM     25  O   UNL     1      -4.598   8.437   0.084  0.00  0.00    -0.487 OA
BRANCH  25  26
ATOM     26  C   UNL     1      -5.953   8.547   0.097  0.00  0.00    +0.121 A 
ATOM     27  C   UNL     1      -6.547   9.800   0.113  0.00  0.00    +0.048 A 
ATOM     28  C   UNL     1      -7.924   9.911   0.120  0.00  0.00    +0.042 A 
ATOM     29  C   UNL     1      -8.711   8.772   0.123  0.00  0.00    +0.124 A 
ATOM     30  C   UNL     1      -8.119   7.520   0.114  0.00  0.00    +0.042 A 
ATOM     31  C   UNL     1      -6.742   7.407   0.100  0.00  0.00    +0.048 A 
ATOM     32  F   UNL     1     -10.057   8.881   0.136  0.00  0.00    -0.205 F 
ENDBRANCH  25  26
ENDBRANCH  24  25
ENDBRANCH   6  24
TORSDOF 5
