REMARK  Name = ZINC20479463
REMARK  6 active torsions:
REMARK  status: ('A' for Active; 'I' for Inactive)
REMARK    1  A    between atoms: C_3  and  C_15
REMARK    2  A    between atoms: N_4  and  C_6
REMARK    3  A    between atoms: C_6  and  C_7
REMARK    4  A    between atoms: C_16  and  C_17
REMARK    5  A    between atoms: C_16  and  C_19
REMARK    6  A    between atoms: N_21  and  C_22
REMARK                            x       y       z     vdW  Elec       q    Type
REMARK                         _______ _______ _______ _____ _____    ______ ____
ROOT
ATOM      1  C   UNL     1       1.769   2.038  -2.631  0.00  0.00    +0.050 C 
ATOM      2  C   UNL     1       0.472   1.752  -3.029  0.00  0.00    +0.116 C 
ENDROOT
BRANCH   1   5
ATOM      3  C   UNL     1       1.764   3.123   0.809  0.00  0.00    +0.020 A 
ATOM      4  C   UNL     1       1.092   2.603  -0.297  0.00  0.00    +0.027 A 
ATOM      5  C   UNL     1       2.017   2.508  -1.327  0.00  0.00    +0.043 A 
ATOM      6  N   UNL     1       3.226   2.956  -0.837  0.00  0.00    -0.343 N 
ATOM      7  C   UNL     1       3.058   3.328   0.455  0.00  0.00    +0.086 A 
BRANCH   6   8
ATOM      8  C   UNL     1       4.481   3.024  -1.590  0.00  0.00    +0.158 C 
BRANCH   8   9
ATOM      9  C   UNL     1       4.538   4.320  -2.356  0.00  0.00    -0.009 A 
ATOM     10  C   UNL     1       4.189   4.348  -3.694  0.00  0.00    +0.008 A 
ATOM     11  C   UNL     1       4.235   5.538  -4.396  0.00  0.00    +0.020 A 
ATOM     12  C   UNL     1       4.641   6.699  -3.763  0.00  0.00    +0.042 A 
ATOM     13  C   UNL     1       4.995   6.671  -2.427  0.00  0.00    +0.040 A 
ATOM     14  C   UNL     1       4.944   5.481  -1.723  0.00  0.00    +0.047 A 
ATOM     15 CL   UNL     1       5.388   5.445  -0.045  0.00  0.00    -0.083 Cl
ATOM     16 CL   UNL     1       4.706   8.192  -4.647  0.00  0.00    -0.083 Cl
ENDBRANCH   8   9
ENDBRANCH   6   8
ENDBRANCH   1   5
BRANCH   2  17
ATOM     17  C   UNL     1       0.196   1.390  -4.424  0.00  0.00    +0.259 C 
ATOM     18  O   UNL     1       1.105   1.341  -5.232  0.00  0.00    -0.269 OA
ATOM     19  N   UNL     1      -1.065   1.111  -4.811  0.00  0.00    -0.281 N 
ATOM     20  H   UNL     1      -1.898   1.238  -4.104  0.00  0.00    +0.155 HD
BRANCH  19  21
ATOM     21  C   UNL     1      -1.314   0.660  -6.113  0.00  0.00    +0.037 A 
ATOM     22  C   UNL     1      -2.490   1.017  -6.758  0.00  0.00    +0.027 A 
ATOM     23  C   UNL     1      -2.735   0.577  -8.045  0.00  0.00    +0.051 A 
ATOM     24  C   UNL     1      -1.813  -0.230  -8.691  0.00  0.00    +0.166 A 
ATOM     25  C   UNL     1      -0.634  -0.594  -8.044  0.00  0.00    +0.168 A 
ATOM     26  C   UNL     1      -0.387  -0.149  -6.757  0.00  0.00    +0.072 A 
ATOM     27  O   UNL     1       0.098  -1.383  -8.884  0.00  0.00    -0.453 OA
ATOM     28  C   UNL     1      -0.825  -1.833  -9.893  0.00  0.00    +0.466 C 
ATOM     29  O   UNL     1      -1.818  -0.791  -9.936  0.00  0.00    -0.453 OA
ENDBRANCH  19  21
ENDBRANCH   2  17
BRANCH   2  30
ATOM     30  C   UNL     1      -0.597   1.809  -2.078  0.00  0.00    +0.104 C 
ATOM     31  N   UNL     1      -1.446   1.855  -1.325  0.00  0.00    -0.191 NA
ENDBRANCH   2  30
TORSDOF 6
