REMARK  Name = ZINC63248448
REMARK  5 active torsions:
REMARK  status: ('A' for Active; 'I' for Inactive)
REMARK    1  A    between atoms: C_1  and  C_2
REMARK    2  A    between atoms: C_4  and  C_7
REMARK    3  A    between atoms: C_7  and  N_8
REMARK    4  A    between atoms: C_16  and  C_18
REMARK    5  A    between atoms: C_18  and  N_19
REMARK                            x       y       z     vdW  Elec       q    Type
REMARK                         _______ _______ _______ _____ _____    ______ ____
ROOT
ATOM      1  N   UNL     1      -1.691  -3.832  -1.387  0.00  0.00    -0.323 N 
ATOM      2  C   UNL     1      -2.462  -4.952  -1.641  0.00  0.00    +0.131 A 
ATOM      3  C   UNL     1      -2.737  -5.349  -2.980  0.00  0.00    +0.051 A 
ATOM      4  C   UNL     1      -2.308  -4.719  -4.229  0.00  0.00    -0.025 A 
ATOM      5  C   UNL     1      -2.710  -5.302  -5.377  0.00  0.00    -0.004 A 
ATOM      6  S   UNL     1      -3.670  -6.704  -4.873  0.00  0.00    -0.073 S 
ATOM      7  C   UNL     1      -3.531  -6.505  -3.116  0.00  0.00    +0.114 A 
ATOM      8  N   UNL     1      -3.982  -7.161  -2.064  0.00  0.00    -0.227 NA
ATOM      9  C   UNL     1      -3.694  -6.743  -0.846  0.00  0.00    +0.116 A 
ATOM     10  N   UNL     1      -2.949  -5.671  -0.643  0.00  0.00    -0.219 NA
ATOM     11  C   UNL     1      -2.408  -4.855  -6.776  0.00  0.00    +0.043 C 
ATOM     12  C   UNL     1      -1.879  -3.415  -6.721  0.00  0.00    +0.005 C 
ATOM     13  C   UNL     1      -0.802  -3.330  -5.635  0.00  0.00    +0.005 C 
ATOM     14  C   UNL     1      -1.446  -3.460  -4.254  0.00  0.00    +0.037 C 
ATOM     15  H   UNL     1      -1.403  -3.265  -2.120  0.00  0.00    +0.148 HD
ENDROOT
BRANCH   1  16
ATOM     16  C   UNL     1      -1.310  -3.502  -0.012  0.00  0.00    +0.162 C 
BRANCH  16  20
ATOM     17  C   UNL     1       0.032   1.403   0.296  0.00  0.00    +0.089 C 
ATOM     18  C   UNL     1       0.090  -0.093   0.130  0.00  0.00    +0.135 A 
ATOM     19  C   UNL     1      -0.956  -0.939   0.203  0.00  0.00    +0.072 A 
ATOM     20  C   UNL     1      -0.478  -2.245  -0.009  0.00  0.00    +0.101 A 
ATOM     21  N   UNL     1       0.809  -2.178  -0.202  0.00  0.00    -0.081 NA
ATOM     22  O   UNL     1       1.191  -0.817  -0.123  0.00  0.00    -0.360 OA
ENDBRANCH  16  20
ENDBRANCH   1  16
BRANCH   9  23
ATOM     23  C   UNL     1      -4.220  -7.510   0.339  0.00  0.00    -0.001 C 
BRANCH  23  24
ATOM     24  N   UNL     1      -3.250  -8.544   0.724  0.00  0.00    +0.384 N 
ATOM     25  C   UNL     1      -2.026  -7.915   1.282  0.00  0.00    -0.078 C 
ATOM     26  C   UNL     1      -1.395  -9.053   2.124  0.00  0.00    -0.020 C 
ATOM     27  C   UNL     1      -2.630  -9.757   2.734  0.00  0.00    -0.020 C 
ATOM     28  C   UNL     1      -3.803  -9.384   1.809  0.00  0.00    -0.078 C 
ATOM     29  H   UNL     1      -3.016  -9.116  -0.074  0.00  0.00    -0.081 HD
ENDBRANCH  23  24
ENDBRANCH   9  23
TORSDOF 4
