REMARK  Name = ZINC52427743
REMARK  3 active torsions:
REMARK  status: ('A' for Active; 'I' for Inactive)
REMARK    1  A    between atoms: C_3  and  O_25
REMARK    2  A    between atoms: C_4  and  N_8
REMARK    3  A    between atoms: C_9  and  C_11
REMARK                            x       y       z     vdW  Elec       q    Type
REMARK                         _______ _______ _______ _____ _____    ______ ____
ROOT
ATOM      1  C   UNL     1       4.959  -2.733   0.154  0.00  0.00    +0.078 C 
ATOM      2  C   UNL     1       5.797  -2.436  -1.092  0.00  0.00    +0.032 C 
ATOM      3  C   UNL     1       7.148  -3.148  -0.976  0.00  0.00    +0.107 C 
ATOM      4  N   UNL     1       6.909  -4.578  -0.737  0.00  0.00    -0.315 N 
ATOM      5  C   UNL     1       6.043  -4.972   0.382  0.00  0.00    +0.107 C 
ATOM      6  C   UNL     1       4.704  -4.239   0.251  0.00  0.00    +0.032 C 
ATOM      7  C   UNL     1       7.490  -5.536  -1.551  0.00  0.00    +0.128 A 
ATOM      8  C   UNL     1       8.473  -5.178  -2.476  0.00  0.00    +0.084 A 
ATOM      9  C   UNL     1       9.025  -6.168  -3.268  0.00  0.00    +0.136 A 
ATOM     10  N   UNL     1       8.608  -7.420  -3.126  0.00  0.00    -0.203 NA
ATOM     11  C   UNL     1       7.674  -7.729  -2.240  0.00  0.00    +0.216 A 
ATOM     12  N   UNL     1       7.124  -6.811  -1.459  0.00  0.00    -0.200 NA
ATOM     13  N   UNL     1       7.266  -9.047  -2.122  0.00  0.00    -0.327 N 
ATOM     14 CL   UNL     1      10.250  -5.778  -4.435  0.00  0.00    -0.062 Cl
ATOM     15  H   UNL     1       7.663  -9.729  -2.685  0.00  0.00    +0.145 HD
ATOM     16  H   UNL     1       6.583  -9.287  -1.477  0.00  0.00    +0.145 HD
ENDROOT
BRANCH   1  18
ATOM     17  N   UNL     1       3.620  -0.662  -0.036  0.00  0.00    -0.282 N 
ATOM     18  C   UNL     1       3.642  -2.006   0.059  0.00  0.00    +0.220 C 
ATOM     19  O   UNL     1       2.603  -2.631   0.068  0.00  0.00    -0.275 OA
ATOM     20  H   UNL     1       4.451  -0.167  -0.109  0.00  0.00    +0.155 HD
BRANCH  17  24
ATOM     21  C   UNL     1      -0.023   1.371  -0.021  0.00  0.00    +0.023 A 
ATOM     22  C   UNL     1       1.086   1.944   0.573  0.00  0.00    +0.049 A 
ATOM     23  C   UNL     1       2.298   1.273   0.571  0.00  0.00    +0.138 A 
ATOM     24  C   UNL     1       2.396   0.020  -0.031  0.00  0.00    +0.077 A 
ATOM     25  C   UNL     1       1.280  -0.549  -0.625  0.00  0.00    +0.047 A 
ATOM     26  C   UNL     1       0.073   0.127  -0.619  0.00  0.00    +0.043 A 
ATOM     27 CL   UNL     1      -1.323  -0.586  -1.364  0.00  0.00    -0.083 Cl
BRANCH  23  28
ATOM     28  O   UNL     1       3.390   1.836   1.155  0.00  0.00    -0.505 OA
ATOM     29  H   UNL     1       3.494   1.614   2.090  0.00  0.00    +0.292 HD
ENDBRANCH  23  28
ENDBRANCH  17  24
ENDBRANCH   1  18
TORSDOF 3
