REMARK  Name = ZINC14959424
REMARK  6 active torsions:
REMARK  status: ('A' for Active; 'I' for Inactive)
REMARK    1  A    between atoms: C_3  and  C_9
REMARK    2  A    between atoms: C_9  and  N_10
REMARK    3  A    between atoms: C_14  and  C_17
REMARK    4  A    between atoms: C_14  and  O_22
REMARK    5  A    between atoms: C_17  and  N_44
REMARK    6  A    between atoms: C_18  and  N_44
REMARK                            x       y       z     vdW  Elec       q    Type
REMARK                         _______ _______ _______ _____ _____    ______ ____
ROOT
ATOM      1  N   UNL     1       1.373   2.071  -0.010  0.00  0.00    -0.295 N 
ATOM      2  C   UNL     1       0.002   1.578   0.027  0.00  0.00    +0.108 C 
ATOM      3  C   UNL     1      -0.017   0.049   0.043  0.00  0.00    +0.022 C 
ATOM      4  C   UNL     1       0.923  -0.442   1.151  0.00  0.00    +0.044 C 
ATOM      5  C   UNL     1       2.360  -0.092   0.757  0.00  0.00    +0.127 C 
ATOM      6  C   UNL     1       2.438   1.347   0.333  0.00  0.00    +0.246 C 
ATOM      7  O   UNL     1       3.528   1.877   0.300  0.00  0.00    -0.273 OA
ENDROOT
BRANCH   5   8
ATOM      8  O   UNL     1       2.772  -0.929  -0.325  0.00  0.00    -0.381 OA
ATOM      9  H   UNL     1       3.675  -0.763  -0.629  0.00  0.00    +0.211 HD
ENDBRANCH   5   8
BRANCH   1  10
ATOM     10  C   UNL     1       1.594   3.450  -0.453  0.00  0.00    +0.146 C 
BRANCH  10  13
ATOM     11  C   UNL     1       2.670   5.753   2.339  0.00  0.00    +0.003 A 
ATOM     12  C   UNL     1       2.714   4.905   1.248  0.00  0.00    +0.008 A 
ATOM     13  C   UNL     1       1.545   4.374   0.737  0.00  0.00    +0.008 A 
ATOM     14  C   UNL     1       0.328   4.694   1.314  0.00  0.00    +0.163 A 
ATOM     15  C   UNL     1       0.285   5.540   2.412  0.00  0.00    +0.159 A 
ATOM     16  C   UNL     1       1.458   6.071   2.921  0.00  0.00    +0.041 A 
ATOM     17  F   UNL     1      -0.901   5.851   2.980  0.00  0.00    -0.202 F 
ATOM     18  F   UNL     1      -0.815   4.180   0.812  0.00  0.00    -0.202 F 
ENDBRANCH  10  13
ENDBRANCH   1  10
BRANCH   5  19
ATOM     19  C   UNL     1       3.285  -0.317   1.955  0.00  0.00    -0.037 C 
BRANCH  19  20
ATOM     20  N   UNL     1       3.152  -1.713   2.413  0.00  0.00    +0.383 N 
ATOM     21  H   UNL     1       3.500  -2.344   1.681  0.00  0.00    -0.085 HD
ATOM     22  H   UNL     1       2.162  -1.916   2.597  0.00  0.00    -0.085 HD
BRANCH  20  23
ATOM     23  C   UNL     1       3.930  -1.924   3.648  0.00  0.00    -0.072 C 
ATOM     24  C   UNL     1       5.201  -2.763   3.436  0.00  0.00    -0.016 C 
ATOM     25  C   UNL     1       4.872  -3.454   4.770  0.00  0.00    -0.003 C 
ATOM     26  C   UNL     1       3.402  -3.083   4.509  0.00  0.00    -0.016 C 
ENDBRANCH  20  23
ENDBRANCH  19  20
ENDBRANCH   5  19
TORSDOF 6
