REMARK  Name = ZINC30735264
REMARK  7 active torsions:
REMARK  status: ('A' for Active; 'I' for Inactive)
REMARK    1  A    between atoms: C_1  and  C_2
REMARK    2  A    between atoms: C_5  and  S_8
REMARK    3  A    between atoms: S_8  and  N_11
REMARK    4  A    between atoms: N_14  and  C_17
REMARK    5  A    between atoms: C_17  and  C_18
REMARK    6  A    between atoms: N_20  and  N_21
REMARK    7  A    between atoms: C_22  and  C_23
REMARK                            x       y       z     vdW  Elec       q    Type
REMARK                         _______ _______ _______ _____ _____    ______ ____
ROOT
ATOM      1  N   UNL     1      -1.521   3.595   1.911  0.00  0.00    -0.180 NA
ATOM      2  C   UNL     1      -0.523   3.620   0.830  0.00  0.00    +0.091 C 
ATOM      3  C   UNL     1      -1.252   3.802  -0.505  0.00  0.00    -0.061 C 
ATOM      4  N   UNL     1      -2.116   4.988  -0.430  0.00  0.00    +0.387 N 
ATOM      5  C   UNL     1      -3.163   4.820   0.586  0.00  0.00    -0.061 C 
ATOM      6  C   UNL     1      -2.514   4.679   1.966  0.00  0.00    +0.091 C 
ATOM      7  H   UNL     1      -1.489   5.840  -0.128  0.00  0.00    -0.081 HD
ENDROOT
BRANCH   1   8
ATOM      8  S   UNL     1      -1.529   2.375   3.032  0.00  0.00    +0.061 S 
ATOM      9  O   UNL     1      -2.851   2.308   3.549  0.00  0.00    -0.153 OA
ATOM     10  O   UNL     1      -0.891   1.261   2.424  0.00  0.00    -0.153 OA
BRANCH   8  15
ATOM     11  C   UNL     1       2.018   4.117   7.591  0.00  0.00    +0.044 C 
ATOM     12  C   UNL     1       1.132   3.682   6.453  0.00  0.00    -0.050 A 
ATOM     13  C   UNL     1      -0.216   3.986   6.471  0.00  0.00    +0.005 A 
ATOM     14  C   UNL     1      -1.029   3.587   5.426  0.00  0.00    +0.029 A 
ATOM     15  C   UNL     1      -0.493   2.884   4.363  0.00  0.00    +0.105 A 
ATOM     16  C   UNL     1       0.854   2.575   4.348  0.00  0.00    +0.029 A 
ATOM     17  C   UNL     1       1.668   2.978   5.390  0.00  0.00    +0.005 A 
ENDBRANCH   8  15
ENDBRANCH   1   8
BRANCH   4  18
ATOM     18  C   UNL     1      -2.700   5.297  -1.742  0.00  0.00    +0.020 C 
BRANCH  18  19
ATOM     19  C   UNL     1      -3.597   4.165  -2.173  0.00  0.00    +0.216 C 
ATOM     20  O   UNL     1      -3.786   3.225  -1.430  0.00  0.00    -0.276 OA
ATOM     21  N   UNL     1      -4.189   4.198  -3.383  0.00  0.00    -0.209 N 
ATOM     22  H   UNL     1      -4.017   5.050  -4.057  0.00  0.00    +0.177 HD
BRANCH  21  23
ATOM     23  N   UNL     1      -5.022   3.145  -3.784  0.00  0.00    -0.188 NA
ATOM     24  C   UNL     1      -5.472   3.100  -5.000  0.00  0.00    +0.138 C 
BRANCH  24  25
ATOM     25  C   UNL     1      -4.845   3.926  -6.049  0.00  0.00    -0.005 A 
ATOM     26  C   UNL     1      -5.545   4.224  -7.220  0.00  0.00    +0.010 A 
ATOM     27  C   UNL     1      -4.955   5.000  -8.195  0.00  0.00    +0.016 A 
ATOM     28  C   UNL     1      -3.666   5.476  -8.019  0.00  0.00    +0.018 A 
ATOM     29  C   UNL     1      -2.964   5.179  -6.863  0.00  0.00    +0.016 A 
ATOM     30  C   UNL     1      -3.545   4.408  -5.878  0.00  0.00    +0.010 A 
ATOM     31 BR   UNL     1      -2.862   6.534  -9.364  0.00  0.00    -0.050 Br
ENDBRANCH  24  25
ENDBRANCH  21  23
ENDBRANCH  18  19
ENDBRANCH   4  18
TORSDOF 6
