REMARK  Name = ZINC45343780
REMARK  9 active torsions:
REMARK  status: ('A' for Active; 'I' for Inactive)
REMARK    1  A    between atoms: C_1  and  C_2
REMARK    2  A    between atoms: C_2  and  C_4
REMARK    3  A    between atoms: C_2  and  N_11
REMARK    4  A    between atoms: N_11  and  C_12
REMARK    5  A    between atoms: C_12  and  C_14
REMARK    6  A    between atoms: C_12  and  C_15
REMARK    7  A    between atoms: N_17  and  C_18
REMARK    8  A    between atoms: C_21  and  S_24
REMARK    9  A    between atoms: S_24  and  N_27
REMARK                            x       y       z     vdW  Elec       q    Type
REMARK                         _______ _______ _______ _____ _____    ______ ____
ROOT
ATOM      1  C   UNL     1       0.679  -0.469  -3.636  0.00  0.00    +0.203 C 
ATOM      2  O   UNL     1       1.767  -0.997  -3.543  0.00  0.00    -0.277 OA
ATOM      3  N   UNL     1       0.158  -0.211  -4.852  0.00  0.00    -0.287 N 
ATOM      4  H   UNL     1      -0.739   0.150  -4.929  0.00  0.00    +0.155 HD
ENDROOT
BRANCH   3   5
ATOM      5  C   UNL     1       0.910  -0.465  -6.004  0.00  0.00    +0.033 A 
ATOM      6  C   UNL     1       0.800   0.373  -7.106  0.00  0.00    +0.025 A 
ATOM      7  C   UNL     1       1.544   0.120  -8.242  0.00  0.00    +0.030 A 
ATOM      8  C   UNL     1       2.399  -0.966  -8.282  0.00  0.00    +0.106 A 
ATOM      9  C   UNL     1       2.511  -1.803  -7.187  0.00  0.00    +0.030 A 
ATOM     10  C   UNL     1       1.774  -1.552  -6.046  0.00  0.00    +0.025 A 
BRANCH   8  11
ATOM     11  S   UNL     1       3.346  -1.285  -9.733  0.00  0.00    +0.061 S 
ATOM     12  O   UNL     1       3.660  -2.671  -9.717  0.00  0.00    -0.153 OA
ATOM     13  O   UNL     1       2.655  -0.673 -10.813  0.00  0.00    -0.153 OA
BRANCH  11  14
ATOM     14  N   UNL     1       4.781  -0.474  -9.569  0.00  0.00    -0.177 NA
ATOM     15  C   UNL     1       4.917   0.909 -10.046  0.00  0.00    +0.109 C 
ATOM     16  C   UNL     1       5.440   1.777  -8.897  0.00  0.00    +0.017 C 
ATOM     17  C   UNL     1       6.734   1.170  -8.352  0.00  0.00    +0.003 C 
ATOM     18  C   UNL     1       6.452  -0.232  -7.808  0.00  0.00    +0.017 C 
ATOM     19  C   UNL     1       5.939  -1.121  -8.939  0.00  0.00    +0.109 C 
ENDBRANCH  11  14
ENDBRANCH   8  11
ENDBRANCH   3   5
BRANCH   1  20
ATOM     20  C   UNL     1      -0.089  -0.099  -2.394  0.00  0.00    +0.014 C 
ATOM     21  C   UNL     1      -1.429  -0.837  -2.385  0.00  0.00    -0.004 C 
BRANCH  20  22
ATOM     22  N   UNL     1       0.688  -0.480  -1.206  0.00  0.00    +0.391 N 
ATOM     23  H   UNL     1       1.603  -0.059  -1.254  0.00  0.00    -0.084 HD
ATOM     24  H   UNL     1       0.782  -1.485  -1.174  0.00  0.00    -0.084 HD
BRANCH  22  26
ATOM     25  C   UNL     1      -0.036   1.516   0.013  0.00  0.00    -0.009 C 
ATOM     26  C   UNL     1      -0.004  -0.014   0.002  0.00  0.00    -0.043 C 
BRANCH  26  27
ATOM     27  C   UNL     1       0.727  -0.510   1.223  0.00  0.00    -0.060 A 
ATOM     28  C   UNL     1       2.109  -0.510   1.248  0.00  0.00    +0.002 A 
ATOM     29  C   UNL     1       2.781  -0.965   2.367  0.00  0.00    +0.002 A 
ATOM     30  C   UNL     1       2.070  -1.421   3.462  0.00  0.00    +0.020 A 
ATOM     31  C   UNL     1       0.687  -1.420   3.438  0.00  0.00    +0.041 A 
ATOM     32  C   UNL     1       0.016  -0.959   2.319  0.00  0.00    +0.022 A 
ATOM     33 CL   UNL     1      -0.205  -1.992   4.813  0.00  0.00    -0.084 Cl
ENDBRANCH  26  27
ENDBRANCH  22  26
ENDBRANCH  20  22
ENDBRANCH   1  20
TORSDOF 7
