REMARK  Name = ZINC59873553
REMARK  7 active torsions:
REMARK  status: ('A' for Active; 'I' for Inactive)
REMARK    1  A    between atoms: C_1  and  C_2
REMARK    2  A    between atoms: C_2  and  C_3
REMARK    3  A    between atoms: C_3  and  C_5
REMARK    4  A    between atoms: C_3  and  C_6
REMARK    5  A    between atoms: C_6  and  C_8
REMARK    6  A    between atoms: C_6  and  N_21
REMARK    7  A    between atoms: C_8  and  N_10
REMARK                            x       y       z     vdW  Elec       q    Type
REMARK                         _______ _______ _______ _____ _____    ______ ____
ROOT
ATOM      1  C   UNL     1       0.844  -2.004  -1.197  0.00  0.00    +0.163 C 
ENDROOT
BRANCH   1   2
ATOM      2  N   UNL     1      -0.495  -2.593  -1.119  0.00  0.00    -0.316 N 
ATOM      3  C   UNL     1      -1.215  -2.821  -2.272  0.00  0.00    +0.150 C 
ATOM      4  N   UNL     1      -0.714  -2.522  -3.428  0.00  0.00    -0.113 NA
ATOM      5  S   UNL     1      -1.877  -2.944  -4.554  0.00  0.00    +0.101 S 
ATOM      6  O   UNL     1      -1.374  -4.040  -5.306  0.00  0.00    -0.146 OA
ATOM      7  O   UNL     1      -2.363  -1.746  -5.144  0.00  0.00    -0.146 OA
ATOM      8  C   UNL     1      -3.136  -3.564  -3.473  0.00  0.00    +0.123 A 
ATOM      9  C   UNL     1      -2.561  -3.413  -2.203  0.00  0.00    +0.043 A 
ATOM     10  C   UNL     1      -3.319  -3.825  -1.097  0.00  0.00    +0.013 A 
ATOM     11  C   UNL     1      -4.575  -4.359  -1.276  0.00  0.00    +0.001 A 
ATOM     12  C   UNL     1      -5.115  -4.501  -2.542  0.00  0.00    +0.002 A 
ATOM     13  C   UNL     1      -4.383  -4.090  -3.647  0.00  0.00    +0.030 A 
ATOM     14  H   UNL     1      -0.875  -2.822  -0.257  0.00  0.00    +0.148 HD
ENDBRANCH   1   2
BRANCH   1  15
ATOM     15  C   UNL     1       0.728  -0.479  -1.252  0.00  0.00    +0.015 C 
ATOM     16  C   UNL     1      -0.081  -0.073  -2.486  0.00  0.00    +0.010 C 
BRANCH  15  18
ATOM     17  C   UNL     1       0.015   1.554   0.014  0.00  0.00    +0.004 C 
ATOM     18  C   UNL     1       0.021   0.024   0.009  0.00  0.00    +0.002 C 
ENDBRANCH  15  18
ENDBRANCH   1  15
BRANCH   1  19
ATOM     19  C   UNL     1       1.640  -2.404   0.018  0.00  0.00    +0.260 C 
ATOM     20  O   UNL     1       1.137  -3.113   0.868  0.00  0.00    -0.272 OA
BRANCH  19  21
ATOM     21  N   UNL     1       2.892  -1.981   0.162  0.00  0.00    -0.145 NA
ATOM     22  C   UNL     1       3.560  -2.246   1.281  0.00  0.00    +0.198 A 
ATOM     23  N   UNL     1       3.115  -3.033   2.296  0.00  0.00    -0.326 N 
ATOM     24  H   UNL     1       2.261  -3.494   2.325  0.00  0.00    +0.169 HD
ATOM     25  C   UNL     1       4.093  -3.066   3.284  0.00  0.00    +0.065 A 
ATOM     26  C   UNL     1       4.174  -3.699   4.516  0.00  0.00    +0.028 A 
ATOM     27  C   UNL     1       5.301  -3.541   5.298  0.00  0.00    +0.002 A 
ATOM     28  C   UNL     1       6.351  -2.754   4.858  0.00  0.00    +0.002 A 
ATOM     29  C   UNL     1       6.280  -2.119   3.634  0.00  0.00    +0.028 A 
ATOM     30  C   UNL     1       5.152  -2.271   2.840  0.00  0.00    +0.065 A 
ATOM     31  N   UNL     1       4.798  -1.777   1.589  0.00  0.00    -0.326 N 
ATOM     32  H   UNL     1       5.340  -1.196   1.033  0.00  0.00    +0.169 HD
ENDBRANCH  19  21
ENDBRANCH   1  19
TORSDOF 5
