REMARK  Name = ZINC37331466
REMARK  6 active torsions:
REMARK  status: ('A' for Active; 'I' for Inactive)
REMARK    1  A    between atoms: C_1  and  C_2
REMARK    2  A    between atoms: N_11  and  C_12
REMARK    3  A    between atoms: C_12  and  C_13
REMARK    4  A    between atoms: C_13  and  C_15
REMARK    5  A    between atoms: C_18  and  O_22
REMARK    6  A    between atoms: C_20  and  O_21
REMARK                            x       y       z     vdW  Elec       q    Type
REMARK                         _______ _______ _______ _____ _____    ______ ____
ROOT
ATOM      1  C   UNL     1      -0.561  -1.363   3.031  0.00  0.00    +0.184 C 
ATOM      2  O   UNL     1      -0.876  -2.256   2.274  0.00  0.00    -0.290 OA
ENDROOT
BRANCH   1   3
ATOM      3  C   UNL     1      -1.077  -1.348   4.402  0.00  0.00    +0.061 A 
ATOM      4  C   UNL     1      -0.719  -0.314   5.278  0.00  0.00    +0.018 A 
ATOM      5  C   UNL     1      -1.201  -0.302   6.555  0.00  0.00    +0.046 A 
ATOM      6  C   UNL     1      -2.050  -1.314   6.997  0.00  0.00    +0.120 A 
ATOM      7  C   UNL     1      -2.416  -2.345   6.143  0.00  0.00    +0.091 A 
ATOM      8  C   UNL     1      -1.939  -2.368   4.844  0.00  0.00    +0.131 A 
BRANCH   8   9
ATOM      9  O   UNL     1      -2.297  -3.370   4.004  0.00  0.00    -0.506 OA
ATOM     10  H   UNL     1      -1.704  -4.133   4.027  0.00  0.00    +0.292 HD
ENDBRANCH   8   9
BRANCH   6  11
ATOM     11  O   UNL     1      -2.522  -1.291   8.268  0.00  0.00    -0.507 OA
ATOM     12  H   UNL     1      -3.358  -0.815   8.369  0.00  0.00    +0.292 HD
ENDBRANCH   6  11
ENDBRANCH   1   3
BRANCH   1  13
ATOM     13  C   UNL     1       0.363  -0.268   2.562  0.00  0.00    +0.185 C 
BRANCH  13  23
ATOM     14  C   UNL     1      -0.019   1.526   0.010  0.00  0.00    +0.028 C 
ATOM     15  C   UNL     1       0.002  -0.004   0.002  0.00  0.00    +0.075 C 
ATOM     16  C   UNL     1       0.778  -0.520  -1.221  0.00  0.00    +0.059 C 
ATOM     17  C   UNL     1       1.931  -1.304  -0.635  0.00  0.00    -0.025 A 
ATOM     18  C   UNL     1       2.960  -1.995  -1.246  0.00  0.00    +0.005 A 
ATOM     19  C   UNL     1       3.911  -2.644  -0.481  0.00  0.00    +0.000 A 
ATOM     20  C   UNL     1       3.831  -2.599   0.899  0.00  0.00    +0.002 A 
ATOM     21  C   UNL     1       2.807  -1.911   1.513  0.00  0.00    +0.023 A 
ATOM     22  C   UNL     1       1.842  -1.253   0.747  0.00  0.00    +0.034 A 
ATOM     23  N   UNL     1       0.735  -0.509   1.166  0.00  0.00    -0.319 N 
ENDBRANCH  13  23
ENDBRANCH   1  13
TORSDOF 5
