REMARK  Name = ZINC38685520
REMARK  15 active torsions:
REMARK  status: ('A' for Active; 'I' for Inactive)
REMARK    1  A    between atoms: C_1  and  C_2
REMARK    2  A    between atoms: C_2  and  C_3
REMARK    3  A    between atoms: C_3  and  C_4
REMARK    4  A    between atoms: C_4  and  C_5
REMARK    5  A    between atoms: C_5  and  O_6
REMARK    6  A    between atoms: O_6  and  C_7
REMARK    7  A    between atoms: C_10  and  C_13
REMARK    8  A    between atoms: C_18  and  O_27
REMARK    9  A    between atoms: C_22  and  N_26
REMARK   10  A    between atoms: C_23  and  C_24
REMARK   11  A    between atoms: O_27  and  C_28
REMARK   12  A    between atoms: C_28  and  C_30
REMARK   13  A    between atoms: C_35  and  O_36
REMARK   14  A    between atoms: O_36  and  C_37
REMARK   15  A    between atoms: C_37  and  C_38
REMARK                            x       y       z     vdW  Elec       q    Type
REMARK                         _______ _______ _______ _____ _____    ______ ____
ROOT
ATOM      1  C   UNL     1       3.935  -6.398  -6.917  0.00  0.00    +0.098 C 
ATOM      2  C   UNL     1       2.944  -7.270  -7.641  0.00  0.00    +0.008 A 
ATOM      3  C   UNL     1       1.944  -6.681  -8.395  0.00  0.00    +0.012 A 
ATOM      4  C   UNL     1       1.026  -7.464  -9.067  0.00  0.00    +0.047 A 
ATOM      5  C   UNL     1       1.105  -8.848  -8.987  0.00  0.00    +0.135 A 
ATOM      6  C   UNL     1       2.104  -9.440  -8.233  0.00  0.00    +0.093 A 
ATOM      7  C   UNL     1       3.027  -8.651  -7.558  0.00  0.00    +0.138 A 
ATOM      8  O   UNL     1       3.999  -9.246  -6.824  0.00  0.00    -0.441 OA
ATOM      9  C   UNL     1       5.104  -8.557  -6.491  0.00  0.00    +0.199 C 
ATOM     10  C   UNL     1       5.136  -7.207  -6.514  0.00  0.00    +0.098 C 
ENDROOT
BRANCH   1  14
ATOM     11  C   UNL     1       2.094  -4.764  -3.424  0.00  0.00    +0.121 A 
ATOM     12  C   UNL     1       2.579  -3.920  -4.413  0.00  0.00    +0.046 A 
ATOM     13  C   UNL     1       3.174  -4.451  -5.541  0.00  0.00    +0.008 A 
ATOM     14  C   UNL     1       3.286  -5.822  -5.685  0.00  0.00    -0.034 A 
ATOM     15  C   UNL     1       2.803  -6.664  -4.701  0.00  0.00    +0.008 A 
ATOM     16  C   UNL     1       2.213  -6.138  -3.568  0.00  0.00    +0.046 A 
BRANCH  11  17
ATOM     17  O   UNL     1       1.508  -4.244  -2.313  0.00  0.00    -0.492 OA
BRANCH  17  18
ATOM     18  C   UNL     1       1.420  -2.820  -2.232  0.00  0.00    +0.229 C 
BRANCH  18  19
ATOM     19  C   UNL     1       0.737  -2.425  -0.922  0.00  0.00    +0.041 C 
BRANCH  19  20
ATOM     20  C   UNL     1       0.643  -0.900  -0.835  0.00  0.00    +0.003 C 
BRANCH  20  22
ATOM     21  C   UNL     1      -0.135   1.020   0.562  0.00  0.00    +0.004 C 
ATOM     22  C   UNL     1      -0.041  -0.505   0.475  0.00  0.00    -0.003 C 
ENDBRANCH  20  22
ENDBRANCH  19  20
ENDBRANCH  18  19
ENDBRANCH  17  18
ENDBRANCH  11  17
ENDBRANCH   1  14
BRANCH   9  23
ATOM     23  N   UNL     1       6.230  -9.246  -6.116  0.00  0.00    -0.328 N 
ATOM     24  H   UNL     1       6.221 -10.216  -6.094  0.00  0.00    +0.145 HD
ATOM     25  H   UNL     1       7.035  -8.763  -5.873  0.00  0.00    +0.145 HD
ENDBRANCH   9  23
BRANCH  10  26
ATOM     26  C   UNL     1       6.345  -6.533  -6.147  0.00  0.00    +0.101 C 
ATOM     27  N   UNL     1       7.304  -5.998  -5.855  0.00  0.00    -0.191 NA
ENDBRANCH  10  26
BRANCH   5  28
ATOM     28  O   UNL     1       0.202  -9.620  -9.648  0.00  0.00    -0.422 OA
BRANCH  28  29
ATOM     29  C   UNL     1       0.258  -9.647 -10.994  0.00  0.00    +0.348 C 
ATOM     30  O   UNL     1       1.160  -9.078 -11.576  0.00  0.00    -0.244 OA
BRANCH  29  31
ATOM     31  C   UNL     1      -0.776 -10.367 -11.760  0.00  0.00    +0.101 A 
ATOM     32  C   UNL     1      -1.818 -11.018 -11.094  0.00  0.00    +0.018 A 
ATOM     33  C   UNL     1      -2.781 -11.688 -11.816  0.00  0.00    +0.001 A 
ATOM     34  C   UNL     1      -2.721 -11.722 -13.200  0.00  0.00    +0.004 A 
ATOM     35  C   UNL     1      -1.697 -11.083 -13.870  0.00  0.00    +0.046 A 
ATOM     36  C   UNL     1      -0.722 -10.397 -13.160  0.00  0.00    +0.134 A 
BRANCH  36  37
ATOM     37  O   UNL     1       0.281  -9.765 -13.818  0.00  0.00    -0.491 OA
BRANCH  37  38
ATOM     38  C   UNL     1       0.270  -9.839 -15.245  0.00  0.00    +0.226 C 
ATOM     39  C   UNL     1       1.470  -9.073 -15.805  0.00  0.00    +0.048 C 
ENDBRANCH  37  38
ENDBRANCH  36  37
ENDBRANCH  29  31
ENDBRANCH  28  29
ENDBRANCH   5  28
TORSDOF 13
