REMARK  Name = ZINC38683881
REMARK  14 active torsions:
REMARK  status: ('A' for Active; 'I' for Inactive)
REMARK    1  A    between atoms: C_1  and  C_2
REMARK    2  A    between atoms: C_2  and  C_3
REMARK    3  A    between atoms: C_3  and  O_4
REMARK    4  A    between atoms: O_4  and  C_5
REMARK    5  A    between atoms: C_8  and  C_14
REMARK    6  A    between atoms: C_10  and  O_11
REMARK    7  A    between atoms: O_11  and  C_12
REMARK    8  A    between atoms: C_12  and  C_13
REMARK    9  A    between atoms: C_19  and  O_28
REMARK   10  A    between atoms: C_23  and  N_27
REMARK   11  A    between atoms: C_24  and  C_25
REMARK   12  A    between atoms: O_28  and  C_29
REMARK   13  A    between atoms: C_29  and  C_31
REMARK   14  A    between atoms: C_36  and  N_37
REMARK                            x       y       z     vdW  Elec       q    Type
REMARK                         _______ _______ _______ _____ _____    ______ ____
ROOT
ATOM      1  C   UNL     1       3.262  -4.254   5.423  0.00  0.00    +0.098 C 
ATOM      2  C   UNL     1       4.714  -3.861   5.481  0.00  0.00    +0.008 A 
ATOM      3  C   UNL     1       5.616  -4.457   4.617  0.00  0.00    +0.012 A 
ATOM      4  C   UNL     1       6.951  -4.108   4.656  0.00  0.00    +0.047 A 
ATOM      5  C   UNL     1       7.394  -3.156   5.564  0.00  0.00    +0.135 A 
ATOM      6  C   UNL     1       6.494  -2.557   6.430  0.00  0.00    +0.093 A 
ATOM      7  C   UNL     1       5.150  -2.909   6.389  0.00  0.00    +0.138 A 
ATOM      8  O   UNL     1       4.282  -2.313   7.243  0.00  0.00    -0.441 OA
ATOM      9  C   UNL     1       3.094  -2.885   7.498  0.00  0.00    +0.199 C 
ATOM     10  C   UNL     1       2.557  -3.812   6.674  0.00  0.00    +0.098 C 
ENDROOT
BRANCH   1  14
ATOM     11  C   UNL     1       1.428  -2.399   2.034  0.00  0.00    +0.162 A 
ATOM     12  C   UNL     1       1.997  -1.622   3.030  0.00  0.00    +0.050 A 
ATOM     13  C   UNL     1       2.589  -2.224   4.124  0.00  0.00    +0.008 A 
ATOM     14  C   UNL     1       2.615  -3.603   4.228  0.00  0.00    -0.031 A 
ATOM     15  C   UNL     1       2.049  -4.384   3.239  0.00  0.00    +0.054 A 
ATOM     16  C   UNL     1       1.449  -3.787   2.142  0.00  0.00    +0.162 A 
BRANCH  11  17
ATOM     17  O   UNL     1       0.845  -1.808   0.957  0.00  0.00    -0.488 OA
BRANCH  17  18
ATOM     18  C   UNL     1       0.861  -0.380   0.914  0.00  0.00    +0.229 C 
BRANCH  18  20
ATOM     19  C   UNL     1       0.181   1.628  -0.408  0.00  0.00    +0.007 C 
ATOM     20  C   UNL     1       0.164   0.099  -0.362  0.00  0.00    +0.038 C 
ENDBRANCH  18  20
ENDBRANCH  17  18
ENDBRANCH  11  17
BRANCH  16  21
ATOM     21  O   UNL     1       0.887  -4.554   1.170  0.00  0.00    -0.489 OA
BRANCH  21  22
ATOM     22  C   UNL     1       0.946  -5.971   1.347  0.00  0.00    +0.226 C 
ATOM     23  C   UNL     1       0.267  -6.661   0.163  0.00  0.00    +0.048 C 
ENDBRANCH  21  22
ENDBRANCH  16  21
ENDBRANCH   1  14
BRANCH   9  24
ATOM     24  N   UNL     1       2.406  -2.518   8.628  0.00  0.00    -0.328 N 
ATOM     25  H   UNL     1       2.780  -1.854   9.229  0.00  0.00    +0.145 HD
ATOM     26  H   UNL     1       1.547  -2.922   8.826  0.00  0.00    +0.145 HD
ENDBRANCH   9  24
BRANCH  10  27
ATOM     27  C   UNL     1       1.285  -4.383   7.003  0.00  0.00    +0.101 C 
ATOM     28  N   UNL     1       0.277  -4.836   7.263  0.00  0.00    -0.191 NA
ENDBRANCH  10  27
BRANCH   5  29
ATOM     29  O   UNL     1       8.708  -2.812   5.603  0.00  0.00    -0.422 OA
BRANCH  29  30
ATOM     30  C   UNL     1       9.228  -2.177   4.535  0.00  0.00    +0.347 C 
ATOM     31  O   UNL     1       8.507  -1.845   3.615  0.00  0.00    -0.244 OA
BRANCH  30  32
ATOM     32  C   UNL     1      10.675  -1.885   4.482  0.00  0.00    +0.089 A 
ATOM     33  C   UNL     1      11.285  -1.171   5.515  0.00  0.00    +0.017 A 
ATOM     34  C   UNL     1      12.636  -0.901   5.459  0.00  0.00    +0.001 A 
ATOM     35  C   UNL     1      13.388  -1.337   4.382  0.00  0.00    +0.002 A 
ATOM     36  C   UNL     1      12.790  -2.045   3.354  0.00  0.00    +0.033 A 
ATOM     37  C   UNL     1      11.440  -2.326   3.401  0.00  0.00    +0.140 A 
BRANCH  37  38
ATOM     38  N   UNL     1      10.804  -3.090   2.304  0.00  0.00    +0.057 N 
ATOM     39  O   UNL     1      11.436  -3.361   1.310  0.00  0.00    -0.126 OA
ATOM     40  O   UNL     1       9.651  -3.441   2.401  0.00  0.00    -0.126 OA
ENDBRANCH  37  38
ENDBRANCH  30  32
ENDBRANCH  29  30
ENDBRANCH   5  29
TORSDOF 12
