REMARK  Name = ZINC39992778
REMARK  9 active torsions:
REMARK  status: ('A' for Active; 'I' for Inactive)
REMARK    1  A    between atoms: C_1  and  C_2
REMARK    2  A    between atoms: C_2  and  C_3
REMARK    3  A    between atoms: C_3  and  N_4
REMARK    4  A    between atoms: C_5  and  C_7
REMARK    5  A    between atoms: C_11  and  N_12
REMARK    6  A    between atoms: C_13  and  C_15
REMARK    7  A    between atoms: C_15  and  C_29
REMARK    8  A    between atoms: C_16  and  C_17
REMARK    9  A    between atoms: C_20  and  C_22
REMARK                            x       y       z     vdW  Elec       q    Type
REMARK                         _______ _______ _______ _____ _____    ______ ____
ROOT
ATOM      1  N   UNL     1      -2.573  -4.374  -2.477  0.00  0.00    -0.275 N 
ATOM      2  C   UNL     1      -2.572  -5.223  -3.523  0.00  0.00    +0.259 C 
ATOM      3  O   UNL     1      -2.554  -6.425  -3.333  0.00  0.00    -0.269 OA
ATOM      4  H   UNL     1      -2.588  -3.417  -2.629  0.00  0.00    +0.156 HD
ENDROOT
BRANCH   1   9
ATOM      5  C   UNL     1      -2.551  -4.154   0.004  0.00  0.00    +0.069 A 
ATOM      6  C   UNL     1      -2.535  -4.917   1.240  0.00  0.00    -0.023 A 
ATOM      7  C   UNL     1      -2.518  -6.256   1.062  0.00  0.00    -0.004 A 
ATOM      8  S   UNL     1      -2.524  -6.476  -0.693  0.00  0.00    -0.077 S 
ATOM      9  C   UNL     1      -2.554  -4.870  -1.183  0.00  0.00    +0.085 A 
ATOM     10  C   UNL     1      -2.497  -7.305   2.130  0.00  0.00    +0.043 C 
ATOM     11  C   UNL     1      -2.117  -6.634   3.458  0.00  0.00    +0.005 C 
ATOM     12  C   UNL     1      -2.970  -5.374   3.638  0.00  0.00    +0.005 C 
ATOM     13  C   UNL     1      -2.537  -4.305   2.632  0.00  0.00    +0.037 C 
BRANCH   5  15
ATOM     14  N   UNL     1      -1.413  -1.998   0.005  0.00  0.00    -0.311 N 
ATOM     15  C   UNL     1      -2.571  -2.688   0.012  0.00  0.00    +0.247 C 
ATOM     16  O   UNL     1      -3.634  -2.094   0.025  0.00  0.00    -0.270 OA
ATOM     17  H   UNL     1      -0.567  -2.472  -0.006  0.00  0.00    +0.149 HD
BRANCH  14  18
ATOM     18  C   UNL     1      -1.433  -0.534   0.013  0.00  0.00    +0.104 C 
BRANCH  18  20
ATOM     19  C   UNL     1      -0.019   1.526   0.010  0.00  0.00    +0.005 C 
ATOM     20  C   UNL     1       0.002  -0.004   0.002  0.00  0.00    +0.015 C 
ENDBRANCH  18  20
ENDBRANCH  14  18
ENDBRANCH   5  15
ENDBRANCH   1   9
BRANCH   2  21
ATOM     21  C   UNL     1      -2.593  -4.698  -4.893  0.00  0.00    +0.117 C 
ATOM     22  C   UNL     1      -2.592  -5.573  -5.972  0.00  0.00    +0.070 C 
BRANCH  22  23
ATOM     23  C   UNL     1      -2.611  -5.070  -7.283  0.00  0.00    +0.130 A 
ATOM     24  C   UNL     1      -2.618  -5.829  -8.445  0.00  0.00    +0.050 A 
ATOM     25  C   UNL     1      -2.639  -4.931  -9.511  0.00  0.00    +0.050 A 
ATOM     26  C   UNL     1      -2.644  -3.662  -8.971  0.00  0.00    +0.136 A 
ATOM     27  O   UNL     1      -2.633  -3.766  -7.631  0.00  0.00    -0.455 OA
BRANCH  26  28
ATOM     28  C   UNL     1      -2.665  -2.401  -9.736  0.00  0.00    +0.017 A 
ATOM     29  C   UNL     1      -2.687  -2.428 -11.133  0.00  0.00    +0.013 A 
ATOM     30  C   UNL     1      -2.705  -1.246 -11.843  0.00  0.00    +0.021 A 
ATOM     31  C   UNL     1      -2.702  -0.033 -11.173  0.00  0.00    +0.041 A 
ATOM     32  C   UNL     1      -2.681   0.001  -9.789  0.00  0.00    +0.021 A 
ATOM     33  C   UNL     1      -2.668  -1.174  -9.067  0.00  0.00    +0.013 A 
ATOM     34 CL   UNL     1      -2.725   1.451 -12.074  0.00  0.00    -0.084 Cl
ENDBRANCH  26  28
ENDBRANCH  22  23
BRANCH  21  35
ATOM     35  C   UNL     1      -2.615  -3.284  -5.118  0.00  0.00    +0.104 C 
ATOM     36  N   UNL     1      -2.632  -2.162  -5.296  0.00  0.00    -0.191 NA
ENDBRANCH  21  35
ENDBRANCH   2  21
TORSDOF 8
