REMARK  Name = ZINC01234638
REMARK  7 active torsions:
REMARK  status: ('A' for Active; 'I' for Inactive)
REMARK    1  A    between atoms: C_1  and  C_2
REMARK    2  A    between atoms: C_4  and  O_9
REMARK    3  A    between atoms: O_9  and  C_10
REMARK    4  A    between atoms: C_10  and  C_11
REMARK    5  A    between atoms: N_13  and  N_14
REMARK    6  A    between atoms: C_15  and  C_16
REMARK    7  A    between atoms: C_15  and  C_17
REMARK                            x       y       z     vdW  Elec       q    Type
REMARK                         _______ _______ _______ _____ _____    ______ ____
ROOT
ATOM      1  C   UNL     1      -3.534   2.079   0.030  0.00  0.00    +0.270 C 
ATOM      2  O   UNL     1      -3.550   3.292   0.037  0.00  0.00    -0.270 OA
ATOM      3  N   UNL     1      -2.357   1.421   0.021  0.00  0.00    -0.204 N 
ATOM      4  H   UNL     1      -2.344   0.451   0.016  0.00  0.00    +0.177 HD
ENDROOT
BRANCH   3   5
ATOM      5  N   UNL     1      -1.154   2.138   0.019  0.00  0.00    -0.184 NA
ATOM      6  C   UNL     1      -0.018   1.503   0.010  0.00  0.00    +0.070 C 
ATOM      7  C   UNL     1       0.002  -0.004   0.002  0.00  0.00    +0.068 C 
BRANCH   6   8
ATOM      8  C   UNL     1       1.241   2.253   0.002  0.00  0.00    +0.036 A 
ATOM      9  C   UNL     1       1.441   3.623   0.002  0.00  0.00    +0.018 A 
ATOM     10  C   UNL     1       2.733   4.095  -0.002  0.00  0.00    +0.023 A 
ATOM     11  C   UNL     1       3.764   3.209  -0.017  0.00  0.00    +0.055 A 
ATOM     12  S   UNL     1       2.917   1.638  -0.018  0.00  0.00    -0.080 S 
ATOM     13 BR   UNL     1       5.624   3.554  -0.034  0.00  0.00    -0.043 Br
ENDBRANCH   6   8
ENDBRANCH   3   5
BRANCH   1  14
ATOM     14  C   UNL     1      -4.828   1.308   0.032  0.00  0.00    +0.326 C 
BRANCH  14  15
ATOM     15  O   UNL     1      -5.927   2.221   0.042  0.00  0.00    -0.483 OA
BRANCH  15  19
ATOM     16  C   UNL     1     -10.765   2.867   0.069  0.00  0.00    +0.045 C 
ATOM     17  C   UNL     1      -9.556   1.967   0.058  0.00  0.00    -0.029 A 
ATOM     18  C   UNL     1      -8.288   2.514   0.055  0.00  0.00    +0.050 A 
ATOM     19  C   UNL     1      -7.176   1.685   0.045  0.00  0.00    +0.122 A 
ATOM     20  C   UNL     1      -7.340   0.307   0.033  0.00  0.00    +0.047 A 
ATOM     21  C   UNL     1      -8.610  -0.236   0.041  0.00  0.00    +0.024 A 
ATOM     22  C   UNL     1      -9.718   0.593   0.050  0.00  0.00    +0.044 A 
ATOM     23 CL   UNL     1     -11.313  -0.093   0.054  0.00  0.00    -0.083 Cl
ENDBRANCH  15  19
ENDBRANCH  14  15
ENDBRANCH   1  14
TORSDOF 5
