REMARK  Name = ZINC09436200
REMARK  14 active torsions:
REMARK  status: ('A' for Active; 'I' for Inactive)
REMARK    1  A    between atoms: C_1  and  C_2
REMARK    2  A    between atoms: C_2  and  N_64
REMARK    3  A    between atoms: C_3  and  C_4
REMARK    4  A    between atoms: C_3  and  N_64
REMARK    5  A    between atoms: C_5  and  C_6
REMARK    6  A    between atoms: C_5  and  N_64
REMARK    7  A    between atoms: C_6  and  N_7
REMARK    8  A    between atoms: C_8  and  C_27
REMARK    9  A    between atoms: C_11  and  C_12
REMARK   10  A    between atoms: C_11  and  O_22
REMARK   11  A    between atoms: C_15  and  O_18
REMARK   12  A    between atoms: O_18  and  C_19
REMARK   13  A    between atoms: C_19  and  C_20
REMARK   14  A    between atoms: C_19  and  C_21
REMARK                            x       y       z     vdW  Elec       q    Type
REMARK                         _______ _______ _______ _____ _____    ______ ____
ROOT
ATOM      1  N   UNL     1      -3.180   3.816   0.946  0.00  0.00    -0.285 N 
ATOM      2  C   UNL     1      -3.416   2.391   0.696  0.00  0.00    +0.144 C 
ATOM      3  C   UNL     1      -2.058   1.755   0.503  0.00  0.00    +0.071 C 
ATOM      4  C   UNL     1      -1.794   0.424   0.245  0.00  0.00    +0.133 C 
ATOM      5  C   UNL     1      -1.120   2.791   0.632  0.00  0.00    +0.249 C 
ATOM      6  O   UNL     1       0.088   2.675   0.536  0.00  0.00    -0.282 OA
ATOM      7  C   UNL     1      -1.858   4.053   0.906  0.00  0.00    +0.288 C 
ATOM      8  O   UNL     1      -1.341   5.139   1.071  0.00  0.00    -0.266 OA
ENDROOT
BRANCH   2   9
ATOM      9  C   UNL     1      -4.112   1.771   1.880  0.00  0.00    -0.022 A 
ATOM     10  C   UNL     1      -3.762   2.148   3.163  0.00  0.00    +0.007 A 
ATOM     11  C   UNL     1      -4.405   1.584   4.249  0.00  0.00    +0.020 A 
ATOM     12  C   UNL     1      -5.391   0.634   4.052  0.00  0.00    +0.041 A 
ATOM     13  C   UNL     1      -5.737   0.253   2.768  0.00  0.00    +0.020 A 
ATOM     14  C   UNL     1      -5.097   0.822   1.682  0.00  0.00    +0.007 A 
ATOM     15 CL   UNL     1      -6.193  -0.080   5.415  0.00  0.00    -0.084 Cl
ENDBRANCH   2   9
BRANCH   4  16
ATOM     16  C   UNL     1      -0.413  -0.019   0.004  0.00  0.00    +0.017 A 
ATOM     17  C   UNL     1       0.355   0.588  -0.997  0.00  0.00    +0.015 A 
ATOM     18  C   UNL     1       1.645   0.167  -1.222  0.00  0.00    +0.046 A 
ATOM     19  C   UNL     1       2.187  -0.861  -0.458  0.00  0.00    +0.121 A 
ATOM     20  C   UNL     1       1.429  -1.467   0.538  0.00  0.00    +0.046 A 
ATOM     21  C   UNL     1       0.138  -1.053   0.771  0.00  0.00    +0.015 A 
BRANCH  19  22
ATOM     22  O   UNL     1       3.460  -1.272  -0.683  0.00  0.00    -0.489 OA
BRANCH  22  23
ATOM     23  C   UNL     1       3.996  -2.247   0.214  0.00  0.00    +0.167 C 
ATOM     24  C   UNL     1       3.572  -3.645  -0.239  0.00  0.00    +0.051 C 
ATOM     25  C   UNL     1       5.523  -2.152   0.217  0.00  0.00    +0.051 C 
ENDBRANCH  22  23
ENDBRANCH  19  22
ENDBRANCH   4  16
BRANCH   4  26
ATOM     26  O   UNL     1      -2.805  -0.471   0.215  0.00  0.00    -0.506 OA
ATOM     27  H   UNL     1      -2.439  -1.380   0.017  0.00  0.00    +0.292 HD
ENDBRANCH   4  26
BRANCH   1  28
ATOM     28  C   UNL     1      -4.218   4.820   1.192  0.00  0.00    +0.090 C 
BRANCH  28  29
ATOM     29  C   UNL     1      -4.667   5.426  -0.139  0.00  0.00    -0.060 C 
BRANCH  29  30
ATOM     30  N   UNL     1      -5.698   6.451   0.127  0.00  0.00    +0.380 N 
ATOM     31  H   UNL     1      -5.343   7.104   0.836  0.00  0.00    -0.082 HD
BRANCH  30  33
ATOM     32  C   UNL     1      -4.843   8.171  -1.386  0.00  0.00    -0.017 C 
ATOM     33  C   UNL     1      -5.995   7.202  -1.111  0.00  0.00    -0.082 C 
ENDBRANCH  30  33
BRANCH  30  34
ATOM     34  C   UNL     1      -6.928   5.810   0.637  0.00  0.00    -0.082 C 
ATOM     35  C   UNL     1      -7.825   6.887   1.251  0.00  0.00    -0.017 C 
ENDBRANCH  30  34
ENDBRANCH  29  30
ENDBRANCH  28  29
ENDBRANCH   1  28
TORSDOF 10
