REMARK  Name = ZINC43713273
REMARK  5 active torsions:
REMARK  status: ('A' for Active; 'I' for Inactive)
REMARK    1  A    between atoms: C_8  and  C_10
REMARK    2  A    between atoms: C_13  and  C_15
REMARK    3  A    between atoms: C_15  and  N_16
REMARK    4  A    between atoms: N_19  and  C_20
REMARK    5  A    between atoms: C_23  and  C_26
REMARK                            x       y       z     vdW  Elec       q    Type
REMARK                         _______ _______ _______ _____ _____    ______ ____
ROOT
ATOM      1  N   UNL     1       2.042  -8.048   1.307  0.00  0.00    -0.292 N 
ATOM      2  C   UNL     1       1.511  -9.263   1.546  0.00  0.00    +0.304 C 
ATOM      3  O   UNL     1       1.185  -9.978   0.618  0.00  0.00    -0.252 OA
ATOM      4  N   UNL     1       1.342  -9.687   2.814  0.00  0.00    -0.269 N 
ATOM      5  H   UNL     1       2.301  -7.478   2.047  0.00  0.00    +0.151 HD
ATOM      6  H   UNL     1       1.662  -9.146   3.553  0.00  0.00    +0.156 HD
ENDROOT
BRANCH   4   7
ATOM      7  C   UNL     1       0.705 -10.902   3.064  0.00  0.00    +0.035 A 
ATOM      8  C   UNL     1       0.888 -11.973   2.195  0.00  0.00    +0.024 A 
ATOM      9  C   UNL     1       0.262 -13.175   2.439  0.00  0.00    +0.015 A 
ATOM     10  C   UNL     1      -0.558 -13.318   3.561  0.00  0.00    +0.037 A 
ATOM     11  C   UNL     1      -0.740 -12.240   4.432  0.00  0.00    +0.015 A 
ATOM     12  C   UNL     1      -0.106 -11.043   4.185  0.00  0.00    +0.024 A 
BRANCH  10  13
ATOM     13  C   UNL     1      -1.232 -14.604   3.826  0.00  0.00    +0.242 C 
ATOM     14  O   UNL     1      -1.074 -15.540   3.067  0.00  0.00    -0.270 OA
ATOM     15  N   UNL     1      -2.023 -14.740   4.908  0.00  0.00    -0.325 N 
ATOM     16  H   UNL     1      -2.149 -13.993   5.514  0.00  0.00    +0.145 HD
ATOM     17  H   UNL     1      -2.466 -15.586   5.082  0.00  0.00    +0.145 HD
ENDBRANCH  10  13
ENDBRANCH   4   7
BRANCH   1  18
ATOM     18  C   UNL     1       2.226  -7.587  -0.072  0.00  0.00    +0.180 C 
BRANCH  18  22
ATOM     19  C   UNL     1       3.013  -4.020  -0.046  0.00  0.00    +0.160 A 
ATOM     20  C   UNL     1       4.278  -4.528  -0.061  0.00  0.00    +0.052 A 
ATOM     21  C   UNL     1       4.152  -5.929  -0.073  0.00  0.00    +0.047 A 
ATOM     22  C   UNL     1       2.832  -6.207  -0.064  0.00  0.00    +0.123 A 
ATOM     23  O   UNL     1       2.147  -5.053  -0.042  0.00  0.00    -0.456 OA
BRANCH  19  31
ATOM     24  C   UNL     1       0.049   1.370   0.035  0.00  0.00    +0.002 A 
ATOM     25  C   UNL     1       1.225   2.107   0.025  0.00  0.00    +0.001 A 
ATOM     26  C   UNL     1       2.439   1.445   0.004  0.00  0.00    +0.017 A 
ATOM     27  C   UNL     1       2.460   0.072  -0.007  0.00  0.00    +0.040 A 
ATOM     28  C   UNL     1       1.278  -0.707   0.004  0.00  0.00    +0.079 A 
ATOM     29  C   UNL     1       0.058   0.010   0.025  0.00  0.00    +0.029 A 
ATOM     30  N   UNL     1       1.458  -2.042  -0.009  0.00  0.00    -0.236 NA
ATOM     31  C   UNL     1       2.655  -2.594  -0.029  0.00  0.00    +0.144 A 
ATOM     32  S   UNL     1       3.732  -1.167  -0.034  0.00  0.00    -0.064 S 
ENDBRANCH  19  31
ENDBRANCH  18  22
ENDBRANCH   1  18
TORSDOF 5
