REMARK  Name = ZINC51616624
REMARK  5 active torsions:
REMARK  status: ('A' for Active; 'I' for Inactive)
REMARK    1  A    between atoms: C_2  and  C_3
REMARK    2  A    between atoms: C_3  and  N_4
REMARK    3  A    between atoms: C_5  and  C_7
REMARK    4  A    between atoms: C_7  and  N_8
REMARK    5  A    between atoms: C_15  and  C_17
REMARK                            x       y       z     vdW  Elec       q    Type
REMARK                         _______ _______ _______ _____ _____    ______ ____
ROOT
ATOM      1  N   UNL     1       2.979   5.290   0.002  0.00  0.00    -0.291 N 
ATOM      2  C   UNL     1       4.137   5.979  -0.005  0.00  0.00    +0.306 C 
ATOM      3  O   UNL     1       5.198   5.386  -0.019  0.00  0.00    -0.252 OA
ATOM      4  N   UNL     1       4.118   7.327   0.002  0.00  0.00    -0.247 N 
ATOM      5  C   UNL     1       5.313   8.039  -0.005  0.00  0.00    +0.189 A 
ATOM      6  N   UNL     1       6.551   7.585  -0.026  0.00  0.00    -0.126 NA
ATOM      7  N   UNL     1       7.547   8.363  -0.031  0.00  0.00    -0.144 NA
ATOM      8  C   UNL     1       7.344   9.665  -0.015  0.00  0.00    +0.110 A 
ATOM      9  S   UNL     1       5.557   9.707   0.001  0.00  0.00    -0.035 S 
ATOM     10  H   UNL     1       2.132   5.763   0.013  0.00  0.00    +0.151 HD
ATOM     11  H   UNL     1       3.272   7.800   0.013  0.00  0.00    +0.158 HD
ENDROOT
BRANCH   8  12
ATOM     12  C   UNL     1       8.338  10.798  -0.016  0.00  0.00    +0.022 C 
ATOM     13  C   UNL     1       7.589  12.132   0.006  0.00  0.00    +0.017 C 
ATOM     14  C   UNL     1       8.598  13.283   0.005  0.00  0.00    -0.010 C 
ATOM     15  C   UNL     1       9.461  13.203  -1.255  0.00  0.00    +0.007 C 
ATOM     16  C   UNL     1      10.209  11.869  -1.278  0.00  0.00    -0.010 C 
ATOM     17  C   UNL     1       9.201  10.719  -1.277  0.00  0.00    +0.017 C 
ATOM     18  C   UNL     1      11.103  11.764  -0.041  0.00  0.00    +0.007 C 
ATOM     19  C   UNL     1      10.240  11.844   1.220  0.00  0.00    -0.010 C 
ATOM     20  C   UNL     1       9.492  13.178   1.243  0.00  0.00    +0.007 C 
ATOM     21  C   UNL     1       9.232  10.693   1.221  0.00  0.00    +0.017 C 
ENDBRANCH   8  12
BRANCH   1  22
ATOM     22  C   UNL     1       2.999   3.825  -0.006  0.00  0.00    +0.201 C 
BRANCH  22  24
ATOM     23  N   UNL     1       1.357   1.975  -0.000  0.00  0.00    -0.303 N 
ATOM     24  C   UNL     1       1.585   3.303   0.005  0.00  0.00    +0.231 C 
ATOM     25  O   UNL     1       0.652   4.079   0.018  0.00  0.00    -0.274 OA
ATOM     26  H   UNL     1       2.102   1.355  -0.011  0.00  0.00    +0.150 HD
BRANCH  23  27
ATOM     27  C   UNL     1      -0.018   1.468   0.010  0.00  0.00    +0.193 C 
BRANCH  27  29
ATOM     28  C   UNL     1       0.018  -1.178  -0.004  0.00  0.00    +0.005 C 
ATOM     29  C   UNL     1       0.002  -0.004   0.002  0.00  0.00    -0.087 C 
ENDBRANCH  27  29
ENDBRANCH  23  27
ENDBRANCH  22  24
ENDBRANCH   1  22
TORSDOF 5
