REMARK  Name = ZINC14201578
REMARK  5 active torsions:
REMARK  status: ('A' for Active; 'I' for Inactive)
REMARK    1  A    between atoms: C_7  and  C_11
REMARK    2  A    between atoms: C_14  and  S_19
REMARK    3  A    between atoms: N_15  and  C_16
REMARK    4  A    between atoms: S_19  and  C_20
REMARK    5  A    between atoms: C_20  and  C_21
REMARK                            x       y       z     vdW  Elec       q    Type
REMARK                         _______ _______ _______ _____ _____    ______ ____
ROOT
ATOM      1  C   UNL     1       0.681  -3.259  -0.059  0.00  0.00    +0.167 A 
ATOM      2  N   UNL     1      -0.627  -3.219   0.056  0.00  0.00    -0.128 NA
ATOM      3  N   UNL     1      -1.103  -4.413   0.070  0.00  0.00    -0.122 NA
ATOM      4  C   UNL     1      -0.131  -5.288  -0.036  0.00  0.00    +0.192 A 
ATOM      5  N   UNL     1       1.039  -4.585  -0.128  0.00  0.00    -0.299 N 
ENDROOT
BRANCH   1  12
ATOM      6  C   UNL     1      -0.037   1.357  -0.275  0.00  0.00    +0.001 A 
ATOM      7  C   UNL     1       1.147   2.081  -0.306  0.00  0.00    +0.002 A 
ATOM      8  C   UNL     1       2.364   1.437  -0.274  0.00  0.00    +0.026 A 
ATOM      9  C   UNL     1       2.410   0.047  -0.210  0.00  0.00    +0.047 A 
ATOM     10  C   UNL     1       1.208  -0.679  -0.178  0.00  0.00    +0.010 A 
ATOM     11  C   UNL     1      -0.013  -0.008  -0.211  0.00  0.00    +0.011 A 
ATOM     12  C   UNL     1       1.593  -2.099  -0.112  0.00  0.00    +0.044 A 
ATOM     13  C   UNL     1       2.951  -2.134  -0.108  0.00  0.00    +0.095 A 
ATOM     14  N   UNL     1       3.444  -0.863  -0.166  0.00  0.00    -0.360 N 
ATOM     15  H   UNL     1       4.386  -0.633  -0.175  0.00  0.00    +0.165 HD
ENDBRANCH   1  12
BRANCH   5  16
ATOM     16  C   UNL     1       2.391  -5.131  -0.268  0.00  0.00    +0.091 C 
ATOM     17  C   UNL     1       2.522  -6.597  -0.686  0.00  0.00    +0.027 C 
ATOM     18  C   UNL     1       2.838  -6.181   0.752  0.00  0.00    +0.027 C 
ENDBRANCH   5  16
BRANCH   4  19
ATOM     19  S   UNL     1      -0.302  -7.042  -0.062  0.00  0.00    -0.081 S 
BRANCH  19  20
ATOM     20  C   UNL     1      -2.090  -7.311   0.088  0.00  0.00    +0.114 C 
BRANCH  20  21
ATOM     21  C   UNL     1      -2.378  -8.790   0.078  0.00  0.00    -0.019 A 
ATOM     22  C   UNL     1      -2.608  -9.441  -1.119  0.00  0.00    +0.009 A 
ATOM     23  C   UNL     1      -2.873 -10.797  -1.129  0.00  0.00    +0.039 A 
ATOM     24  C   UNL     1      -2.907 -11.505   0.061  0.00  0.00    +0.125 A 
ATOM     25  C   UNL     1      -2.675 -10.853   1.260  0.00  0.00    +0.058 A 
ATOM     26  C   UNL     1      -2.406  -9.496   1.268  0.00  0.00    +0.048 A 
ATOM     27 CL   UNL     1      -2.110  -8.679   2.770  0.00  0.00    -0.083 Cl
ATOM     28  F   UNL     1      -3.166 -12.831   0.051  0.00  0.00    -0.205 F 
ENDBRANCH  20  21
ENDBRANCH  19  20
ENDBRANCH   4  19
TORSDOF 5
