REMARK  Name = ZINC12652145
REMARK  4 active torsions:
REMARK  status: ('A' for Active; 'I' for Inactive)
REMARK    1  A    between atoms: C_1  and  C_2
REMARK    2  A    between atoms: C_2  and  C_3
REMARK    3  A    between atoms: C_3  and  N_4
REMARK    4  A    between atoms: C_17  and  C_19
REMARK                            x       y       z     vdW  Elec       q    Type
REMARK                         _______ _______ _______ _____ _____    ______ ____
ROOT
ATOM      1  N   UNL     1      -1.917   7.678   2.717  0.00  0.00    -0.299 N 
ATOM      2  C   UNL     1      -0.911   7.262   1.922  0.00  0.00    +0.307 C 
ATOM      3  O   UNL     1       0.228   7.625   2.142  0.00  0.00    -0.252 OA
ATOM      4  N   UNL     1      -1.169   6.443   0.882  0.00  0.00    -0.242 N 
ATOM      5  C   UNL     1      -2.480   6.032   0.646  0.00  0.00    +0.060 A 
ATOM      6  C   UNL     1      -3.143   5.186   1.520  0.00  0.00    +0.025 A 
ATOM      7  C   UNL     1      -4.403   4.719   1.190  0.00  0.00    +0.002 A 
ATOM      8  C   UNL     1      -4.998   5.092  -0.002  0.00  0.00    +0.002 A 
ATOM      9  C   UNL     1      -4.347   5.954  -0.867  0.00  0.00    +0.025 A 
ATOM     10  C   UNL     1      -3.094   6.436  -0.529  0.00  0.00    +0.053 A 
ATOM     11  N   UNL     1      -2.404   7.338  -1.330  0.00  0.00    -0.316 N 
ATOM     12  C   UNL     1      -1.232   7.074  -1.962  0.00  0.00    +0.017 C 
ATOM     13  C   UNL     1      -0.166   6.490  -1.391  0.00  0.00    +0.037 C 
ATOM     14  C   UNL     1      -0.079   6.003   0.036  0.00  0.00    +0.148 C 
ATOM     15  C   UNL     1       1.018   6.283  -2.138  0.00  0.00    +0.163 C 
ATOM     16  O   UNL     1       1.962   5.737  -1.601  0.00  0.00    -0.292 OA
ATOM     17  C   UNL     1       1.150   6.713  -3.568  0.00  0.00    +0.080 C 
ATOM     18  C   UNL     1       0.227   7.914  -3.804  0.00  0.00    +0.014 C 
ATOM     19  C   UNL     1      -1.191   7.493  -3.422  0.00  0.00    +0.051 C 
ATOM     20  H   UNL     1      -2.826   7.388   2.541  0.00  0.00    +0.150 HD
ATOM     21  H   UNL     1      -2.789   8.221  -1.447  0.00  0.00    +0.152 HD
ENDROOT
BRANCH  14  22
ATOM     22  C   UNL     1      -0.059   4.497   0.027  0.00  0.00    -0.022 A 
ATOM     23  C   UNL     1       1.049   3.818   0.499  0.00  0.00    +0.007 A 
ATOM     24  C   UNL     1       1.068   2.436   0.492  0.00  0.00    +0.020 A 
ATOM     25  C   UNL     1      -0.022   1.732   0.011  0.00  0.00    +0.041 A 
ATOM     26  C   UNL     1      -1.128   2.412  -0.466  0.00  0.00    +0.020 A 
ATOM     27  C   UNL     1      -1.149   3.794  -0.452  0.00  0.00    +0.007 A 
ATOM     28 CL   UNL     1       0.002  -0.004   0.002  0.00  0.00    -0.084 Cl
ENDBRANCH  14  22
BRANCH   1  29
ATOM     29  C   UNL     1      -1.637   8.568   3.846  0.00  0.00    +0.105 C 
BRANCH  29  31
ATOM     30  C   UNL     1      -2.650   9.815   5.760  0.00  0.00    +0.005 C 
ATOM     31  C   UNL     1      -2.942   8.886   4.580  0.00  0.00    +0.015 C 
ENDBRANCH  29  31
ENDBRANCH   1  29
TORSDOF 3
