REMARK  Name = ZINC36393901
REMARK  14 active torsions:
REMARK  status: ('A' for Active; 'I' for Inactive)
REMARK    1  A    between atoms: C_1  and  C_2
REMARK    2  A    between atoms: C_2  and  C_3
REMARK    3  A    between atoms: C_3  and  N_4
REMARK    4  A    between atoms: N_4  and  C_5
REMARK    5  A    between atoms: N_4  and  C_22
REMARK    6  A    between atoms: C_5  and  C_6
REMARK    7  A    between atoms: N_8  and  C_9
REMARK    8  A    between atoms: C_9  and  C_10
REMARK    9  A    between atoms: N_12  and  C_13
REMARK   10  A    between atoms: C_14  and  C_21
REMARK   11  A    between atoms: C_16  and  C_20
REMARK   12  A    between atoms: C_18  and  C_19
REMARK   13  A    between atoms: C_22  and  C_24
REMARK   14  A    between atoms: C_22  and  C_25
REMARK                            x       y       z     vdW  Elec       q    Type
REMARK                         _______ _______ _______ _____ _____    ______ ____
ROOT
ATOM      1  C   UNL     1       2.226  -2.587   0.525  0.00  0.00    +0.197 C 
ATOM      2  O   UNL     1       2.184  -1.492   0.007  0.00  0.00    -0.278 OA
ATOM      3  N   UNL     1       2.748  -2.729   1.760  0.00  0.00    -0.308 N 
ATOM      4  H   UNL     1       2.782  -3.605   2.174  0.00  0.00    +0.149 HD
ENDROOT
BRANCH   1   5
ATOM      5  C   UNL     1       1.696  -3.791  -0.211  0.00  0.00    +0.019 C 
BRANCH   5   6
ATOM      6  N   UNL     1       1.067  -3.358  -1.466  0.00  0.00    +0.390 N 
ATOM      7  H   UNL     1       1.727  -2.817  -2.004  0.00  0.00    -0.080 HD
BRANCH   6   8
ATOM      8  C   UNL     1       0.656  -4.538  -2.239  0.00  0.00    -0.039 C 
ATOM      9  C   UNL     1       1.883  -5.396  -2.553  0.00  0.00    -0.008 C 
BRANCH   8  10
ATOM     10  C   UNL     1       0.011  -4.095  -3.527  0.00  0.00    -0.047 A 
ATOM     11  C   UNL     1       0.328  -2.865  -4.072  0.00  0.00    +0.003 A 
ATOM     12  C   UNL     1      -0.263  -2.458  -5.253  0.00  0.00    +0.000 A 
ATOM     13  C   UNL     1      -1.172  -3.282  -5.891  0.00  0.00    +0.001 A 
ATOM     14  C   UNL     1      -1.490  -4.512  -5.347  0.00  0.00    +0.015 A 
ATOM     15  C   UNL     1      -0.895  -4.921  -4.167  0.00  0.00    +0.019 A 
ATOM     16 BR   UNL     1      -1.324  -6.607  -3.427  0.00  0.00    -0.050 Br
ENDBRANCH   8  10
ENDBRANCH   6   8
BRANCH   6  17
ATOM     17  C   UNL     1      -0.112  -2.535  -1.165  0.00  0.00    -0.078 C 
BRANCH  17  19
ATOM     18  C   UNL     1      -2.270  -2.447   0.091  0.00  0.00    +0.002 C 
ATOM     19  C   UNL     1      -1.077  -3.329  -0.282  0.00  0.00    -0.022 C 
ENDBRANCH  17  19
ENDBRANCH   6  17
ENDBRANCH   5   6
ENDBRANCH   1   5
BRANCH   3  20
ATOM     20  C   UNL     1       3.264  -1.559   2.475  0.00  0.00    +0.200 C 
BRANCH  20  21
ATOM     21  C   UNL     1       3.788  -1.985   3.823  0.00  0.00    +0.234 C 
ATOM     22  O   UNL     1       3.735  -3.151   4.153  0.00  0.00    -0.274 OA
ATOM     23  N   UNL     1       4.314  -1.071   4.661  0.00  0.00    -0.284 N 
ATOM     24  H   UNL     1       4.322  -0.133   4.413  0.00  0.00    +0.155 HD
BRANCH  23  25
ATOM     25  C   UNL     1       4.849  -1.474   5.890  0.00  0.00    +0.039 A 
ATOM     26  C   UNL     1       6.169  -1.178   6.205  0.00  0.00    -0.029 A 
ATOM     27  C   UNL     1       6.694  -1.577   7.418  0.00  0.00    +0.008 A 
ATOM     28  C   UNL     1       5.907  -2.271   8.319  0.00  0.00    -0.050 A 
ATOM     29  C   UNL     1       4.593  -2.567   8.008  0.00  0.00    +0.008 A 
ATOM     30  C   UNL     1       4.060  -2.166   6.799  0.00  0.00    -0.029 A 
ATOM     31  C   UNL     1       2.625  -2.483   6.464  0.00  0.00    +0.045 C 
ATOM     32  C   UNL     1       6.483  -2.705   9.642  0.00  0.00    +0.044 C 
ATOM     33  C   UNL     1       7.027  -0.422   5.223  0.00  0.00    +0.045 C 
ENDBRANCH  23  25
ENDBRANCH  20  21
ENDBRANCH   3  20
TORSDOF 9
