REMARK  Name = ZINC20865846
REMARK  5 active torsions:
REMARK  status: ('A' for Active; 'I' for Inactive)
REMARK    1  A    between atoms: C_4  and  N_11
REMARK    2  A    between atoms: C_5  and  C_7
REMARK    3  A    between atoms: C_20  and  S_21
REMARK    4  A    between atoms: S_21  and  C_22
REMARK    5  A    between atoms: C_22  and  C_23
REMARK                            x       y       z     vdW  Elec       q    Type
REMARK                         _______ _______ _______ _____ _____    ______ ____
ROOT
ATOM      1  N   UNL     1      -2.429   1.040   0.019  0.00  0.00    -0.255 N 
ATOM      2  C   UNL     1      -2.992   0.696   1.193  0.00  0.00    +0.268 A 
ATOM      3  O   UNL     1      -2.461   1.004   2.246  0.00  0.00    -0.267 OA
ATOM      4  C   UNL     1      -4.222  -0.034   1.186  0.00  0.00    +0.076 A 
ATOM      5  C   UNL     1      -5.001  -0.502   2.338  0.00  0.00    -0.023 A 
ATOM      6  C   UNL     1      -6.134  -1.180   2.068  0.00  0.00    -0.004 A 
ATOM      7  S   UNL     1      -6.237  -1.226   0.298  0.00  0.00    -0.073 S 
ATOM      8  C   UNL     1      -4.748  -0.337  -0.080  0.00  0.00    +0.117 A 
ATOM      9  N   UNL     1      -4.144   0.031  -1.204  0.00  0.00    -0.215 NA
ATOM     10  C   UNL     1      -3.014   0.709  -1.171  0.00  0.00    +0.178 A 
ATOM     11  C   UNL     1      -7.100  -1.780   3.042  0.00  0.00    +0.043 C 
ATOM     12  C   UNL     1      -7.457  -0.737   4.109  0.00  0.00    +0.005 C 
ATOM     13  C   UNL     1      -6.457  -0.857   5.255  0.00  0.00    +0.001 C 
ATOM     14  C   UNL     1      -5.091  -1.275   4.713  0.00  0.00    +0.005 C 
ATOM     15  C   UNL     1      -4.544  -0.215   3.765  0.00  0.00    +0.037 C 
ENDROOT
BRANCH   1  19
ATOM     16  C   UNL     1       1.155   3.166   0.007  0.00  0.00    +0.001 A 
ATOM     17  C   UNL     1       1.173   1.783   0.000  0.00  0.00    +0.002 A 
ATOM     18  C   UNL     1      -0.013   1.076   0.008  0.00  0.00    +0.027 A 
ATOM     19  C   UNL     1      -1.224   1.754   0.017  0.00  0.00    +0.064 A 
ATOM     20  C   UNL     1      -1.239   3.143   0.030  0.00  0.00    +0.079 A 
ATOM     21  C   UNL     1      -0.049   3.845   0.022  0.00  0.00    +0.014 A 
BRANCH  20  22
ATOM     22  C   UNL     1      -2.551   3.883   0.047  0.00  0.00    +0.419 C 
ATOM     23  F   UNL     1      -2.309   5.261   0.052  0.00  0.00    -0.166 F 
ATOM     24  F   UNL     1      -3.293   3.544  -1.090  0.00  0.00    -0.166 F 
ATOM     25  F   UNL     1      -3.270   3.531   1.195  0.00  0.00    -0.166 F 
ENDBRANCH  20  22
ENDBRANCH   1  19
BRANCH  10  26
ATOM     26  S   UNL     1      -2.244   1.188  -2.681  0.00  0.00    -0.078 S 
BRANCH  26  27
ATOM     27  C   UNL     1      -3.426   0.502  -3.868  0.00  0.00    +0.173 C 
BRANCH  27  28
ATOM     28  C   UNL     1      -2.961   0.800  -5.270  0.00  0.00    +0.231 C 
ATOM     29  O   UNL     1      -1.931   1.414  -5.449  0.00  0.00    -0.274 OA
ATOM     30  N   UNL     1      -3.688   0.382  -6.325  0.00  0.00    -0.240 N 
ATOM     31  C   UNL     1      -3.271   0.648  -7.579  0.00  0.00    +0.303 C 
ATOM     32  O   UNL     1      -2.239   1.264  -7.758  0.00  0.00    -0.253 OA
ATOM     33  N   UNL     1      -3.999   0.231  -8.634  0.00  0.00    -0.313 N 
ATOM     34  H   UNL     1      -4.622  -0.175  -6.163  0.00  0.00    +0.159 HD
ATOM     35  H   UNL     1      -3.659   0.447  -9.657  0.00  0.00    +0.146 HD
ATOM     36  H   UNL     1      -4.933  -0.327  -8.471  0.00  0.00    +0.146 HD
ENDBRANCH  27  28
ENDBRANCH  26  27
ENDBRANCH  10  26
TORSDOF 5
