REMARK  Name = ZINC38609413
REMARK  5 active torsions:
REMARK  status: ('A' for Active; 'I' for Inactive)
REMARK    1  A    between atoms: C_1  and  S_2
REMARK    2  A    between atoms: S_2  and  C_3
REMARK    3  A    between atoms: C_6  and  C_9
REMARK    4  A    between atoms: N_24  and  C_25
REMARK    5  A    between atoms: C_25  and  C_26
REMARK                            x       y       z     vdW  Elec       q    Type
REMARK                         _______ _______ _______ _____ _____    ______ ____
ROOT
ATOM      1  C   UNL     1       2.901  -1.397  -5.106  0.00  0.00    +0.145 C 
ATOM      2  C   UNL     1       1.925  -1.816  -6.155  0.00  0.00    +0.072 A 
ATOM      3  C   UNL     1       0.806  -1.099  -6.775  0.00  0.00    +0.199 A 
ATOM      4  O   UNL     1       0.608   0.093  -6.618  0.00  0.00    -0.287 OA
ATOM      5  C   UNL     1      -0.062  -1.963  -7.614  0.00  0.00    +0.064 A 
ATOM      6  C   UNL     1      -1.273  -1.480  -8.110  0.00  0.00    +0.015 A 
ATOM      7  C   UNL     1      -2.063  -2.290  -8.877  0.00  0.00    +0.001 A 
ATOM      8  C   UNL     1      -1.664  -3.589  -9.162  0.00  0.00    +0.004 A 
ATOM      9  C   UNL     1      -0.471  -4.082  -8.682  0.00  0.00    +0.047 A 
ATOM     10  C   UNL     1       0.354  -3.274  -7.900  0.00  0.00    +0.139 A 
ATOM     11  O   UNL     1       1.526  -3.775  -7.448  0.00  0.00    -0.450 OA
ATOM     12  C   UNL     1       2.222  -3.101  -6.512  0.00  0.00    +0.199 A 
ATOM     13  C   UNL     1       3.378  -3.546  -5.713  0.00  0.00    +0.283 C 
ATOM     14  O   UNL     1       3.892  -4.645  -5.786  0.00  0.00    -0.267 OA
ATOM     15  N   UNL     1       3.783  -2.556  -4.889  0.00  0.00    -0.279 N 
ENDROOT
BRANCH   1  19
ATOM     16  C   UNL     1       0.848  -0.411  -1.489  0.00  0.00    +0.008 A 
ATOM     17  C   UNL     1       1.315   0.599  -2.322  0.00  0.00    +0.015 A 
ATOM     18  C   UNL     1       1.978   0.276  -3.490  0.00  0.00    +0.007 A 
ATOM     19  C   UNL     1       2.178  -1.049  -3.830  0.00  0.00    -0.022 A 
ATOM     20  C   UNL     1       1.714  -2.056  -3.004  0.00  0.00    +0.007 A 
ATOM     21  C   UNL     1       1.056  -1.742  -1.831  0.00  0.00    +0.015 A 
BRANCH  16  23
ATOM     22  C   UNL     1      -0.022   1.810   0.012  0.00  0.00    +0.090 C 
ATOM     23  S   UNL     1       0.002  -0.004   0.002  0.00  0.00    -0.129 S 
ENDBRANCH  16  23
ENDBRANCH   1  19
BRANCH  15  24
ATOM     24  C   UNL     1       4.902  -2.623  -3.946  0.00  0.00    +0.144 C 
BRANCH  24  25
ATOM     25  C   UNL     1       4.407  -3.125  -2.614  0.00  0.00    -0.030 A 
ATOM     26  C   UNL     1       3.953  -2.230  -1.663  0.00  0.00    +0.006 A 
ATOM     27  C   UNL     1       3.499  -2.691  -0.442  0.00  0.00    +0.020 A 
ATOM     28  C   UNL     1       3.499  -4.048  -0.171  0.00  0.00    +0.041 A 
ATOM     29  C   UNL     1       3.953  -4.943  -1.123  0.00  0.00    +0.020 A 
ATOM     30  C   UNL     1       4.402  -4.481  -2.346  0.00  0.00    +0.006 A 
ATOM     31 CL   UNL     1       2.929  -4.627   1.363  0.00  0.00    -0.084 Cl
ENDBRANCH  24  25
ENDBRANCH  15  24
TORSDOF 4
