REMARK  Name = ZINC35555199
REMARK  8 active torsions:
REMARK  status: ('A' for Active; 'I' for Inactive)
REMARK    1  A    between atoms: C_1  and  C_2
REMARK    2  A    between atoms: C_2  and  O_3
REMARK    3  A    between atoms: O_3  and  C_4
REMARK    4  A    between atoms: C_12  and  C_14
REMARK    5  A    between atoms: C_19  and  N_38
REMARK    6  A    between atoms: N_27  and  C_30
REMARK    7  A    between atoms: C_33  and  O_36
REMARK    8  A    between atoms: O_36  and  C_37
REMARK                            x       y       z     vdW  Elec       q    Type
REMARK                         _______ _______ _______ _____ _____    ______ ____
ROOT
ATOM      1  C   UNL     1       4.380  -5.198  -5.058  0.00  0.00    +0.101 C 
ATOM      2  C   UNL     1       3.030  -5.906  -5.168  0.00  0.00    +0.051 C 
ATOM      3  C   UNL     1       3.272  -7.380  -5.365  0.00  0.00    -0.023 A 
ATOM      4  C   UNL     1       2.338  -8.292  -4.909  0.00  0.00    +0.038 A 
ATOM      5  C   UNL     1       2.556  -9.647  -5.075  0.00  0.00    +0.127 A 
ATOM      6  C   UNL     1       3.708 -10.093  -5.696  0.00  0.00    +0.034 A 
ATOM      7  C   UNL     1       4.641  -9.186  -6.156  0.00  0.00    +0.025 A 
ATOM      8  C   UNL     1       4.421  -7.821  -5.995  0.00  0.00    +0.033 A 
ATOM      9  N   UNL     1       5.378  -6.922  -6.499  0.00  0.00    -0.323 N 
ATOM     10  C   UNL     1       5.225  -5.491  -6.301  0.00  0.00    +0.103 C 
ATOM     11  C   UNL     1       6.549  -4.757  -6.164  0.00  0.00    +0.128 C 
ATOM     12  N   UNL     1       7.613  -5.355  -6.946  0.00  0.00    -0.327 N 
ATOM     13  C   UNL     1       7.794  -6.793  -7.049  0.00  0.00    +0.124 C 
ATOM     14  C   UNL     1       6.478  -7.504  -7.266  0.00  0.00    +0.124 C 
ENDROOT
BRANCH   1  23
ATOM     15  C   UNL     1       3.592  -1.664  -0.098  0.00  0.00    +0.403 C 
ATOM     16  O   UNL     1       3.509  -0.458   0.028  0.00  0.00    -0.226 OA
ATOM     17  N   UNL     1       4.033  -2.192  -1.257  0.00  0.00    -0.264 N 
ATOM     18  C   UNL     1       4.133  -3.649  -1.425  0.00  0.00    +0.130 C 
ATOM     19  C   UNL     1       3.327  -4.055  -2.666  0.00  0.00    +0.127 C 
ATOM     20  N   UNL     1       3.716  -3.184  -3.784  0.00  0.00    -0.298 N 
ATOM     21  C   UNL     1       3.617  -1.728  -3.615  0.00  0.00    +0.127 C 
ATOM     22  C   UNL     1       4.417  -1.321  -2.377  0.00  0.00    +0.130 C 
ATOM     23  C   UNL     1       4.157  -3.712  -4.943  0.00  0.00    +0.221 C 
ATOM     24  O   UNL     1       4.375  -2.991  -5.894  0.00  0.00    -0.275 OA
BRANCH  15  25
ATOM     25  O   UNL     1       3.243  -2.473   0.921  0.00  0.00    -0.451 OA
BRANCH  25  27
ATOM     26  C   UNL     1       2.438  -2.916   3.156  0.00  0.00    +0.048 C 
ATOM     27  C   UNL     1       2.785  -1.845   2.120  0.00  0.00    +0.230 C 
ENDBRANCH  25  27
ENDBRANCH  15  25
ENDBRANCH   1  23
BRANCH  12  28
ATOM     28  C   UNL     1       8.500  -4.515  -7.628  0.00  0.00    +0.030 A 
ATOM     29  C   UNL     1       8.430  -3.139  -7.449  0.00  0.00    +0.027 A 
ATOM     30  C   UNL     1       9.306  -2.311  -8.123  0.00  0.00    +0.047 A 
ATOM     31  C   UNL     1      10.255  -2.852  -8.977  0.00  0.00    +0.120 A 
ATOM     32  C   UNL     1      10.325  -4.226  -9.156  0.00  0.00    +0.047 A 
ATOM     33  C   UNL     1       9.454  -5.056  -8.479  0.00  0.00    +0.027 A 
BRANCH  31  34
ATOM     34  O   UNL     1      11.118  -2.035  -9.639  0.00  0.00    -0.495 OA
ATOM     35  C   UNL     1      12.069  -2.660 -10.503  0.00  0.00    +0.277 C 
ENDBRANCH  31  34
ENDBRANCH  12  28
BRANCH   5  36
ATOM     36  N   UNL     1       1.555 -10.622  -4.587  0.00  0.00    +0.056 N 
ATOM     37  O   UNL     1       0.547 -10.233  -4.043  0.00  0.00    -0.126 OA
ATOM     38  O   UNL     1       1.745 -11.807  -4.731  0.00  0.00    -0.126 OA
ENDBRANCH   5  36
TORSDOF 6
