REMARK  Name = ZINC09542750
REMARK  10 active torsions:
REMARK  status: ('A' for Active; 'I' for Inactive)
REMARK    1  A    between atoms: C_1  and  C_2
REMARK    2  A    between atoms: C_2  and  O_3
REMARK    3  A    between atoms: O_3  and  C_4
REMARK    4  A    between atoms: C_8  and  C_11
REMARK    5  A    between atoms: C_9  and  O_10
REMARK    6  A    between atoms: C_14  and  C_27
REMARK    7  A    between atoms: C_16  and  C_18
REMARK    8  A    between atoms: C_23  and  O_24
REMARK    9  A    between atoms: O_24  and  C_25
REMARK   10  A    between atoms: C_30  and  C_33
REMARK                            x       y       z     vdW  Elec       q    Type
REMARK                         _______ _______ _______ _____ _____    ______ ____
ROOT
ATOM      1  C   UNL     1      -0.777   1.529  -1.137  0.00  0.00    -0.028 C 
ATOM      2  C   UNL     1      -0.172   0.953  -2.421  0.00  0.00    +0.044 C 
ATOM      3  C   UNL     1       1.324   1.102  -2.381  0.00  0.00    +0.040 C 
ATOM      4  N   UNL     1       1.972   1.360  -1.308  0.00  0.00    -0.298 NA
ATOM      5  C   UNL     1       1.351   1.549  -0.003  0.00  0.00    +0.084 C 
ATOM      6  N   UNL     1      -0.013   1.002   0.011  0.00  0.00    +0.401 N 
ATOM      7  H   UNL     1       0.030  -0.022  -0.050  0.00  0.00    -0.081 HD
ATOM      8  H   UNL     1      -0.480   1.273   0.884  0.00  0.00    -0.081 HD
ENDROOT
BRANCH   5   9
ATOM      9  C   UNL     1       2.175   0.846   1.046  0.00  0.00    +0.002 A 
ATOM     10  C   UNL     1       1.557   0.274   2.141  0.00  0.00    +0.022 A 
ATOM     11  C   UNL     1       2.312  -0.376   3.101  0.00  0.00    +0.018 A 
ATOM     12  C   UNL     1       3.688  -0.445   2.972  0.00  0.00    +0.019 A 
ATOM     13  C   UNL     1       4.310   0.131   1.881  0.00  0.00    +0.047 A 
ATOM     14  C   UNL     1       3.554   0.778   0.914  0.00  0.00    +0.123 A 
ATOM     15 BR   UNL     1       1.463  -1.165   4.595  0.00  0.00    -0.050 Br
BRANCH  14  16
ATOM     16  O   UNL     1       4.164   1.345  -0.159  0.00  0.00    -0.495 OA
ATOM     17  C   UNL     1       5.587   1.236  -0.229  0.00  0.00    +0.277 C 
ENDBRANCH  14  16
ENDBRANCH   5   9
BRANCH   3  18
ATOM     18  C   UNL     1       2.080   0.945  -3.638  0.00  0.00    -0.004 A 
ATOM     19  C   UNL     1       1.410   0.658  -4.829  0.00  0.00    +0.010 A 
ATOM     20  C   UNL     1       2.122   0.517  -6.002  0.00  0.00    +0.004 A 
ATOM     21  C   UNL     1       3.500   0.649  -5.998  0.00  0.00    -0.050 A 
ATOM     22  C   UNL     1       4.171   0.928  -4.821  0.00  0.00    +0.004 A 
ATOM     23  C   UNL     1       3.470   1.077  -3.642  0.00  0.00    +0.010 A 
ATOM     24  C   UNL     1       4.272   0.488  -7.282  0.00  0.00    +0.044 C 
ENDBRANCH   3  18
BRANCH   1  29
ATOM     25  C   UNL     1      -4.531   1.399  -1.607  0.00  0.00    +0.162 A 
ATOM     26  C   UNL     1      -4.868   0.323  -0.802  0.00  0.00    +0.049 A 
ATOM     27  C   UNL     1      -3.884  -0.358  -0.110  0.00  0.00    +0.004 A 
ATOM     28  C   UNL     1      -2.561   0.029  -0.224  0.00  0.00    +0.006 A 
ATOM     29  C   UNL     1      -2.219   1.106  -1.020  0.00  0.00    -0.016 A 
ATOM     30  C   UNL     1      -3.201   1.792  -1.717  0.00  0.00    +0.160 A 
BRANCH  30  31
ATOM     31  O   UNL     1      -2.865   2.848  -2.506  0.00  0.00    -0.503 OA
ATOM     32  H   UNL     1      -2.663   2.606  -3.421  0.00  0.00    +0.292 HD
ENDBRANCH  30  31
BRANCH  25  33
ATOM     33  O   UNL     1      -5.498   2.070  -2.288  0.00  0.00    -0.489 OA
BRANCH  33  35
ATOM     34  C   UNL     1      -7.782   2.482  -2.964  0.00  0.00    +0.048 C 
ATOM     35  C   UNL     1      -6.842   1.611  -2.128  0.00  0.00    +0.226 C 
ENDBRANCH  33  35
ENDBRANCH  25  33
ENDBRANCH   1  29
TORSDOF 7
