REMARK  Name = ZINC13254177
REMARK  8 active torsions:
REMARK  status: ('A' for Active; 'I' for Inactive)
REMARK    1  A    between atoms: C_3  and  S_9
REMARK    2  A    between atoms: C_6  and  C_7
REMARK    3  A    between atoms: S_9  and  N_12
REMARK    4  A    between atoms: N_12  and  C_13
REMARK    5  A    between atoms: C_13  and  C_14
REMARK    6  A    between atoms: C_14  and  C_15
REMARK    7  A    between atoms: C_15  and  C_16
REMARK    8  A    between atoms: N_18  and  C_19
REMARK                            x       y       z     vdW  Elec       q    Type
REMARK                         _______ _______ _______ _____ _____    ______ ____
ROOT
ATOM      1  C   UNL     1      -1.432  -0.535  -0.026  0.00  0.00    +0.106 C 
ENDROOT
BRANCH   1   2
ATOM      2  N   UNL     1      -1.411  -2.000  -0.041  0.00  0.00    -0.190 NA
ATOM      3  H   UNL     1      -0.594  -2.471  -0.265  0.00  0.00    +0.148 HD
BRANCH   2   4
ATOM      4  S   UNL     1      -2.784  -2.850   0.326  0.00  0.00    +0.058 S 
ATOM      5  O   UNL     1      -2.454  -4.227   0.200  0.00  0.00    -0.153 OA
ATOM      6  O   UNL     1      -3.296  -2.296   1.530  0.00  0.00    -0.153 OA
BRANCH   4   9
ATOM      7  C   UNL     1      -4.945  -3.023  -3.055  0.00  0.00    +0.017 A 
ATOM      8  C   UNL     1      -4.022  -3.292  -2.066  0.00  0.00    +0.029 A 
ATOM      9  C   UNL     1      -3.966  -2.499  -0.933  0.00  0.00    +0.105 A 
ATOM     10  C   UNL     1      -4.837  -1.435  -0.782  0.00  0.00    +0.029 A 
ATOM     11  C   UNL     1      -5.762  -1.151  -1.765  0.00  0.00    +0.017 A 
ATOM     12  C   UNL     1      -5.824  -1.947  -2.911  0.00  0.00    +0.063 A 
BRANCH  12  13
ATOM     13  C   UNL     1      -6.815  -1.653  -3.966  0.00  0.00    +0.387 C 
ATOM     14  O   UNL     1      -6.867  -2.347  -4.962  0.00  0.00    -0.241 OA
ATOM     15  O   UNL     1      -7.662  -0.615  -3.824  0.00  0.00    -0.241 OA
ENDBRANCH  12  13
ENDBRANCH   4   9
ENDBRANCH   2   4
ENDBRANCH   1   2
BRANCH   1  16
ATOM     16  C   UNL     1       0.004  -0.005  -0.025  0.00  0.00    +0.026 C 
BRANCH  16  17
ATOM     17  C   UNL     1      -0.018   1.525  -0.009  0.00  0.00    +0.097 C 
BRANCH  17  18
ATOM     18  C   UNL     1       1.396   2.047  -0.008  0.00  0.00    +0.217 C 
ATOM     19  O   UNL     1       2.329   1.272  -0.018  0.00  0.00    -0.275 OA
ATOM     20  N   UNL     1       1.623   3.376   0.005  0.00  0.00    -0.283 N 
ATOM     21  H   UNL     1       0.880   3.996  -0.053  0.00  0.00    +0.155 HD
BRANCH  20  22
ATOM     22  C   UNL     1       2.934   3.861   0.101  0.00  0.00    +0.069 A 
ATOM     23  C   UNL     1       3.976   3.172  -0.504  0.00  0.00    +0.027 A 
ATOM     24  C   UNL     1       5.268   3.652  -0.408  0.00  0.00    +0.017 A 
ATOM     25  C   UNL     1       5.524   4.819   0.289  0.00  0.00    +0.021 A 
ATOM     26  C   UNL     1       4.489   5.509   0.894  0.00  0.00    +0.055 A 
ATOM     27  C   UNL     1       3.193   5.036   0.797  0.00  0.00    +0.146 A 
ATOM     28  F   UNL     1       2.180   5.713   1.382  0.00  0.00    -0.204 F 
ATOM     29 BR   UNL     1       7.295   5.472   0.418  0.00  0.00    -0.050 Br
ENDBRANCH  20  22
ENDBRANCH  17  18
ENDBRANCH  16  17
ENDBRANCH   1  16
TORSDOF 8
