REMARK  Name = ZINC37076772
REMARK  5 active torsions:
REMARK  status: ('A' for Active; 'I' for Inactive)
REMARK    1  A    between atoms: C_1  and  C_2
REMARK    2  A    between atoms: C_2  and  C_4
REMARK    3  A    between atoms: C_2  and  N_11
REMARK    4  A    between atoms: N_11  and  C_12
REMARK    5  A    between atoms: C_14  and  N_20
REMARK                            x       y       z     vdW  Elec       q    Type
REMARK                         _______ _______ _______ _____ _____    ______ ____
ROOT
ATOM      1  N   UNL     1      -1.372  -0.511   0.012  0.00  0.00    -0.335 N 
ATOM      2  H   UNL     1      -1.810  -0.743  -0.822  0.00  0.00    +0.147 HD
ENDROOT
BRANCH   1   3
ATOM      3  C   UNL     1      -2.054  -0.661   1.226  0.00  0.00    +0.066 A 
ATOM      4  C   UNL     1      -1.431  -0.324   2.420  0.00  0.00    +0.061 A 
ATOM      5  C   UNL     1      -2.106  -0.471   3.616  0.00  0.00    +0.163 A 
ATOM      6  C   UNL     1      -3.403  -0.956   3.627  0.00  0.00    +0.156 A 
ATOM      7  C   UNL     1      -4.027  -1.294   2.438  0.00  0.00    +0.081 A 
ATOM      8  C   UNL     1      -3.359  -1.142   1.237  0.00  0.00    +0.147 A 
ATOM      9  F   UNL     1      -3.970  -1.466   0.077  0.00  0.00    -0.203 F 
ATOM     10  F   UNL     1      -4.059  -1.099   4.798  0.00  0.00    -0.203 F 
BRANCH   5  11
ATOM     11  N   UNL     1      -1.440  -0.112   4.889  0.00  0.00    +0.059 N 
ATOM     12  O   UNL     1      -0.308   0.310   4.881  0.00  0.00    -0.126 OA
ATOM     13  O   UNL     1      -2.030  -0.241   5.936  0.00  0.00    -0.126 OA
ENDBRANCH   5  11
ENDBRANCH   1   3
BRANCH   1  15
ATOM     14  C   UNL     1      -0.019   1.526   0.010  0.00  0.00    +0.033 C 
ATOM     15  C   UNL     1       0.002  -0.004   0.002  0.00  0.00    +0.098 C 
BRANCH  15  16
ATOM     16  C   UNL     1       0.707  -0.490  -1.238  0.00  0.00    -0.028 A 
ATOM     17  C   UNL     1       0.037  -0.521  -2.447  0.00  0.00    +0.006 A 
ATOM     18  C   UNL     1       0.684  -0.967  -3.584  0.00  0.00    +0.015 A 
ATOM     19  C   UNL     1       2.002  -1.381  -3.513  0.00  0.00    +0.018 A 
ATOM     20  C   UNL     1       2.672  -1.349  -2.303  0.00  0.00    +0.015 A 
ATOM     21  C   UNL     1       2.026  -0.899  -1.167  0.00  0.00    +0.006 A 
ATOM     22 BR   UNL     1       2.887  -1.991  -5.069  0.00  0.00    -0.050 Br
ENDBRANCH  15  16
ENDBRANCH   1  15
TORSDOF 4
