REMARK  Name = ZINC64208442
REMARK  6 active torsions:
REMARK  status: ('A' for Active; 'I' for Inactive)
REMARK    1  A    between atoms: C_4  and  C_7
REMARK    2  A    between atoms: C_7  and  C_9
REMARK    3  A    between atoms: C_7  and  C_25
REMARK    4  A    between atoms: C_9  and  N_10
REMARK    5  A    between atoms: C_11  and  C_13
REMARK    6  A    between atoms: C_16  and  C_20
REMARK                            x       y       z     vdW  Elec       q    Type
REMARK                         _______ _______ _______ _____ _____    ______ ____
ROOT
ATOM      1  C   UNL     1       3.295  -0.761  -0.075  0.00  0.00    +0.064 C 
ENDROOT
BRANCH   1   2
ATOM      2  C   UNL     1       3.132  -1.660   1.124  0.00  0.00    -0.033 C 
ATOM      3  C   UNL     1       3.990  -1.798   2.159  0.00  0.00    -0.000 A 
ATOM      4  C   UNL     1       5.285  -1.178   2.468  0.00  0.00    +0.010 A 
ATOM      5  C   UNL     1       5.924  -1.526   3.607  0.00  0.00    +0.001 A 
ATOM      6  C   UNL     1       5.383  -2.463   4.499  0.00  0.00    +0.002 A 
ATOM      7  C   UNL     1       4.199  -3.075   4.285  0.00  0.00    +0.026 A 
ATOM      8  C   UNL     1       3.441  -2.784   3.118  0.00  0.00    +0.043 A 
ATOM      9  N   UNL     1       2.287  -3.237   2.691  0.00  0.00    -0.380 N 
ATOM     10  C   UNL     1       1.971  -2.585   1.415  0.00  0.00    +0.145 C 
ATOM     11  H   UNL     1       1.733  -3.891   3.145  0.00  0.00    +0.160 HD
ENDBRANCH   1   2
BRANCH   1  15
ATOM     12  C   UNL     1       0.057   2.022  -0.221  0.00  0.00    +0.000 A 
ATOM     13  C   UNL     1       1.358   2.479  -0.120  0.00  0.00    +0.000 A 
ATOM     14  C   UNL     1       2.405   1.579  -0.072  0.00  0.00    +0.004 A 
ATOM     15  C   UNL     1       2.153   0.221  -0.126  0.00  0.00    -0.039 A 
ATOM     16  C   UNL     1       0.852  -0.237  -0.227  0.00  0.00    +0.004 A 
ATOM     17  C   UNL     1      -0.195   0.664  -0.276  0.00  0.00    +0.000 A 
ENDBRANCH   1  15
BRANCH   1  18
ATOM     18  C   UNL     1       3.298  -1.607  -1.350  0.00  0.00    +0.117 C 
BRANCH  18  19
ATOM     19  N   UNL     1       3.576  -0.749  -2.504  0.00  0.00    -0.311 N 
ATOM     20  C   UNL     1       3.627  -1.280  -3.742  0.00  0.00    +0.238 C 
ATOM     21  O   UNL     1       3.444  -2.473  -3.901  0.00  0.00    -0.271 OA
ATOM     22  H   UNL     1       3.722   0.202  -2.378  0.00  0.00    +0.149 HD
BRANCH  20  23
ATOM     23  C   UNL     1       3.896  -0.451  -4.856  0.00  0.00    +0.086 C 
ATOM     24  C   UNL     1       4.065  -0.998  -6.078  0.00  0.00    +0.020 C 
ATOM     25  N   UNL     1       4.115  -2.335  -6.253  0.00  0.00    -0.329 N 
ATOM     26  C   UNL     1       3.766  -2.847  -7.596  0.00  0.00    +0.196 C 
ATOM     27  S   UNL     1       4.288  -1.420  -8.643  0.00  0.00    -0.125 S 
ATOM     28  C   UNL     1       4.202  -0.137  -7.323  0.00  0.00    +0.122 C 
ATOM     29  H   UNL     1       4.369  -2.932  -5.532  0.00  0.00    +0.147 HD
BRANCH  26  30
ATOM     30  C   UNL     1       4.555  -4.087  -7.929  0.00  0.00    +0.135 A 
ATOM     31  C   UNL     1       4.144  -5.089  -8.727  0.00  0.00    +0.047 A 
ATOM     32  C   UNL     1       5.190  -6.040  -8.761  0.00  0.00    +0.041 A 
ATOM     33  C   UNL     1       6.177  -5.562  -7.981  0.00  0.00    +0.195 A 
ATOM     34  O   UNL     1       5.788  -4.376  -7.485  0.00  0.00    -0.465 OA
ENDBRANCH  26  30
ENDBRANCH  20  23
ENDBRANCH  18  19
ENDBRANCH   1  18
TORSDOF 6
