REMARK  Name = ZINC03321005
REMARK  7 active torsions:
REMARK  status: ('A' for Active; 'I' for Inactive)
REMARK    1  A    between atoms: C_9  and  C_10
REMARK    2  A    between atoms: C_9  and  C_12
REMARK    3  A    between atoms: C_12  and  C_14
REMARK    4  A    between atoms: C_14  and  O_15
REMARK    5  A    between atoms: O_15  and  C_16
REMARK    6  A    between atoms: C_16  and  C_18
REMARK    7  A    between atoms: C_23  and  N_24
REMARK                            x       y       z     vdW  Elec       q    Type
REMARK                         _______ _______ _______ _____ _____    ______ ____
ROOT
ATOM      1  C   UNL     1       6.041   3.208   0.284  0.00  0.00    +0.214 C 
ATOM      2  O   UNL     1       5.772   2.025   0.358  0.00  0.00    -0.288 OA
ENDROOT
BRANCH   1  11
ATOM      3  C   UNL     1      12.190   0.139   0.783  0.00  0.00    +0.002 A 
ATOM      4  C   UNL     1      11.249  -0.877   0.816  0.00  0.00    +0.002 A 
ATOM      5  C   UNL     1       9.903  -0.584   0.734  0.00  0.00    +0.025 A 
ATOM      6  C   UNL     1       9.489   0.736   0.619  0.00  0.00    +0.054 A 
ATOM      7  C   UNL     1      10.437   1.761   0.586  0.00  0.00    +0.054 A 
ATOM      8  C   UNL     1      11.789   1.455   0.669  0.00  0.00    +0.025 A 
ATOM      9  N   UNL     1       9.741   2.959   0.468  0.00  0.00    -0.300 N 
ATOM     10  C   UNL     1       8.413   2.677   0.429  0.00  0.00    +0.114 C 
ATOM     11  C   UNL     1       7.382   3.627   0.314  0.00  0.00    +0.133 C 
ATOM     12  N   UNL     1       8.238   1.334   0.524  0.00  0.00    -0.300 N 
ATOM     13  H   UNL     1      10.136   3.844   0.420  0.00  0.00    +0.153 HD
ATOM     14  H   UNL     1       7.385   0.871   0.525  0.00  0.00    +0.153 HD
BRANCH  11  15
ATOM     15  C   UNL     1       7.699   5.021   0.227  0.00  0.00    +0.106 C 
ATOM     16  N   UNL     1       7.950   6.126   0.158  0.00  0.00    -0.191 NA
ENDBRANCH  11  15
ENDBRANCH   1  11
BRANCH   1  17
ATOM     17  C   UNL     1       4.936   4.226   0.161  0.00  0.00    +0.312 C 
BRANCH  17  18
ATOM     18  O   UNL     1       3.652   3.548   0.153  0.00  0.00    -0.453 OA
BRANCH  18  19
ATOM     19  C   UNL     1       2.553   4.321   0.048  0.00  0.00    +0.341 C 
ATOM     20  O   UNL     1       2.665   5.528  -0.035  0.00  0.00    -0.245 OA
BRANCH  19  21
ATOM     21  C   UNL     1       1.217   3.702   0.034  0.00  0.00    +0.082 A 
ATOM     22  C   UNL     1       1.086   2.310   0.004  0.00  0.00    +0.037 A 
ATOM     23  C   UNL     1      -0.167   1.737  -0.010  0.00  0.00    +0.043 A 
ATOM     24  C   UNL     1      -1.302   2.534  -0.001  0.00  0.00    +0.042 A 
ATOM     25  C   UNL     1      -1.190   3.909   0.034  0.00  0.00    +0.064 A 
ATOM     26  C   UNL     1       0.066   4.505   0.049  0.00  0.00    +0.057 A 
ATOM     27 CL   UNL     1      -2.618   4.896   0.053  0.00  0.00    -0.082 Cl
ATOM     28 CL   UNL     1      -0.326   0.008  -0.046  0.00  0.00    -0.083 Cl
BRANCH  26  29
ATOM     29  N   UNL     1       0.182   5.890   0.078  0.00  0.00    -0.356 N 
ATOM     30  H   UNL     1       1.056   6.305   0.007  0.00  0.00    +0.142 HD
ATOM     31  H   UNL     1      -0.611   6.441   0.170  0.00  0.00    +0.142 HD
ENDBRANCH  26  29
ENDBRANCH  19  21
ENDBRANCH  18  19
ENDBRANCH  17  18
ENDBRANCH   1  17
TORSDOF 7
