REMARK  Name = ZINC12501849
REMARK  11 active torsions:
REMARK  status: ('A' for Active; 'I' for Inactive)
REMARK    1  A    between atoms: C_1  and  C_2
REMARK    2  A    between atoms: C_5  and  C_26
REMARK    3  A    between atoms: C_6  and  O_8
REMARK    4  A    between atoms: O_8  and  C_9
REMARK    5  A    between atoms: C_9  and  C_10
REMARK    6  A    between atoms: N_12  and  N_13
REMARK    7  A    between atoms: N_13  and  C_14
REMARK    8  A    between atoms: C_14  and  N_16
REMARK    9  A    between atoms: C_17  and  C_19
REMARK   10  A    between atoms: C_26  and  C_27
REMARK   11  A    between atoms: C_26  and  C_28
REMARK                            x       y       z     vdW  Elec       q    Type
REMARK                         _______ _______ _______ _____ _____    ______ ____
ROOT
ATOM      1  C   UNL     1      -0.742   1.585  -1.213  0.00  0.00    +0.267 C 
ATOM      2  O   UNL     1      -1.736   2.268  -1.088  0.00  0.00    -0.271 OA
ATOM      3  N   UNL     1      -0.288   1.272  -2.443  0.00  0.00    -0.232 N 
ATOM      4  H   UNL     1       0.507   0.726  -2.543  0.00  0.00    +0.173 HD
ENDROOT
BRANCH   3   5
ATOM      5  N   UNL     1      -0.966   1.736  -3.578  0.00  0.00    -0.245 N 
ATOM      6  H   UNL     1      -1.761   2.283  -3.479  0.00  0.00    +0.172 HD
BRANCH   5   7
ATOM      7  C   UNL     1      -0.513   1.424  -4.808  0.00  0.00    +0.153 C 
ATOM      8  S   UNL     1      -1.341   1.991  -6.195  0.00  0.00    -0.017 S 
BRANCH   7   9
ATOM      9  N   UNL     1       0.592   0.664  -4.947  0.00  0.00    -0.263 N 
ATOM     10  C   UNL     1       1.045   0.352  -6.177  0.00  0.00    +0.250 C 
ATOM     11  O   UNL     1       0.457   0.754  -7.161  0.00  0.00    -0.270 OA
ATOM     12  H   UNL     1       1.061   0.343  -4.161  0.00  0.00    +0.157 HD
BRANCH  10  13
ATOM     13  C   UNL     1       2.256  -0.480  -6.328  0.00  0.00    +0.037 A 
ATOM     14  C   UNL     1       2.937  -0.940  -5.199  0.00  0.00    +0.014 A 
ATOM     15  C   UNL     1       4.064  -1.720  -5.347  0.00  0.00    +0.021 A 
ATOM     16  C   UNL     1       4.527  -2.040  -6.612  0.00  0.00    +0.041 A 
ATOM     17  C   UNL     1       3.859  -1.583  -7.737  0.00  0.00    +0.021 A 
ATOM     18  C   UNL     1       2.728  -0.806  -7.602  0.00  0.00    +0.014 A 
ATOM     19 CL   UNL     1       5.951  -3.017  -6.791  0.00  0.00    -0.084 Cl
ENDBRANCH  10  13
ENDBRANCH   7   9
ENDBRANCH   5   7
ENDBRANCH   3   5
BRANCH   1  20
ATOM     20  C   UNL     1      -0.013   1.086   0.008  0.00  0.00    +0.326 C 
BRANCH  20  21
ATOM     21  O   UNL     1      -0.682   1.547   1.184  0.00  0.00    -0.482 OA
BRANCH  21  27
ATOM     22  C   UNL     1       2.775  -0.826   3.683  0.00  0.00    +0.044 C 
ATOM     23  C   UNL     1       1.534   0.027   3.637  0.00  0.00    -0.047 A 
ATOM     24  C   UNL     1       0.936   0.440   4.814  0.00  0.00    +0.004 A 
ATOM     25  C   UNL     1      -0.203   1.222   4.776  0.00  0.00    +0.008 A 
ATOM     26  C   UNL     1      -0.747   1.594   3.561  0.00  0.00    -0.003 A 
ATOM     27  C   UNL     1      -0.149   1.182   2.380  0.00  0.00    +0.125 A 
ATOM     28  C   UNL     1       0.991   0.392   2.421  0.00  0.00    +0.049 A 
BRANCH  26  29
ATOM     29  C   UNL     1      -1.988   2.448   3.520  0.00  0.00    +0.016 C 
ATOM     30  C   UNL     1      -3.132   1.718   4.229  0.00  0.00    +0.012 C 
ATOM     31  C   UNL     1      -1.717   3.777   4.226  0.00  0.00    +0.012 C 
ENDBRANCH  26  29
ENDBRANCH  21  27
ENDBRANCH  20  21
ENDBRANCH   1  20
TORSDOF 8
