REMARK  Name = ZINC44682073
REMARK  11 active torsions:
REMARK  status: ('A' for Active; 'I' for Inactive)
REMARK    1  A    between atoms: C_1  and  C_2
REMARK    2  A    between atoms: C_10  and  O_37
REMARK    3  A    between atoms: C_21  and  N_23
REMARK    4  A    between atoms: N_23  and  C_24
REMARK    5  A    between atoms: C_24  and  C_25
REMARK    6  A    between atoms: C_25  and  C_26
REMARK    7  A    between atoms: C_26  and  C_27
REMARK    8  A    between atoms: C_27  and  C_28
REMARK    9  A    between atoms: C_28  and  C_29
REMARK   10  A    between atoms: C_29  and  N_30
REMARK   11  A    between atoms: O_37  and  C_38
REMARK                            x       y       z     vdW  Elec       q    Type
REMARK                         _______ _______ _______ _____ _____    ______ ____
ROOT
ATOM      1  C   UNL     1      -0.128   1.588  -0.081  0.00  0.00    +0.010 C 
ATOM      2  C   UNL     1      -0.041   0.061  -0.110  0.00  0.00    -0.041 C 
ATOM      3  C   UNL     1       0.492  -0.371  -1.457  0.00  0.00    +0.006 C 
ATOM      4  C   UNL     1       0.773  -1.875  -1.498  0.00  0.00    +0.009 C 
ATOM      5  C   UNL     1       1.784  -2.195  -0.395  0.00  0.00    +0.023 C 
ATOM      6  C   UNL     1       2.194  -3.640  -0.449  0.00  0.00    -0.041 A 
ATOM      7  C   UNL     1       2.397  -4.217  -1.695  0.00  0.00    +0.008 A 
ATOM      8  C   UNL     1       2.782  -5.536  -1.804  0.00  0.00    +0.046 A 
ATOM      9  C   UNL     1       2.969  -6.294  -0.657  0.00  0.00    +0.120 A 
ATOM     10  C   UNL     1       2.763  -5.720   0.585  0.00  0.00    +0.049 A 
ATOM     11  C   UNL     1       2.371  -4.392   0.693  0.00  0.00    -0.040 A 
ATOM     12  C   UNL     1       2.144  -3.840   2.076  0.00  0.00    +0.036 C 
ATOM     13  C   UNL     1       2.104  -2.313   2.060  0.00  0.00    +0.009 C 
ATOM     14  C   UNL     1       1.140  -1.889   0.953  0.00  0.00    +0.000 C 
ATOM     15  C   UNL     1       0.830  -0.407   1.072  0.00  0.00    -0.003 C 
ATOM     16  C   UNL     1      -0.151  -0.248   2.270  0.00  0.00    +0.003 C 
ATOM     17  C   UNL     1      -1.510  -0.711   1.701  0.00  0.00    -0.015 C 
ATOM     18  C   UNL     1      -1.434  -0.516   0.173  0.00  0.00    -0.066 C 
ENDROOT
BRANCH  18  19
ATOM     19  N   UNL     1      -1.596  -1.806  -0.510  0.00  0.00    +0.381 N 
ATOM     20  H   UNL     1      -1.401  -1.693  -1.494  0.00  0.00    -0.086 HD
ATOM     21  H   UNL     1      -0.956  -2.479  -0.115  0.00  0.00    -0.086 HD
BRANCH  19  22
ATOM     22  C   UNL     1      -2.975  -2.283  -0.337  0.00  0.00    -0.082 C 
BRANCH  22  23
ATOM     23  C   UNL     1      -3.144  -3.626  -1.049  0.00  0.00    -0.019 C 
BRANCH  23  24
ATOM     24  C   UNL     1      -4.580  -4.122  -0.869  0.00  0.00    -0.002 C 
BRANCH  24  25
ATOM     25  C   UNL     1      -4.749  -5.466  -1.581  0.00  0.00    +0.001 C 
BRANCH  25  26
ATOM     26  C   UNL     1      -6.185  -5.962  -1.400  0.00  0.00    +0.019 C 
BRANCH  26  27
ATOM     27  C   UNL     1      -6.354  -7.306  -2.112  0.00  0.00    +0.116 C 
BRANCH  27  28
ATOM     28  N   UNL     1      -7.729  -7.780  -1.939  0.00  0.00    -0.242 N 
ATOM     29  C   UNL     1      -8.106  -8.547  -0.909  0.00  0.00    +0.222 C 
ATOM     30  O   UNL     1      -7.381  -8.933  -0.018  0.00  0.00    -0.275 OA
ATOM     31  C   UNL     1      -9.582  -8.857  -1.033  0.00  0.00    +0.105 C 
ATOM     32  C   UNL     1      -9.997  -8.127  -2.328  0.00  0.00    +0.105 C 
ATOM     33  C   UNL     1      -8.712  -7.478  -2.796  0.00  0.00    +0.222 C 
ATOM     34  O   UNL     1      -8.593  -6.795  -3.790  0.00  0.00    -0.275 OA
ENDBRANCH  27  28
ENDBRANCH  26  27
ENDBRANCH  25  26
ENDBRANCH  24  25
ENDBRANCH  23  24
ENDBRANCH  22  23
ENDBRANCH  19  22
ENDBRANCH  18  19
BRANCH   9  35
ATOM     35  O   UNL     1       3.352  -7.594  -0.753  0.00  0.00    -0.495 OA
ATOM     36  C   UNL     1       3.545  -8.118  -2.068  0.00  0.00    +0.277 C 
ENDBRANCH   9  35
TORSDOF 9
