REMARK  Name = ZINC08443380
REMARK  11 active torsions:
REMARK  status: ('A' for Active; 'I' for Inactive)
REMARK    1  A    between atoms: C_4  and  C_7
REMARK    2  A    between atoms: C_8  and  C_21
REMARK    3  A    between atoms: N_10  and  C_12
REMARK    4  A    between atoms: C_12  and  C_13
REMARK    5  A    between atoms: C_22  and  C_23
REMARK    6  A    between atoms: C_22  and  C_25
REMARK    7  A    between atoms: C_26  and  C_34
REMARK    8  A    between atoms: C_27  and  N_33
REMARK    9  A    between atoms: N_28  and  C_30
REMARK   10  A    between atoms: C_30  and  C_31
REMARK   11  A    between atoms: C_31  and  O_32
REMARK                            x       y       z     vdW  Elec       q    Type
REMARK                         _______ _______ _______ _____ _____    ______ ____
ROOT
ATOM      1  C   UNL     1      -1.007   2.785   2.856  0.00  0.00    +0.100 A 
ATOM      2  C   UNL     1      -1.515   1.467   3.253  0.00  0.00    +0.022 A 
ATOM      3  C   UNL     1      -1.054   0.571   2.306  0.00  0.00    +0.117 A 
ATOM      4  N   UNL     1      -0.324   1.258   1.411  0.00  0.00    -0.266 N 
ATOM      5  N   UNL     1      -0.306   2.612   1.758  0.00  0.00    -0.170 NA
ENDROOT
BRANCH   1   9
ATOM      6  C   UNL     1      -1.677   6.467   4.872  0.00  0.00    +0.000 A 
ATOM      7  C   UNL     1      -0.465   6.235   4.247  0.00  0.00    +0.001 A 
ATOM      8  C   UNL     1      -0.242   5.041   3.591  0.00  0.00    +0.010 A 
ATOM      9  C   UNL     1      -1.241   4.069   3.559  0.00  0.00    +0.003 A 
ATOM     10  C   UNL     1      -2.462   4.311   4.186  0.00  0.00    +0.010 A 
ATOM     11  C   UNL     1      -2.672   5.506   4.844  0.00  0.00    +0.001 A 
ENDBRANCH   1   9
BRANCH   2  12
ATOM     12  C   UNL     1      -2.350   1.162   4.419  0.00  0.00    +0.032 C 
ATOM     13  C   UNL     1      -3.033  -0.016   4.479  0.00  0.00    +0.081 C 
BRANCH  13  14
ATOM     14  C   UNL     1      -3.752  -0.393   5.716  0.00  0.00    +0.122 A 
ATOM     15  C   UNL     1      -4.532  -1.617   5.933  0.00  0.00    +0.119 A 
ATOM     16  C   UNL     1      -5.018  -1.543   7.235  0.00  0.00    +0.133 A 
ATOM     17  N   UNL     1      -4.588  -0.381   7.765  0.00  0.00    -0.247 N 
ATOM     18  N   UNL     1      -3.816   0.308   6.826  0.00  0.00    -0.167 NA
BRANCH  16  19
ATOM     19  N   UNL     1      -5.806  -2.486   7.867  0.00  0.00    -0.342 N 
ATOM     20  H   UNL     1      -6.100  -2.340   8.779  0.00  0.00    +0.144 HD
ATOM     21  H   UNL     1      -6.065  -3.295   7.397  0.00  0.00    +0.144 HD
ENDBRANCH  16  19
BRANCH  15  22
ATOM     22  C   UNL     1      -4.748  -2.676   4.994  0.00  0.00    +0.105 C 
ATOM     23  N   UNL     1      -4.919  -3.517   4.249  0.00  0.00    -0.191 NA
ENDBRANCH  15  22
BRANCH  17  24
ATOM     24  C   UNL     1      -4.883   0.088   9.121  0.00  0.00    +0.173 C 
BRANCH  24  25
ATOM     25  C   UNL     1      -6.171   0.913   9.106  0.00  0.00    +0.179 C 
BRANCH  25  26
ATOM     26  O   UNL     1      -6.460   1.371  10.429  0.00  0.00    -0.393 OA
ATOM     27  H   UNL     1      -7.265   1.902  10.495  0.00  0.00    +0.209 HD
ENDBRANCH  25  26
ENDBRANCH  24  25
ENDBRANCH  17  24
ENDBRANCH  13  14
BRANCH  13  28
ATOM     28  C   UNL     1      -3.054  -0.889   3.344  0.00  0.00    +0.101 C 
ATOM     29  N   UNL     1      -3.072  -1.582   2.444  0.00  0.00    -0.191 NA
ENDBRANCH  13  28
ENDBRANCH   2  12
BRANCH   4  30
ATOM     30  C   UNL     1       0.347   0.677   0.246  0.00  0.00    +0.180 C 
BRANCH  30  31
ATOM     31  C   UNL     1      -0.104   1.392  -1.002  0.00  0.00    -0.008 A 
ATOM     32  C   UNL     1      -1.138   0.875  -1.759  0.00  0.00    +0.008 A 
ATOM     33  C   UNL     1      -1.556   1.533  -2.901  0.00  0.00    +0.020 A 
ATOM     34  C   UNL     1      -0.931   2.704  -3.292  0.00  0.00    +0.042 A 
ATOM     35  C   UNL     1       0.107   3.219  -2.537  0.00  0.00    +0.040 A 
ATOM     36  C   UNL     1       0.521   2.563  -1.392  0.00  0.00    +0.047 A 
ATOM     37 CL   UNL     1       1.824   3.209  -0.444  0.00  0.00    -0.083 Cl
ATOM     38 CL   UNL     1      -1.451   3.527  -4.729  0.00  0.00    -0.083 Cl
ENDBRANCH  30  31
ENDBRANCH   4  30
TORSDOF 11
