REMARK  Name = ZINC45662668
REMARK  9 active torsions:
REMARK  status: ('A' for Active; 'I' for Inactive)
REMARK    1  A    between atoms: C_1  and  C_2
REMARK    2  A    between atoms: C_2  and  C_3
REMARK    3  A    between atoms: C_3  and  C_5
REMARK    4  A    between atoms: C_3  and  N_24
REMARK    5  A    between atoms: C_5  and  C_7
REMARK    6  A    between atoms: C_5  and  N_14
REMARK    7  A    between atoms: C_16  and  C_23
REMARK    8  A    between atoms: C_19  and  C_21
REMARK    9  A    between atoms: C_19  and  C_22
REMARK                            x       y       z     vdW  Elec       q    Type
REMARK                         _______ _______ _______ _____ _____    ______ ____
ROOT
ATOM      1  C   UNL     1       0.658  -2.037   1.304  0.00  0.00    +0.074 C 
ENDROOT
BRANCH   1   2
ATOM      2  N   UNL     1      -0.389  -3.016   0.983  0.00  0.00    -0.292 NA
ATOM      3  C   UNL     1      -1.179  -3.352   2.176  0.00  0.00    +0.116 C 
ATOM      4  C   UNL     1      -2.293  -4.327   1.786  0.00  0.00    +0.130 C 
ATOM      5  O   UNL     1      -1.715  -5.484   1.176  0.00  0.00    -0.368 OA
ATOM      6  C   UNL     1      -0.939  -5.194   0.011  0.00  0.00    +0.077 C 
ATOM      7  C   UNL     1       0.189  -4.228   0.383  0.00  0.00    +0.119 C 
ATOM      8  C   UNL     1      -1.833  -4.550  -1.052  0.00  0.00    +0.042 C 
ATOM      9  C   UNL     1      -0.341  -6.489  -0.541  0.00  0.00    +0.042 C 
ATOM     10  C   UNL     1      -3.071  -4.742   3.037  0.00  0.00    +0.039 C 
ENDBRANCH   1   2
BRANCH   1  11
ATOM     11  C   UNL     1       1.490  -2.549   2.451  0.00  0.00    -0.018 A 
ATOM     12  C   UNL     1       1.131  -2.250   3.752  0.00  0.00    +0.006 A 
ATOM     13  C   UNL     1       1.894  -2.720   4.805  0.00  0.00    +0.000 A 
ATOM     14  C   UNL     1       3.016  -3.489   4.557  0.00  0.00    +0.001 A 
ATOM     15  C   UNL     1       3.376  -3.788   3.257  0.00  0.00    +0.015 A 
ATOM     16  C   UNL     1       2.610  -3.322   2.203  0.00  0.00    +0.022 A 
ATOM     17 BR   UNL     1       3.097  -3.737   0.423  0.00  0.00    -0.050 Br
ENDBRANCH   1  11
BRANCH   1  18
ATOM     18  C   UNL     1       0.010  -0.708   1.697  0.00  0.00    -0.053 C 
BRANCH  18  19
ATOM     19  N   UNL     1       1.056   0.295   1.936  0.00  0.00    +0.381 N 
ATOM     20  H   UNL     1       0.635   1.146   2.277  0.00  0.00    -0.090 HD
ATOM     21  H   UNL     1       1.708  -0.056   2.622  0.00  0.00    -0.090 HD
ATOM     22  H   UNL     1       1.545   0.484   1.074  0.00  0.00    -0.090 HD
ENDBRANCH  18  19
BRANCH  18  24
ATOM     23  C   UNL     1      -1.646   1.031   1.007  0.00  0.00    +0.002 C 
ATOM     24  C   UNL     1      -0.903  -0.232   0.565  0.00  0.00    -0.018 C 
ENDBRANCH  18  24
ENDBRANCH   1  18
TORSDOF 5
