REMARK  Name = ZINC39677377
REMARK  7 active torsions:
REMARK  status: ('A' for Active; 'I' for Inactive)
REMARK    1  A    between atoms: C_1  and  C_2
REMARK    2  A    between atoms: C_2  and  C_3
REMARK    3  A    between atoms: C_3  and  C_4
REMARK    4  A    between atoms: C_4  and  C_5
REMARK    5  A    between atoms: C_9  and  C_18
REMARK    6  A    between atoms: N_20  and  C_21
REMARK    7  A    between atoms: C_21  and  C_22
REMARK                            x       y       z     vdW  Elec       q    Type
REMARK                         _______ _______ _______ _____ _____    ______ ____
ROOT
ATOM      1  C   UNL     1      -2.534  -2.615  -0.100  0.00  0.00    +0.216 C 
ATOM      2  O   UNL     1      -3.400  -1.766  -0.123  0.00  0.00    -0.276 OA
ATOM      3  N   UNL     1      -2.869  -3.919  -0.064  0.00  0.00    -0.300 N 
ATOM      4  C   UNL     1      -1.962  -5.090  -0.027  0.00  0.00    +0.121 C 
ATOM      5  C   UNL     1      -2.640  -6.080   0.946  0.00  0.00    +0.100 C 
ATOM      6  C   UNL     1      -4.129  -5.694   0.923  0.00  0.00    -0.004 C 
ATOM      7  C   UNL     1      -4.230  -4.508  -0.047  0.00  0.00    +0.115 C 
ATOM      8  C   UNL     1      -4.970  -6.862   0.420  0.00  0.00    -0.010 C 
ATOM      9  C   UNL     1      -6.451  -6.475   0.461  0.00  0.00    -0.082 C 
ATOM     10  N   UNL     1      -6.830  -6.129   1.836  0.00  0.00    +0.379 N 
ATOM     11  C   UNL     1      -6.083  -4.947   2.280  0.00  0.00    -0.082 C 
ATOM     12  C   UNL     1      -4.587  -5.270   2.316  0.00  0.00    -0.010 C 
ATOM     13  H   UNL     1      -7.820  -5.933   1.872  0.00  0.00    -0.086 HD
ATOM     14  H   UNL     1      -6.622  -6.905   2.446  0.00  0.00    -0.086 HD
ENDROOT
BRANCH   5  15
ATOM     15  C   UNL     1      -2.076  -5.921   2.335  0.00  0.00    +0.218 C 
ATOM     16  O   UNL     1      -1.665  -4.840   2.702  0.00  0.00    -0.275 OA
ATOM     17  N   UNL     1      -2.029  -6.979   3.168  0.00  0.00    -0.311 N 
ATOM     18  H   UNL     1      -2.357  -7.843   2.874  0.00  0.00    +0.149 HD
BRANCH  17  19
ATOM     19  C   UNL     1      -1.480  -6.824   4.518  0.00  0.00    +0.139 C 
BRANCH  19  20
ATOM     20  C   UNL     1      -1.541  -8.146   5.239  0.00  0.00    -0.027 A 
ATOM     21  C   UNL     1      -2.662  -8.478   5.977  0.00  0.00    +0.009 A 
ATOM     22  C   UNL     1      -2.721  -9.689   6.641  0.00  0.00    +0.050 A 
ATOM     23  C   UNL     1      -1.655 -10.574   6.569  0.00  0.00    +0.162 A 
ATOM     24  C   UNL     1      -0.529 -10.241   5.825  0.00  0.00    +0.162 A 
ATOM     25  C   UNL     1      -0.478  -9.026   5.158  0.00  0.00    +0.054 A 
ATOM     26  O   UNL     1       0.524 -11.098   5.735  0.00  0.00    -0.485 OA
ATOM     27  C   UNL     1       0.590 -12.142   6.712  0.00  0.00    +0.270 C 
ATOM     28  C   UNL     1      -0.802 -12.778   6.830  0.00  0.00    +0.270 C 
ATOM     29  O   UNL     1      -1.726 -11.761   7.231  0.00  0.00    -0.485 OA
ENDBRANCH  19  20
ENDBRANCH  17  19
ENDBRANCH   5  15
BRANCH   1  30
ATOM     30  C   UNL     1      -1.082  -2.210  -0.113  0.00  0.00    +0.096 C 
BRANCH  30  31
ATOM     31  C   UNL     1      -0.978  -0.684  -0.155  0.00  0.00    +0.009 C 
BRANCH  31  33
ATOM     32  C   UNL     1       0.599   1.252  -0.209  0.00  0.00    +0.004 C 
ATOM     33  C   UNL     1       0.495  -0.273  -0.168  0.00  0.00    -0.003 C 
ENDBRANCH  31  33
ENDBRANCH  30  31
ENDBRANCH   1  30
TORSDOF 6
