REMARK  Name = ZINC49287161
REMARK  7 active torsions:
REMARK  status: ('A' for Active; 'I' for Inactive)
REMARK    1  A    between atoms: C_1  and  C_2
REMARK    2  A    between atoms: C_2  and  C_4
REMARK    3  A    between atoms: C_2  and  N_14
REMARK    4  A    between atoms: C_8  and  S_10
REMARK    5  A    between atoms: S_10  and  N_13
REMARK    6  A    between atoms: N_17  and  C_18
REMARK    7  A    between atoms: C_18  and  C_19
REMARK                            x       y       z     vdW  Elec       q    Type
REMARK                         _______ _______ _______ _____ _____    ______ ____
ROOT
ATOM      1  C   UNL     1      -0.019   1.526   0.010  0.00  0.00    +0.033 C 
ATOM      2  C   UNL     1       0.002  -0.004   0.002  0.00  0.00    +0.102 C 
ENDROOT
BRANCH   2   3
ATOM      3  C   UNL     1       0.707  -0.490  -1.238  0.00  0.00    -0.026 A 
ATOM      4  C   UNL     1       2.089  -0.511  -1.284  0.00  0.00    +0.005 A 
ATOM      5  C   UNL     1       2.736  -0.957  -2.421  0.00  0.00    +0.002 A 
ATOM      6  C   UNL     1       2.002  -1.382  -3.512  0.00  0.00    +0.028 A 
ATOM      7  C   UNL     1       0.620  -1.362  -3.466  0.00  0.00    +0.105 A 
ATOM      8  C   UNL     1      -0.027  -0.920  -2.327  0.00  0.00    +0.034 A 
BRANCH   7   9
ATOM      9  S   UNL     1      -0.316  -1.904  -4.857  0.00  0.00    +0.056 S 
ATOM     10  O   UNL     1      -1.586  -1.274  -4.762  0.00  0.00    -0.153 OA
ATOM     11  O   UNL     1       0.524  -1.758  -5.994  0.00  0.00    -0.153 OA
BRANCH   9  12
ATOM     12  N   UNL     1      -0.578  -3.528  -4.668  0.00  0.00    -0.204 NA
ATOM     13  H   UNL     1      -0.229  -3.989  -3.889  0.00  0.00    +0.144 HD
ATOM     14  H   UNL     1      -1.081  -4.019  -5.337  0.00  0.00    +0.144 HD
ENDBRANCH   9  12
ENDBRANCH   7   9
ENDBRANCH   2   3
BRANCH   2  15
ATOM     15  N   UNL     1       0.711  -0.489   1.189  0.00  0.00    -0.293 N 
ATOM     16  C   UNL     1       0.051  -0.633   2.355  0.00  0.00    +0.300 C 
ATOM     17  O   UNL     1      -1.132  -0.361   2.423  0.00  0.00    -0.253 OA
ATOM     18  N   UNL     1       0.703  -1.080   3.447  0.00  0.00    -0.295 N 
ATOM     19  H   UNL     1       1.654  -0.707   1.135  0.00  0.00    +0.151 HD
ATOM     20  H   UNL     1       1.647  -1.298   3.394  0.00  0.00    +0.151 HD
BRANCH  18  21
ATOM     21  C   UNL     1      -0.014  -1.237   4.715  0.00  0.00    +0.148 C 
BRANCH  21  22
ATOM     22  C   UNL     1       0.935  -1.746   5.769  0.00  0.00    +0.006 C 
ATOM     23  C   UNL     1       1.230  -0.996   6.804  0.00  0.00    +0.021 C 
ATOM     24 BR   UNL     1       1.701  -3.467   5.600  0.00  0.00    -0.054 Br
ENDBRANCH  21  22
ENDBRANCH  18  21
ENDBRANCH   2  15
TORSDOF 6
