REMARK  Name = ZINC06244535
REMARK  4 active torsions:
REMARK  status: ('A' for Active; 'I' for Inactive)
REMARK    1  A    between atoms: C_1  and  C_2
REMARK    2  A    between atoms: C_4  and  O_12
REMARK    3  A    between atoms: O_12  and  S_13
REMARK    4  A    between atoms: S_13  and  C_16
REMARK                            x       y       z     vdW  Elec       q    Type
REMARK                         _______ _______ _______ _____ _____    ______ ____
ROOT
ATOM      1  C   UNL     1       0.120   5.637   0.029  0.00  0.00    +0.066 C 
ATOM      2  C   UNL     1       0.067   4.131   0.022  0.00  0.00    +0.042 A 
ATOM      3  C   UNL     1      -1.170   3.499   0.032  0.00  0.00    +0.072 A 
ATOM      4  C   UNL     1      -1.234   2.117   0.019  0.00  0.00    +0.168 A 
ATOM      5  C   UNL     1      -0.017   1.398   0.010  0.00  0.00    +0.045 A 
ATOM      6  C   UNL     1       0.002  -0.004   0.002  0.00  0.00    +0.014 A 
ATOM      7  C   UNL     1       1.195  -0.661  -0.013  0.00  0.00    +0.001 A 
ATOM      8  C   UNL     1       2.397   0.042  -0.021  0.00  0.00    +0.002 A 
ATOM      9  C   UNL     1       2.414   1.403  -0.013  0.00  0.00    +0.028 A 
ATOM     10  C   UNL     1       1.203   2.116   0.002  0.00  0.00    +0.075 A 
ATOM     11  N   UNL     1       1.191   3.454   0.009  0.00  0.00    -0.252 NA
ENDROOT
BRANCH   4  12
ATOM     12  O   UNL     1      -2.427   1.473   0.021  0.00  0.00    -0.342 OA
BRANCH  12  13
ATOM     13  S   UNL     1      -2.965   1.171   1.413  0.00  0.00    +0.151 S 
ATOM     14  O   UNL     1      -4.093   0.325   1.237  0.00  0.00    -0.131 OA
ATOM     15  O   UNL     1      -1.848   0.797   2.208  0.00  0.00    -0.131 OA
BRANCH  13  16
ATOM     16  C   UNL     1      -3.571   2.687   2.077  0.00  0.00    +0.128 A 
ATOM     17  C   UNL     1      -2.731   3.505   2.809  0.00  0.00    +0.031 A 
ATOM     18  C   UNL     1      -3.205   4.697   3.325  0.00  0.00    +0.016 A 
ATOM     19  C   UNL     1      -4.522   5.064   3.119  0.00  0.00    +0.013 A 
ATOM     20  C   UNL     1      -5.363   4.243   2.391  0.00  0.00    +0.016 A 
ATOM     21  C   UNL     1      -4.888   3.054   1.871  0.00  0.00    +0.031 A 
ATOM     22  I   UNL     1      -5.242   6.867   3.907  0.00  0.00    -0.044 I 
ENDBRANCH  13  16
ENDBRANCH  12  13
ENDBRANCH   4  12
TORSDOF 3
