REMARK  Name = ZINC04535391
REMARK  7 active torsions:
REMARK  status: ('A' for Active; 'I' for Inactive)
REMARK    1  A    between atoms: C_1  and  C_2
REMARK    2  A    between atoms: N_4  and  C_23
REMARK    3  A    between atoms: C_7  and  C_9
REMARK    4  A    between atoms: C_9  and  C_11
REMARK    5  A    between atoms: C_9  and  C_18
REMARK    6  A    between atoms: C_18  and  C_19
REMARK    7  A    between atoms: C_18  and  C_21
REMARK                            x       y       z     vdW  Elec       q    Type
REMARK                         _______ _______ _______ _____ _____    ______ ____
ROOT
ATOM      1  C   UNL     1      -0.445   1.431   0.335  0.00  0.00    +0.063 C 
ATOM      2  C   UNL     1      -0.157  -0.033   0.123  0.00  0.00    +0.047 C 
ATOM      3  N   UNL     1      -0.139  -0.647  -0.995  0.00  0.00    -0.181 NA
ATOM      4  N   UNL     1       0.161  -2.000  -0.872  0.00  0.00    -0.160 N 
ATOM      5  C   UNL     1       0.363  -2.338   0.419  0.00  0.00    +0.249 C 
ATOM      6  O   UNL     1       0.641  -3.433   0.861  0.00  0.00    -0.273 OA
ATOM      7  C   UNL     1       0.174  -1.049   1.196  0.00  0.00    +0.132 C 
ENDROOT
BRANCH   4   8
ATOM      8  C   UNL     1       0.242  -2.894  -1.946  0.00  0.00    +0.060 A 
ATOM      9  C   UNL     1       0.542  -4.231  -1.718  0.00  0.00    +0.025 A 
ATOM     10  C   UNL     1       0.622  -5.111  -2.779  0.00  0.00    +0.002 A 
ATOM     11  C   UNL     1       0.403  -4.662  -4.069  0.00  0.00    +0.000 A 
ATOM     12  C   UNL     1       0.103  -3.331  -4.300  0.00  0.00    +0.002 A 
ATOM     13  C   UNL     1       0.016  -2.448  -3.241  0.00  0.00    +0.025 A 
ENDBRANCH   4   8
BRANCH   7  14
ATOM     14  C   UNL     1       1.462  -0.663   1.925  0.00  0.00    +0.067 C 
BRANCH  14  15
ATOM     15  C   UNL     1       2.606  -0.636   0.945  0.00  0.00    -0.040 A 
ATOM     16  C   UNL     1       2.675   0.362  -0.009  0.00  0.00    +0.004 A 
ATOM     17  C   UNL     1       3.724   0.387  -0.909  0.00  0.00    +0.002 A 
ATOM     18  C   UNL     1       4.704  -0.587  -0.856  0.00  0.00    +0.020 A 
ATOM     19  C   UNL     1       4.635  -1.586   0.098  0.00  0.00    +0.041 A 
ATOM     20  C   UNL     1       3.588  -1.607   1.002  0.00  0.00    +0.024 A 
ATOM     21 CL   UNL     1       5.865  -2.809   0.165  0.00  0.00    -0.084 Cl
ENDBRANCH  14  15
BRANCH  14  22
ATOM     22  C   UNL     1       1.297   0.722   2.554  0.00  0.00    +0.202 C 
BRANCH  22  23
ATOM     23  C   UNL     1       0.114   0.726   3.430  0.00  0.00    +0.081 C 
ATOM     24  N   UNL     1      -0.798   0.728   4.107  0.00  0.00    -0.195 NA
ENDBRANCH  22  23
BRANCH  22  25
ATOM     25  C   UNL     1       2.495   1.049   3.345  0.00  0.00    +0.081 C 
ATOM     26  N   UNL     1       3.419   1.300   3.955  0.00  0.00    -0.195 NA
ENDBRANCH  22  25
ENDBRANCH  14  22
ENDBRANCH   7  14
TORSDOF 6
