REMARK  Name = ZINC00884609
REMARK  12 active torsions:
REMARK  status: ('A' for Active; 'I' for Inactive)
REMARK    1  A    between atoms: C_1  and  C_2
REMARK    2  A    between atoms: C_4  and  C_35
REMARK    3  A    between atoms: C_9  and  C_14
REMARK    4  A    between atoms: C_14  and  N_15
REMARK    5  A    between atoms: N_15  and  C_16
REMARK    6  A    between atoms: N_15  and  C_22
REMARK    7  A    between atoms: C_16  and  C_17
REMARK    8  A    between atoms: C_22  and  N_24
REMARK    9  A    between atoms: N_24  and  C_25
REMARK   10  A    between atoms: C_30  and  C_31
REMARK   11  A    between atoms: C_31  and  O_33
REMARK   12  A    between atoms: O_33  and  C_34
REMARK                            x       y       z     vdW  Elec       q    Type
REMARK                         _______ _______ _______ _____ _____    ______ ____
ROOT
ATOM      1  N   UNL     1      -1.724   8.174  -1.448  0.00  0.00    -0.303 N 
ENDROOT
BRANCH   1   2
ATOM      2  C   UNL     1      -0.613   8.287  -2.203  0.00  0.00    +0.138 C 
ATOM      3  S   UNL     1       0.843   7.539  -1.700  0.00  0.00    -0.018 S 
BRANCH   2   4
ATOM      4  N   UNL     1      -0.648   8.989  -3.353  0.00  0.00    -0.296 N 
ATOM      5  H   UNL     1      -1.490   9.342  -3.680  0.00  0.00    +0.154 HD
BRANCH   4   6
ATOM      6  C   UNL     1       0.524   9.206  -4.071  0.00  0.00    +0.047 A 
ATOM      7  C   UNL     1       1.675   9.627  -3.417  0.00  0.00    +0.024 A 
ATOM      8  C   UNL     1       2.838   9.837  -4.131  0.00  0.00    +0.002 A 
ATOM      9  C   UNL     1       2.865   9.641  -5.503  0.00  0.00    +0.001 A 
ATOM     10  C   UNL     1       1.732   9.229  -6.169  0.00  0.00    +0.017 A 
ATOM     11  C   UNL     1       0.548   9.007  -5.460  0.00  0.00    +0.080 A 
BRANCH  11  12
ATOM     12  C   UNL     1      -0.668   8.566  -6.166  0.00  0.00    +0.341 C 
ATOM     13  O   UNL     1      -1.678   8.314  -5.539  0.00  0.00    -0.245 OA
BRANCH  12  14
ATOM     14  O   UNL     1      -0.660   8.443  -7.508  0.00  0.00    -0.464 OA
ATOM     15  C   UNL     1      -1.893   8.004  -8.137  0.00  0.00    +0.280 C 
ENDBRANCH  12  14
ENDBRANCH  11  12
ENDBRANCH   4   6
ENDBRANCH   2   4
ENDBRANCH   1   2
BRANCH   1  16
ATOM     16  C   UNL     1      -1.687   7.412  -0.198  0.00  0.00    +0.147 C 
BRANCH  16  25
ATOM     17  C   UNL     1       0.227   0.352  -1.656  0.00  0.00    +0.044 C 
ATOM     18  C   UNL     1      -0.823   1.407  -1.420  0.00  0.00    -0.050 A 
ATOM     19  C   UNL     1      -2.167   1.061  -1.456  0.00  0.00    +0.008 A 
ATOM     20  C   UNL     1      -3.144   2.010  -1.247  0.00  0.00    -0.026 A 
ATOM     21  C   UNL     1      -2.781   3.328  -0.987  0.00  0.00    +0.052 A 
ATOM     22  C   UNL     1      -1.418   3.675  -0.951  0.00  0.00    -0.001 A 
ATOM     23  C   UNL     1      -0.444   2.696  -1.171  0.00  0.00    +0.013 A 
ATOM     24  C   UNL     1      -1.047   5.066  -0.682  0.00  0.00    +0.020 A 
ATOM     25  C   UNL     1      -2.034   5.972  -0.477  0.00  0.00    +0.035 A 
ATOM     26  C   UNL     1      -3.387   5.572  -0.524  0.00  0.00    +0.254 A 
ATOM     27  O   UNL     1      -4.259   6.402  -0.336  0.00  0.00    -0.268 OA
ATOM     28  N   UNL     1      -3.738   4.297  -0.770  0.00  0.00    -0.322 N 
ATOM     29  H   UNL     1      -4.677   4.056  -0.795  0.00  0.00    +0.169 HD
ATOM     30  C   UNL     1      -4.599   1.621  -1.296  0.00  0.00    +0.046 C 
ENDBRANCH  16  25
ENDBRANCH   1  16
BRANCH   1  31
ATOM     31  C   UNL     1      -2.970   8.814  -1.879  0.00  0.00    +0.149 C 
BRANCH  31  32
ATOM     32  C   UNL     1      -3.036  10.212  -1.319  0.00  0.00    +0.007 A 
ATOM     33  C   UNL     1      -2.583  11.370  -1.858  0.00  0.00    +0.013 A 
ATOM     34  C   UNL     1      -2.759  12.549  -1.158  0.00  0.00    +0.008 A 
ATOM     35  C   UNL     1      -3.369  12.510   0.052  0.00  0.00    +0.045 A 
ATOM     36  S   UNL     1      -3.725  10.770   0.231  0.00  0.00    -0.100 S 
ENDBRANCH  31  32
ENDBRANCH   1  31
TORSDOF 9
