REMARK  Name = ZINC09679070
REMARK  8 active torsions:
REMARK  status: ('A' for Active; 'I' for Inactive)
REMARK    1  A    between atoms: C_1  and  C_2
REMARK    2  A    between atoms: C_2  and  O_3
REMARK    3  A    between atoms: O_3  and  C_4
REMARK    4  A    between atoms: C_7  and  C_10
REMARK    5  A    between atoms: C_13  and  C_28
REMARK    6  A    between atoms: N_20  and  C_21
REMARK    7  A    between atoms: C_31  and  O_34
REMARK    8  A    between atoms: O_34  and  C_35
REMARK                            x       y       z     vdW  Elec       q    Type
REMARK                         _______ _______ _______ _____ _____    ______ ____
ROOT
ATOM      1  C   UNL     1       1.094  -5.978  -1.923  0.00  0.00    +0.142 C 
ATOM      2  C   UNL     1       0.110  -6.527  -2.923  0.00  0.00    +0.018 C 
ATOM      3  C   UNL     1      -0.959  -6.593  -3.695  0.00  0.00    +0.097 C 
ATOM      4  N   UNL     1      -0.756  -7.499  -4.698  0.00  0.00    -0.153 NA
ATOM      5  N   UNL     1       0.230  -8.229  -4.518  0.00  0.00    -0.170 NA
ATOM      6  C   UNL     1       0.804  -7.873  -3.226  0.00  0.00    +0.244 C 
ATOM      7  C   UNL     1       2.255  -7.478  -3.257  0.00  0.00    +0.251 C 
ATOM      8  O   UNL     1       3.132  -8.035  -3.884  0.00  0.00    -0.272 OA
ATOM      9  N   UNL     1       2.412  -6.389  -2.458  0.00  0.00    -0.258 N 
ENDROOT
BRANCH   9  10
ATOM     10  C   UNL     1       3.629  -5.753  -2.185  0.00  0.00    +0.037 A 
ATOM     11  C   UNL     1       4.087  -5.660  -0.877  0.00  0.00    +0.024 A 
ATOM     12  C   UNL     1       5.288  -5.033  -0.611  0.00  0.00    +0.017 A 
ATOM     13  C   UNL     1       6.034  -4.496  -1.645  0.00  0.00    +0.018 A 
ATOM     14  C   UNL     1       5.580  -4.587  -2.949  0.00  0.00    +0.017 A 
ATOM     15  C   UNL     1       4.382  -5.218  -3.222  0.00  0.00    +0.024 A 
ATOM     16 BR   UNL     1       7.678  -3.637  -1.276  0.00  0.00    -0.050 Br
ENDBRANCH   9  10
BRANCH   1  20
ATOM     17  C   UNL     1       0.816  -1.719  -1.723  0.00  0.00    +0.121 A 
ATOM     18  C   UNL     1       0.233  -2.500  -0.736  0.00  0.00    +0.046 A 
ATOM     19  C   UNL     1       0.324  -3.877  -0.803  0.00  0.00    +0.009 A 
ATOM     20  C   UNL     1       0.996  -4.476  -1.852  0.00  0.00    -0.022 A 
ATOM     21  C   UNL     1       1.578  -3.700  -2.837  0.00  0.00    +0.009 A 
ATOM     22  C   UNL     1       1.484  -2.323  -2.778  0.00  0.00    +0.046 A 
BRANCH  17  23
ATOM     23  O   UNL     1       0.727  -0.364  -1.660  0.00  0.00    -0.492 OA
BRANCH  23  25
ATOM     24  C   UNL     1       0.029   1.716  -0.646  0.00  0.00    +0.048 C 
ATOM     25  C   UNL     1       0.024   0.189  -0.545  0.00  0.00    +0.225 C 
ENDBRANCH  23  25
ENDBRANCH  17  23
ENDBRANCH   1  20
BRANCH   3  26
ATOM     26  C   UNL     1      -2.199  -5.801  -3.502  0.00  0.00    +0.002 A 
ATOM     27  C   UNL     1      -2.293  -4.899  -2.443  0.00  0.00    +0.013 A 
ATOM     28  C   UNL     1      -3.447  -4.164  -2.267  0.00  0.00    +0.046 A 
ATOM     29  C   UNL     1      -4.513  -4.322  -3.141  0.00  0.00    +0.120 A 
ATOM     30  C   UNL     1      -4.422  -5.219  -4.197  0.00  0.00    +0.046 A 
ATOM     31  C   UNL     1      -3.269  -5.953  -4.382  0.00  0.00    +0.013 A 
BRANCH  29  32
ATOM     32  O   UNL     1      -5.648  -3.597  -2.964  0.00  0.00    -0.495 OA
ATOM     33  C   UNL     1      -6.706  -3.809  -3.901  0.00  0.00    +0.277 C 
ENDBRANCH  29  32
ENDBRANCH   3  26
TORSDOF 6
