REMARK  Name = ZINC57341828
REMARK  4 active torsions:
REMARK  status: ('A' for Active; 'I' for Inactive)
REMARK    1  A    between atoms: C_1  and  O_2
REMARK    2  A    between atoms: O_2  and  C_3
REMARK    3  A    between atoms: C_6  and  C_9
REMARK    4  A    between atoms: N_15  and  C_16
REMARK                            x       y       z     vdW  Elec       q    Type
REMARK                         _______ _______ _______ _____ _____    ______ ____
ROOT
ATOM      1  C   UNL     1      -4.967  -2.631   0.201  0.00  0.00    +0.080 A 
ATOM      2  C   UNL     1      -5.016  -4.001  -0.018  0.00  0.00    +0.098 A 
ATOM      3  C   UNL     1      -6.264  -4.606  -0.218  0.00  0.00    +0.253 A 
ATOM      4  N   UNL     1      -7.373  -3.837  -0.191  0.00  0.00    -0.295 N 
ATOM      5  C   UNL     1      -7.270  -2.497   0.028  0.00  0.00    +0.201 A 
ATOM      6  N   UNL     1      -6.103  -1.921   0.221  0.00  0.00    -0.216 NA
ATOM      7  N   UNL     1      -8.408  -1.733   0.051  0.00  0.00    -0.283 N 
ATOM      8  O   UNL     1      -6.347  -5.808  -0.414  0.00  0.00    -0.268 OA
ATOM      9  H   UNL     1      -9.279  -2.157  -0.002  0.00  0.00    +0.155 HD
ATOM     10  H   UNL     1      -8.244  -4.240  -0.328  0.00  0.00    +0.172 HD
ENDROOT
BRANCH   7  11
ATOM     11  C   UNL     1      -8.313  -0.340   0.152  0.00  0.00    +0.071 A 
ATOM     12  C   UNL     1      -7.256   0.331  -0.446  0.00  0.00    +0.046 A 
ATOM     13  C   UNL     1      -7.165   1.707  -0.345  0.00  0.00    +0.043 A 
ATOM     14  C   UNL     1      -8.127   2.416   0.353  0.00  0.00    +0.023 A 
ATOM     15  C   UNL     1      -9.182   1.752   0.951  0.00  0.00    +0.041 A 
ATOM     16  C   UNL     1      -9.281   0.376   0.848  0.00  0.00    +0.145 A 
ATOM     17  F   UNL     1     -10.315  -0.272   1.428  0.00  0.00    -0.204 F 
ATOM     18 CL   UNL     1      -5.842   2.546  -1.094  0.00  0.00    -0.083 Cl
ENDBRANCH   7  11
BRANCH   1  22
ATOM     19  C   UNL     1      -1.231  -0.700   0.820  0.00  0.00    +0.120 A 
ATOM     20  C   UNL     1      -2.406   0.041   0.842  0.00  0.00    +0.046 A 
ATOM     21  C   UNL     1      -3.619  -0.582   0.641  0.00  0.00    +0.013 A 
ATOM     22  C   UNL     1      -3.666  -1.958   0.416  0.00  0.00    +0.001 A 
ATOM     23  C   UNL     1      -2.483  -2.699   0.395  0.00  0.00    +0.013 A 
ATOM     24  C   UNL     1      -1.274  -2.069   0.591  0.00  0.00    +0.046 A 
BRANCH  19  26
ATOM     25  C   UNL     1      -0.067   1.327   1.248  0.00  0.00    +0.277 C 
ATOM     26  O   UNL     1      -0.038  -0.083   1.018  0.00  0.00    -0.495 OA
ENDBRANCH  19  26
ENDBRANCH   1  22
TORSDOF 3
