REMARK  Name = ZINC12402240
REMARK  7 active torsions:
REMARK  status: ('A' for Active; 'I' for Inactive)
REMARK    1  A    between atoms: C_1  and  C_2
REMARK    2  A    between atoms: C_2  and  C_35
REMARK    3  A    between atoms: C_20  and  C_33
REMARK    4  A    between atoms: C_21  and  N_32
REMARK    5  A    between atoms: C_26  and  S_28
REMARK    6  A    between atoms: S_28  and  C_29
REMARK    7  A    between atoms: C_29  and  C_30
REMARK                            x       y       z     vdW  Elec       q    Type
REMARK                         _______ _______ _______ _____ _____    ______ ____
ROOT
ATOM      1  C   UNL     1       0.093   5.694  -3.400  0.00  0.00    +0.011 C 
ATOM      2  C   UNL     1      -1.388   5.364  -3.596  0.00  0.00    -0.023 C 
ATOM      3  C   UNL     1      -2.187   5.841  -2.381  0.00  0.00    +0.058 C 
ATOM      4  C   UNL     1      -1.706   5.123  -1.144  0.00  0.00    +0.028 C 
ATOM      5  C   UNL     1      -1.214   3.867  -1.216  0.00  0.00    +0.037 C 
ATOM      6  C   UNL     1      -1.129   3.192  -2.446  0.00  0.00    +0.163 C 
ATOM      7  O   UNL     1      -0.696   2.057  -2.474  0.00  0.00    -0.292 OA
ATOM      8  C   UNL     1      -1.565   3.848  -3.727  0.00  0.00    +0.086 C 
ATOM      9  C   UNL     1      -0.739   3.154   0.023  0.00  0.00    +0.141 C 
ATOM     10  C   UNL     1       0.758   3.079   0.044  0.00  0.00    +0.001 A 
ATOM     11  C   UNL     1       1.718   4.066   0.085  0.00  0.00    +0.045 A 
ATOM     12  C   UNL     1       3.048   3.652   0.097  0.00  0.00    +0.124 A 
ATOM     13  C   UNL     1       3.384   2.312   0.069  0.00  0.00    +0.040 A 
ATOM     14  C   UNL     1       2.421   1.315   0.028  0.00  0.00    +0.026 A 
ATOM     15  C   UNL     1       1.085   1.718   0.014  0.00  0.00    +0.038 A 
ATOM     16  N   UNL     1      -0.065   0.948  -0.025  0.00  0.00    -0.284 N 
ATOM     17  C   UNL     1      -1.181   1.705  -0.031  0.00  0.00    +0.238 C 
ATOM     18  O   UNL     1      -2.325   1.302  -0.069  0.00  0.00    -0.274 OA
ATOM     19  F   UNL     1       4.030   4.580   0.136  0.00  0.00    -0.205 F 
ATOM     20  C   UNL     1      -1.259   3.805   1.269  0.00  0.00    +0.089 C 
ATOM     21  C   UNL     1      -1.750   5.072   1.242  0.00  0.00    +0.109 C 
ATOM     22  N   UNL     1      -1.783   5.775   0.059  0.00  0.00    -0.237 N 
ATOM     23  C   UNL     1      -1.896   7.163   0.084  0.00  0.00    +0.194 A 
ATOM     24  N   UNL     1      -2.971   7.931   0.009  0.00  0.00    -0.124 NA
ATOM     25  N   UNL     1      -2.899   9.189   0.052  0.00  0.00    -0.133 NA
ATOM     26  C   UNL     1      -1.739   9.821   0.163  0.00  0.00    +0.160 A 
ATOM     27  S   UNL     1      -0.626   8.419   0.220  0.00  0.00    -0.024 S 
ATOM     28  C   UNL     1      -1.905   6.053  -4.860  0.00  0.00    +0.011 C 
ATOM     29  H   UNL     1      -0.068  -0.021  -0.051  0.00  0.00    +0.155 HD
ENDROOT
BRANCH  21  30
ATOM     30  N   UNL     1      -2.216   5.652   2.398  0.00  0.00    -0.345 N 
ATOM     31  H   UNL     1      -2.651   6.519   2.365  0.00  0.00    +0.144 HD
ATOM     32  H   UNL     1      -2.110   5.195   3.247  0.00  0.00    +0.144 HD
ENDBRANCH  21  30
BRANCH  20  33
ATOM     33  C   UNL     1      -1.238   3.083   2.505  0.00  0.00    +0.100 C 
ATOM     34  N   UNL     1      -1.221   2.509   3.485  0.00  0.00    -0.191 NA
ENDBRANCH  20  33
BRANCH  26  35
ATOM     35  S   UNL     1      -1.391  11.546   0.234  0.00  0.00    -0.093 S 
BRANCH  35  36
ATOM     36  C   UNL     1      -3.023  12.328   0.119  0.00  0.00    +0.103 C 
BRANCH  36  37
ATOM     37  C   UNL     1      -2.867  13.826   0.168  0.00  0.00    -0.023 C 
ATOM     38  C   UNL     1      -3.191  14.553  -0.873  0.00  0.00    +0.005 C 
ENDBRANCH  36  37
ENDBRANCH  35  36
ENDBRANCH  26  35
TORSDOF 5
