REMARK  Name = ZINC63807620
REMARK  11 active torsions:
REMARK  status: ('A' for Active; 'I' for Inactive)
REMARK    1  A    between atoms: C_1  and  N_2
REMARK    2  A    between atoms: N_2  and  C_3
REMARK    3  A    between atoms: N_2  and  C_4
REMARK    4  A    between atoms: C_4  and  C_6
REMARK    5  A    between atoms: C_4  and  C_32
REMARK    6  A    between atoms: C_6  and  N_7
REMARK    7  A    between atoms: C_8  and  C_10
REMARK    8  A    between atoms: C_10  and  C_12
REMARK    9  A    between atoms: C_10  and  N_22
REMARK   10  A    between atoms: C_12  and  C_13
REMARK   11  A    between atoms: C_23  and  C_25
REMARK                            x       y       z     vdW  Elec       q    Type
REMARK                         _______ _______ _______ _____ _____    ______ ____
ROOT
ATOM      1  C   UNL     1       1.355  -3.585   2.403  0.00  0.00    +0.163 C 
ENDROOT
BRANCH   1   3
ATOM      2  N   UNL     1       0.044  -2.014   1.012  0.00  0.00    -0.315 N 
ATOM      3  C   UNL     1       0.458  -3.278   1.232  0.00  0.00    +0.234 C 
ATOM      4  O   UNL     1       0.107  -4.169   0.486  0.00  0.00    -0.274 OA
ATOM      5  H   UNL     1       0.325  -1.302   1.609  0.00  0.00    +0.149 HD
BRANCH   2   6
ATOM      6  C   UNL     1      -0.828  -1.716  -0.126  0.00  0.00    +0.094 C 
BRANCH   6   7
ATOM      7  C   UNL     1      -1.251  -0.247  -0.073  0.00  0.00    -0.014 C 
BRANCH   7   8
ATOM      8  C   UNL     1      -2.103  -0.013   1.148  0.00  0.00    -0.022 A 
ATOM      9  C   UNL     1      -1.753   0.526   2.342  0.00  0.00    +0.009 A 
ATOM     10  C   UNL     1      -2.713   0.645   3.330  0.00  0.00    +0.008 A 
ATOM     11  C   UNL     1      -3.974   0.220   3.076  0.00  0.00    +0.045 A 
ATOM     12  S   UNL     1      -3.835  -0.366   1.395  0.00  0.00    -0.103 S 
ENDBRANCH   7   8
BRANCH   7  14
ATOM     13  C   UNL     1      -2.489   1.475  -1.195  0.00  0.00    -0.096 C 
ATOM     14  N   UNL     1      -2.022   0.085  -1.279  0.00  0.00    +0.382 N 
ATOM     15  C   UNL     1      -1.170  -0.075  -2.465  0.00  0.00    -0.096 C 
ATOM     16  H   UNL     1      -2.817  -0.533  -1.350  0.00  0.00    -0.082 HD
ENDBRANCH   7  14
ENDBRANCH   6   7
ENDBRANCH   2   6
ENDBRANCH   1   3
BRANCH   1  17
ATOM     17  N   UNL     1       1.660  -5.018   2.422  0.00  0.00    -0.300 N 
ATOM     18  C   UNL     1       1.994  -5.620   3.581  0.00  0.00    +0.245 C 
ATOM     19  O   UNL     1       2.042  -4.975   4.610  0.00  0.00    -0.270 OA
ATOM     20  H   UNL     1       1.621  -5.533   1.601  0.00  0.00    +0.150 HD
BRANCH  18  21
ATOM     21  C   UNL     1       2.302  -7.065   3.600  0.00  0.00    +0.037 A 
ATOM     22  C   UNL     1       2.252  -7.808   2.419  0.00  0.00    +0.016 A 
ATOM     23  C   UNL     1       2.540  -9.156   2.442  0.00  0.00    +0.039 A 
ATOM     24  C   UNL     1       2.878  -9.774   3.637  0.00  0.00    +0.123 A 
ATOM     25  C   UNL     1       2.928  -9.041   4.813  0.00  0.00    +0.039 A 
ATOM     26  C   UNL     1       2.648  -7.692   4.799  0.00  0.00    +0.016 A 
ATOM     27  F   UNL     1       3.158 -11.096   3.655  0.00  0.00    -0.205 F 
ENDBRANCH  18  21
ENDBRANCH   1  17
BRANCH   1  28
ATOM     28  C   UNL     1       2.655  -2.789   2.272  0.00  0.00    +0.065 C 
BRANCH  28  29
ATOM     29  C   UNL     1       3.499  -3.000   3.502  0.00  0.00    -0.039 C 
ATOM     30  C   UNL     1       4.496  -3.900   3.659  0.00  0.00    -0.001 A 
ATOM     31  C   UNL     1       5.070  -4.914   2.766  0.00  0.00    +0.010 A 
ATOM     32  C   UNL     1       6.086  -5.686   3.217  0.00  0.00    +0.001 A 
ATOM     33  C   UNL     1       6.602  -5.542   4.512  0.00  0.00    +0.002 A 
ATOM     34  C   UNL     1       6.127  -4.633   5.390  0.00  0.00    +0.026 A 
ATOM     35  C   UNL     1       5.060  -3.768   5.022  0.00  0.00    +0.043 A 
ATOM     36  N   UNL     1       4.435  -2.823   5.681  0.00  0.00    -0.380 N 
ATOM     37  C   UNL     1       3.408  -2.244   4.809  0.00  0.00    +0.144 C 
ATOM     38  H   UNL     1       4.624  -2.550   6.593  0.00  0.00    +0.160 HD
ENDBRANCH  28  29
ENDBRANCH   1  28
TORSDOF 9
