REMARK  Name = ZINC00455850
REMARK  10 active torsions:
REMARK  status: ('A' for Active; 'I' for Inactive)
REMARK    1  A    between atoms: C_1  and  C_2
REMARK    2  A    between atoms: C_5  and  O_24
REMARK    3  A    between atoms: C_6  and  N_8
REMARK    4  A    between atoms: N_8  and  C_9
REMARK    5  A    between atoms: C_9  and  N_11
REMARK    6  A    between atoms: C_12  and  C_14
REMARK    7  A    between atoms: C_14  and  O_15
REMARK    8  A    between atoms: O_15  and  C_16
REMARK    9  A    between atoms: C_19  and  C_23
REMARK   10  A    between atoms: C_20  and  C_22
REMARK                            x       y       z     vdW  Elec       q    Type
REMARK                         _______ _______ _______ _____ _____    ______ ____
ROOT
ATOM      1  N   UNL     1      -6.072   3.325   0.306  0.00  0.00    -0.265 N 
ATOM      2  C   UNL     1      -4.838   3.813   0.543  0.00  0.00    +0.256 C 
ATOM      3  O   UNL     1      -4.688   4.992   0.783  0.00  0.00    -0.272 OA
ATOM      4  H   UNL     1      -6.192   2.382   0.115  0.00  0.00    +0.157 HD
ENDROOT
BRANCH   1   5
ATOM      5  C   UNL     1      -7.139   4.148   0.337  0.00  0.00    +0.141 C 
ATOM      6  S   UNL     1      -6.928   5.813   0.676  0.00  0.00    -0.018 S 
BRANCH   5   7
ATOM      7  N   UNL     1      -8.373   3.660   0.101  0.00  0.00    -0.294 N 
ATOM      8  H   UNL     1      -8.487   2.731  -0.153  0.00  0.00    +0.154 HD
BRANCH   7  14
ATOM      9  C   UNL     1     -10.588   7.937  -0.888  0.00  0.00    +0.044 C 
ATOM     10  C   UNL     1     -10.593   6.573  -0.248  0.00  0.00    -0.048 A 
ATOM     11  C   UNL     1     -11.703   6.147   0.458  0.00  0.00    +0.007 A 
ATOM     12  C   UNL     1     -11.713   4.897   1.048  0.00  0.00    +0.047 A 
ATOM     13  C   UNL     1     -10.610   4.067   0.933  0.00  0.00    +0.138 A 
ATOM     14  C   UNL     1      -9.492   4.495   0.221  0.00  0.00    +0.075 A 
ATOM     15  C   UNL     1      -9.486   5.753  -0.364  0.00  0.00    +0.030 A 
BRANCH  13  16
ATOM     16  O   UNL     1     -10.618   2.837   1.513  0.00  0.00    -0.505 OA
ATOM     17  H   UNL     1     -10.283   2.828   2.420  0.00  0.00    +0.292 HD
ENDBRANCH  13  16
ENDBRANCH   7  14
ENDBRANCH   5   7
ENDBRANCH   1   5
BRANCH   2  18
ATOM     18  C   UNL     1      -3.645   2.894   0.509  0.00  0.00    +0.324 C 
BRANCH  18  19
ATOM     19  O   UNL     1      -2.459   3.641   0.788  0.00  0.00    -0.483 OA
BRANCH  19  20
ATOM     20  C   UNL     1      -1.286   2.956   0.796  0.00  0.00    +0.121 A 
ATOM     21  C   UNL     1      -1.275   1.593   0.534  0.00  0.00    +0.046 A 
ATOM     22  C   UNL     1      -0.081   0.898   0.548  0.00  0.00    +0.007 A 
ATOM     23  C   UNL     1       1.103   1.561   0.812  0.00  0.00    -0.047 A 
ATOM     24  C   UNL     1       1.096   2.920   1.067  0.00  0.00    -0.044 A 
ATOM     25  C   UNL     1      -0.096   3.619   1.060  0.00  0.00    +0.049 A 
ATOM     26  C   UNL     1       2.389   3.639   1.354  0.00  0.00    +0.044 C 
ATOM     27  C   UNL     1       2.405   0.802   0.821  0.00  0.00    +0.044 C 
ENDBRANCH  19  20
ENDBRANCH  18  19
ENDBRANCH   2  18
TORSDOF 7
