REMARK  Name = ZINC46836240
REMARK  4 active torsions:
REMARK  status: ('A' for Active; 'I' for Inactive)
REMARK    1  A    between atoms: C_10  and  C_16
REMARK    2  A    between atoms: C_21  and  O_22
REMARK    3  A    between atoms: O_22  and  C_23
REMARK    4  A    between atoms: C_23  and  C_24
REMARK                            x       y       z     vdW  Elec       q    Type
REMARK                         _______ _______ _______ _____ _____    ______ ____
ROOT
ATOM      1  C   UNL     1       2.241  -4.949   1.691  0.00  0.00    +0.002 A 
ATOM      2  C   UNL     1       1.951  -3.630   2.005  0.00  0.00    +0.002 A 
ATOM      3  C   UNL     1       2.709  -2.603   1.482  0.00  0.00    +0.028 A 
ATOM      4  C   UNL     1       3.771  -2.887   0.635  0.00  0.00    +0.072 A 
ATOM      5  C   UNL     1       4.067  -4.224   0.312  0.00  0.00    +0.091 A 
ATOM      6  C   UNL     1       3.290  -5.252   0.851  0.00  0.00    +0.030 A 
ATOM      7  N   UNL     1       5.138  -4.209  -0.528  0.00  0.00    -0.214 NA
ATOM      8  C   UNL     1       5.509  -2.979  -0.738  0.00  0.00    +0.205 A 
ATOM      9  N   UNL     1       4.699  -2.122  -0.033  0.00  0.00    -0.288 N 
ATOM     10  C   UNL     1       4.863  -0.664  -0.035  0.00  0.00    +0.212 C 
ATOM     11  N   UNL     1       5.765  -0.315  -1.148  0.00  0.00    -0.294 N 
ATOM     12  C   UNL     1       6.840  -1.156  -1.400  0.00  0.00    +0.159 C 
ATOM     13  N   UNL     1       6.549  -2.514  -1.538  0.00  0.00    -0.259 N 
ATOM     14  N   UNL     1       8.056  -0.701  -1.502  0.00  0.00    -0.375 N 
ATOM     15  H   UNL     1       5.611   0.476  -1.688  0.00  0.00    +0.151 HD
ATOM     16  H   UNL     1       8.229   0.248  -1.401  0.00  0.00    +0.158 HD
ATOM     17  H   UNL     1       7.037  -3.091  -2.147  0.00  0.00    +0.158 HD
ATOM     18  H   UNL     1       8.789  -1.311  -1.678  0.00  0.00    +0.158 HD
ENDROOT
BRANCH  10  19
ATOM     19  C   UNL     1       5.465  -0.217   1.272  0.00  0.00    +0.036 A 
ATOM     20  C   UNL     1       6.076  -1.137   2.103  0.00  0.00    +0.031 A 
ATOM     21  C   UNL     1       6.630  -0.726   3.302  0.00  0.00    +0.042 A 
ATOM     22  C   UNL     1       6.572   0.606   3.673  0.00  0.00    +0.023 A 
ATOM     23  C   UNL     1       5.962   1.528   2.845  0.00  0.00    +0.047 A 
ATOM     24  C   UNL     1       5.412   1.120   1.639  0.00  0.00    +0.128 A 
ATOM     25 CL   UNL     1       7.396  -1.883   4.344  0.00  0.00    -0.084 Cl
BRANCH  24  26
ATOM     26  O   UNL     1       4.816   2.027   0.821  0.00  0.00    -0.487 OA
BRANCH  26  27
ATOM     27  C   UNL     1       4.873   3.397   1.221  0.00  0.00    +0.266 C 
BRANCH  27  28
ATOM     28  C   UNL     1       4.213   4.255   0.172  0.00  0.00    +0.008 A 
ATOM     29  C   UNL     1       4.969   4.848  -0.828  0.00  0.00    +0.010 A 
ATOM     30  C   UNL     1       4.319   5.628  -1.771  0.00  0.00    +0.020 A 
ATOM     31  C   UNL     1       2.949   5.789  -1.684  0.00  0.00    +0.111 A 
ATOM     32  N   UNL     1       2.262   5.210  -0.719  0.00  0.00    -0.263 NA
ATOM     33  C   UNL     1       2.846   4.456   0.192  0.00  0.00    +0.117 A 
ENDBRANCH  27  28
ENDBRANCH  26  27
ENDBRANCH  24  26
ENDBRANCH  10  19
TORSDOF 4
