REMARK  Name = ZINC44747843
REMARK  3 active torsions:
REMARK  status: ('A' for Active; 'I' for Inactive)
REMARK    1  A    between atoms: C_1  and  C_2
REMARK    2  A    between atoms: C_4  and  N_18
REMARK    3  A    between atoms: C_7  and  C_8
REMARK                            x       y       z     vdW  Elec       q    Type
REMARK                         _______ _______ _______ _____ _____    ______ ____
ROOT
ATOM      1  C   UNL     1      -0.018   1.503   0.010  0.00  0.00    +0.044 C 
ATOM      2  C   UNL     1       0.002  -0.004   0.002  0.00  0.00    -0.040 A 
ATOM      3  C   UNL     1       0.006  -0.689  -1.196  0.00  0.00    +0.036 A 
ATOM      4  C   UNL     1       0.025  -2.072  -1.205  0.00  0.00    +0.126 A 
ATOM      5  C   UNL     1       0.040  -2.778  -0.015  0.00  0.00    +0.033 A 
ATOM      6  C   UNL     1       0.037  -2.105   1.189  0.00  0.00    +0.011 A 
ATOM      7  C   UNL     1       0.023  -0.710   1.206  0.00  0.00    -0.008 A 
ENDROOT
BRANCH   7   8
ATOM      8  C   UNL     1       0.025   0.018   2.493  0.00  0.00    +0.022 A 
ATOM      9  C   UNL     1      -0.774  -0.175   3.576  0.00  0.00    +0.044 A 
ATOM     10  C   UNL     1      -0.614   0.627   4.715  0.00  0.00    +0.083 A 
ATOM     11  C   UNL     1       0.407   1.607   4.631  0.00  0.00    +0.075 A 
ATOM     12  S   UNL     1       1.081   1.361   3.010  0.00  0.00    -0.084 S 
ATOM     13  C   UNL     1       0.664   2.457   5.681  0.00  0.00    +0.147 A 
ATOM     14  N   UNL     1      -0.068   2.341   6.784  0.00  0.00    -0.223 NA
ATOM     15  C   UNL     1      -1.018   1.425   6.856  0.00  0.00    +0.223 A 
ATOM     16  N   UNL     1      -1.298   0.596   5.884  0.00  0.00    -0.235 NA
ATOM     17 CL   UNL     1       1.917   3.654   5.569  0.00  0.00    -0.061 Cl
ENDBRANCH   7   8
BRANCH   4  18
ATOM     18  N   UNL     1       0.028  -2.800  -2.494  0.00  0.00    +0.056 N 
ATOM     19  O   UNL     1       0.014  -2.186  -3.535  0.00  0.00    -0.126 OA
ATOM     20  O   UNL     1       0.044  -4.009  -2.505  0.00  0.00    -0.126 OA
ENDBRANCH   4  18
TORSDOF 2
