REMARK  Name = ZINC20827379
REMARK  9 active torsions:
REMARK  status: ('A' for Active; 'I' for Inactive)
REMARK    1  A    between atoms: C_1  and  C_2
REMARK    2  A    between atoms: C_2  and  C_3
REMARK    3  A    between atoms: C_2  and  C_4
REMARK    4  A    between atoms: C_7  and  C_18
REMARK    5  A    between atoms: C_8  and  N_10
REMARK    6  A    between atoms: N_10  and  C_11
REMARK    7  A    between atoms: C_11  and  C_12
REMARK    8  A    between atoms: C_21  and  C_24
REMARK    9  A    between atoms: C_21  and  C_25
REMARK                            x       y       z     vdW  Elec       q    Type
REMARK                         _______ _______ _______ _____ _____    ______ ____
ROOT
ATOM      1  C   UNL     1       7.204  -2.659  -0.909  0.00  0.00    +0.052 A 
ATOM      2  C   UNL     1       7.659  -2.911  -2.194  0.00  0.00    +0.004 A 
ATOM      3  C   UNL     1       6.905  -2.494  -3.270  0.00  0.00    -0.017 A 
ATOM      4  C   UNL     1       5.701  -1.820  -3.026  0.00  0.00    +0.095 A 
ATOM      5  C   UNL     1       5.308  -1.600  -1.695  0.00  0.00    +0.137 A 
ATOM      6  N   UNL     1       6.070  -2.020  -0.697  0.00  0.00    -0.235 NA
ATOM      7  C   UNL     1       7.341  -2.749  -4.687  0.00  0.00    +0.071 C 
ATOM      8  C   UNL     1       8.828  -3.110  -4.711  0.00  0.00    +0.068 C 
ATOM      9  O   UNL     1       9.068  -4.119  -3.724  0.00  0.00    -0.369 OA
ATOM     10  C   UNL     1       8.966  -3.634  -2.385  0.00  0.00    +0.198 C 
ATOM     11  C   UNL     1       9.663  -1.868  -4.391  0.00  0.00    +0.041 C 
ATOM     12  C   UNL     1       9.209  -3.643  -6.094  0.00  0.00    +0.041 C 
ENDROOT
BRANCH   1  14
ATOM     13  C   UNL     1       8.418  -1.908   1.119  0.00  0.00    +0.014 C 
ATOM     14  C   UNL     1       8.024  -3.118   0.269  0.00  0.00    +0.032 C 
ATOM     15  C   UNL     1       7.201  -4.090   1.117  0.00  0.00    +0.014 C 
ENDBRANCH   1  14
BRANCH   5  16
ATOM     16  N   UNL     1       4.123  -0.938  -1.426  0.00  0.00    -0.324 N 
ATOM     17  H   UNL     1       3.491  -0.584  -2.254  0.00  0.00    +0.148 HD
BRANCH  16  18
ATOM     18  C   UNL     1       3.711  -0.707  -0.039  0.00  0.00    +0.138 C 
BRANCH  18  19
ATOM     19  C   UNL     1       2.396   0.029  -0.022  0.00  0.00    -0.030 A 
ATOM     20  C   UNL     1       1.208  -0.679  -0.014  0.00  0.00    +0.005 A 
ATOM     21  C   UNL     1       0.002  -0.004   0.002  0.00  0.00    +0.000 A 
ATOM     22  C   UNL     1      -0.017   1.378   0.010  0.00  0.00    +0.000 A 
ATOM     23  C   UNL     1       1.171   2.086   0.002  0.00  0.00    +0.000 A 
ATOM     24  C   UNL     1       2.377   1.411  -0.014  0.00  0.00    +0.005 A 
ENDBRANCH  18  19
ENDBRANCH  16  18
ENDBRANCH   5  16
BRANCH   4  25
ATOM     25  C   UNL     1       4.887  -1.365  -4.112  0.00  0.00    +0.103 C 
ATOM     26  N   UNL     1       4.241  -1.004  -4.974  0.00  0.00    -0.191 NA
ENDBRANCH   4  25
TORSDOF 5
