REMARK  Name = ZINC63751135
REMARK  9 active torsions:
REMARK  status: ('A' for Active; 'I' for Inactive)
REMARK    1  A    between atoms: C_1  and  O_2
REMARK    2  A    between atoms: O_2  and  C_3
REMARK    3  A    between atoms: C_8  and  S_13
REMARK    4  A    between atoms: S_13  and  C_14
REMARK    5  A    between atoms: C_14  and  C_15
REMARK    6  A    between atoms: C_15  and  C_17
REMARK    7  A    between atoms: C_15  and  O_29
REMARK    8  A    between atoms: C_17  and  O_18
REMARK    9  A    between atoms: O_18  and  C_19
REMARK                            x       y       z     vdW  Elec       q    Type
REMARK                         _______ _______ _______ _____ _____    ______ ____
ROOT
ATOM      1  C   UNL     1      -0.339  -3.826  -5.147  0.00  0.00    +0.107 C 
ENDROOT
BRANCH   1   2
ATOM      2  S   UNL     1       1.191  -4.797  -5.061  0.00  0.00    -0.112 S 
BRANCH   2   8
ATOM      3  C   UNL     1       0.605  -0.606  -1.054  0.00  0.00    +0.122 A 
ATOM      4  C   UNL     1       1.193   0.221  -2.099  0.00  0.00    +0.048 A 
ATOM      5  C   UNL     1       1.804  -0.317  -3.171  0.00  0.00    +0.031 A 
ATOM      6  C   UNL     1       1.890  -1.778  -3.307  0.00  0.00    +0.061 A 
ATOM      7  N   UNL     1       2.412  -2.544  -4.221  0.00  0.00    -0.355 N 
ATOM      8  C   UNL     1       2.188  -3.936  -3.814  0.00  0.00    +0.235 C 
ATOM      9  N   UNL     1       1.464  -3.883  -2.538  0.00  0.00    -0.355 N 
ATOM     10  C   UNL     1       1.289  -2.624  -2.240  0.00  0.00    +0.064 A 
ATOM     11  C   UNL     1       0.647  -1.960  -1.104  0.00  0.00    +0.073 A 
ATOM     12  H   UNL     1       2.866  -2.248  -5.026  0.00  0.00    +0.162 HD
ATOM     13  H   UNL     1       1.171  -4.644  -2.012  0.00  0.00    +0.162 HD
BRANCH   3  15
ATOM     14  C   UNL     1      -0.017   1.425   0.010  0.00  0.00    +0.277 C 
ATOM     15  O   UNL     1       0.002  -0.004   0.002  0.00  0.00    -0.495 OA
ENDBRANCH   3  15
ENDBRANCH   2   8
ENDBRANCH   1   2
BRANCH   1  16
ATOM     16  C   UNL     1      -1.283  -4.451  -6.176  0.00  0.00    +0.162 C 
BRANCH  16  17
ATOM     17  O   UNL     1      -0.651  -4.460  -7.458  0.00  0.00    -0.388 OA
ATOM     18  H   UNL     1      -0.413  -3.582  -7.786  0.00  0.00    +0.210 HD
ENDBRANCH  16  17
BRANCH  16  19
ATOM     19  C   UNL     1      -2.573  -3.632  -6.249  0.00  0.00    +0.261 C 
BRANCH  19  20
ATOM     20  O   UNL     1      -3.500  -4.280  -7.122  0.00  0.00    -0.489 OA
BRANCH  20  21
ATOM     21  C   UNL     1      -4.705  -3.678  -7.299  0.00  0.00    +0.121 A 
ATOM     22  C   UNL     1      -4.979  -2.475  -6.639  0.00  0.00    +0.046 A 
ATOM     23  C   UNL     1      -6.176  -1.849  -6.796  0.00  0.00    +0.012 A 
ATOM     24  C   UNL     1      -7.154  -2.414  -7.633  0.00  0.00    -0.018 A 
ATOM     25  C   UNL     1      -8.402  -1.794  -7.817  0.00  0.00    +0.008 A 
ATOM     26  C   UNL     1      -9.325  -2.368  -8.635  0.00  0.00    +0.001 A 
ATOM     27  C   UNL     1      -9.055  -3.566  -9.294  0.00  0.00    +0.001 A 
ATOM     28  C   UNL     1      -7.858  -4.196  -9.139  0.00  0.00    +0.008 A 
ATOM     29  C   UNL     1      -6.879  -3.633  -8.303  0.00  0.00    -0.014 A 
ATOM     30  C   UNL     1      -5.631  -4.252  -8.123  0.00  0.00    +0.054 A 
ENDBRANCH  20  21
ENDBRANCH  19  20
ENDBRANCH  16  19
ENDBRANCH   1  16
TORSDOF 8
