REMARK  Name = ZINC58092316
REMARK  6 active torsions:
REMARK  status: ('A' for Active; 'I' for Inactive)
REMARK    1  A    between atoms: C_1  and  C_2
REMARK    2  A    between atoms: C_4  and  C_14
REMARK    3  A    between atoms: C_8  and  C_12
REMARK    4  A    between atoms: C_8  and  C_13
REMARK    5  A    between atoms: C_14  and  C_16
REMARK    6  A    between atoms: C_14  and  O_22
REMARK                            x       y       z     vdW  Elec       q    Type
REMARK                         _______ _______ _______ _____ _____    ______ ____
ROOT
ATOM      1  C   UNL     1      -0.018   1.503   0.010  0.00  0.00    +0.044 C 
ATOM      2  C   UNL     1       0.002  -0.004   0.002  0.00  0.00    -0.050 A 
ATOM      3  C   UNL     1       0.006  -0.691  -1.198  0.00  0.00    +0.011 A 
ATOM      4  C   UNL     1       0.025  -2.070  -1.213  0.00  0.00    +0.005 A 
ATOM      5  C   UNL     1       0.040  -2.782  -0.015  0.00  0.00    +0.043 A 
ATOM      6  C   UNL     1       0.037  -2.081   1.184  0.00  0.00    -0.011 A 
ATOM      7  C   UNL     1       0.023  -0.704   1.196  0.00  0.00    +0.009 A 
ATOM      8  C   UNL     1       0.056  -3.118   2.283  0.00  0.00    +0.068 C 
ATOM      9  C   UNL     1       0.071  -4.439   1.543  0.00  0.00    +0.227 C 
ATOM     10  O   UNL     1       0.088  -5.544   2.042  0.00  0.00    -0.275 OA
ATOM     11  N   UNL     1       0.060  -4.156   0.229  0.00  0.00    -0.284 N 
ATOM     12  C   UNL     1       1.316  -2.969   3.138  0.00  0.00    +0.025 C 
ATOM     13  C   UNL     1      -1.198  -3.003   3.151  0.00  0.00    +0.025 C 
ATOM     14  H   UNL     1       0.066  -4.829  -0.469  0.00  0.00    +0.155 HD
ENDROOT
BRANCH   4  15
ATOM     15  C   UNL     1       0.028  -2.808  -2.527  0.00  0.00    +0.175 C 
BRANCH  15  16
ATOM     16  C   UNL     1      -1.407  -3.187  -2.902  0.00  0.00    +0.151 C 
ATOM     17  C   UNL     1      -1.429  -3.828  -4.306  0.00  0.00    +0.037 C 
ATOM     18  C   UNL     1      -2.726  -3.234  -4.920  0.00  0.00    +0.031 C 
ATOM     19  C   UNL     1      -2.735  -1.823  -4.279  0.00  0.00    +0.160 C 
ATOM     20  O   UNL     1      -2.224  -2.012  -2.948  0.00  0.00    -0.374 OA
ENDBRANCH  15  16
BRANCH  15  21
ATOM     21  O   UNL     1       0.580  -1.969  -3.543  0.00  0.00    -0.385 OA
ATOM     22  H   UNL     1       0.093  -1.145  -3.680  0.00  0.00    +0.210 HD
ENDBRANCH  15  21
ENDBRANCH   4  15
TORSDOF 3
