REMARK  Name = ZINC60354895
REMARK  8 active torsions:
REMARK  status: ('A' for Active; 'I' for Inactive)
REMARK    1  A    between atoms: C_1  and  C_2
REMARK    2  A    between atoms: C_5  and  C_7
REMARK    3  A    between atoms: C_7  and  C_9
REMARK    4  A    between atoms: C_7  and  N_28
REMARK    5  A    between atoms: C_9  and  N_10
REMARK    6  A    between atoms: C_11  and  C_13
REMARK    7  A    between atoms: C_16  and  N_19
REMARK    8  A    between atoms: C_22  and  C_24
REMARK                            x       y       z     vdW  Elec       q    Type
REMARK                         _______ _______ _______ _____ _____    ______ ____
ROOT
ATOM      1  N   UNL     1       3.139  -4.616  -1.417  0.00  0.00    -0.312 N 
ATOM      2  C   UNL     1       3.697  -5.031  -2.571  0.00  0.00    +0.244 C 
ATOM      3  O   UNL     1       3.299  -4.592  -3.632  0.00  0.00    -0.270 OA
ATOM      4  H   UNL     1       3.457  -4.966  -0.571  0.00  0.00    +0.149 HD
ENDROOT
BRANCH   2   5
ATOM      5  C   UNL     1       4.794  -6.020  -2.547  0.00  0.00    +0.037 A 
ATOM      6  C   UNL     1       5.249  -6.531  -1.329  0.00  0.00    +0.015 A 
ATOM      7  C   UNL     1       6.272  -7.453  -1.310  0.00  0.00    +0.028 A 
ATOM      8  C   UNL     1       6.850  -7.877  -2.501  0.00  0.00    +0.065 A 
ATOM      9  C   UNL     1       6.400  -7.371  -3.716  0.00  0.00    +0.028 A 
ATOM     10  C   UNL     1       5.374  -6.452  -3.742  0.00  0.00    +0.015 A 
BRANCH   8  11
ATOM     11  N   UNL     1       7.888  -8.813  -2.478  0.00  0.00    -0.239 N 
ATOM     12  C   UNL     1       8.544  -9.308  -3.560  0.00  0.00    +0.115 A 
ATOM     13  C   UNL     1       9.473 -10.183  -3.111  0.00  0.00    +0.054 A 
ATOM     14  C   UNL     1       9.385 -10.228  -1.715  0.00  0.00    +0.166 A 
ATOM     15  N   UNL     1       8.441  -9.405  -1.335  0.00  0.00    -0.162 NA
BRANCH  14  16
ATOM     16  C   UNL     1      10.236 -11.075  -0.804  0.00  0.00    +0.436 C 
ATOM     17  F   UNL     1      11.380 -10.359  -0.436  0.00  0.00    -0.164 F 
ATOM     18  F   UNL     1       9.505 -11.407   0.342  0.00  0.00    -0.164 F 
ATOM     19  F   UNL     1      10.613 -12.244  -1.472  0.00  0.00    -0.164 F 
ENDBRANCH  14  16
ENDBRANCH   8  11
ENDBRANCH   2   5
BRANCH   1  20
ATOM     20  C   UNL     1       2.052  -3.634  -1.442  0.00  0.00    +0.097 C 
BRANCH  20  21
ATOM     21  C   UNL     1       1.514  -3.434  -0.023  0.00  0.00    +0.016 C 
BRANCH  21  26
ATOM     22  C   UNL     1      -1.860  -7.122   0.647  0.00  0.00    +0.086 C 
ATOM     23  C   UNL     1      -0.592  -6.315   0.749  0.00  0.00    +0.102 A 
ATOM     24  C   UNL     1       0.498  -6.649   1.464  0.00  0.00    +0.044 A 
ATOM     25  C   UNL     1       1.444  -5.615   1.276  0.00  0.00    +0.043 A 
ATOM     26  C   UNL     1       0.876  -4.712   0.457  0.00  0.00    +0.093 A 
ATOM     27  O   UNL     1      -0.355  -5.144   0.137  0.00  0.00    -0.466 OA
ENDBRANCH  21  26
BRANCH  21  28
ATOM     28  N   UNL     1       0.514  -2.358  -0.026  0.00  0.00    +0.387 N 
ATOM     29  C   UNL     1      -0.017  -2.148   1.345  0.00  0.00    -0.078 C 
ATOM     30  C   UNL     1      -0.573  -0.703   1.293  0.00  0.00    -0.020 C 
ATOM     31  C   UNL     1       0.455   0.031   0.402  0.00  0.00    -0.020 C 
ATOM     32  C   UNL     1       1.143  -1.077  -0.415  0.00  0.00    -0.078 C 
ATOM     33  H   UNL     1      -0.238  -2.583  -0.660  0.00  0.00    -0.081 HD
ENDBRANCH  21  28
ENDBRANCH  20  21
ENDBRANCH   1  20
TORSDOF 7
