REMARK  Name = ZINC66199987
REMARK  15 active torsions:
REMARK  status: ('A' for Active; 'I' for Inactive)
REMARK    1  A    between atoms: C_1  and  C_2
REMARK    2  A    between atoms: C_2  and  C_3
REMARK    3  A    between atoms: C_3  and  C_5
REMARK    4  A    between atoms: C_3  and  N_6
REMARK    5  A    between atoms: C_7  and  C_9
REMARK    6  A    between atoms: C_12  and  N_15
REMARK    7  A    between atoms: N_15  and  C_16
REMARK    8  A    between atoms: C_16  and  N_18
REMARK    9  A    between atoms: C_19  and  C_21
REMARK   10  A    between atoms: C_21  and  C_23
REMARK   11  A    between atoms: C_21  and  C_24
REMARK   12  A    between atoms: C_27  and  C_30
REMARK   13  A    between atoms: C_30  and  C_31
REMARK   14  A    between atoms: C_31  and  C_32
REMARK   15  A    between atoms: C_31  and  C_33
REMARK                            x       y       z     vdW  Elec       q    Type
REMARK                         _______ _______ _______ _____ _____    ______ ____
ROOT
ATOM      1  C   UNL     1      -1.787   1.741  -9.357  0.00  0.00    +0.141 C 
ATOM      2  S   UNL     1      -0.102   1.468  -9.492  0.00  0.00    -0.018 S 
ENDROOT
BRANCH   1   3
ATOM      3  N   UNL     1      -2.484   2.191 -10.419  0.00  0.00    -0.267 N 
ATOM      4  C   UNL     1      -1.855   2.426 -11.587  0.00  0.00    +0.226 C 
ATOM      5  O   UNL     1      -0.662   2.232 -11.683  0.00  0.00    -0.275 OA
ATOM      6  H   UNL     1      -3.438   2.346 -10.342  0.00  0.00    +0.157 HD
BRANCH   4   7
ATOM      7  C   UNL     1      -2.635   2.929 -12.775  0.00  0.00    +0.102 C 
ATOM      8  C   UNL     1      -3.722   1.916 -13.138  0.00  0.00    +0.022 C 
BRANCH   7   9
ATOM      9  C   UNL     1      -1.704   3.109 -13.947  0.00  0.00    -0.036 A 
ATOM     10  C   UNL     1      -1.005   2.027 -14.447  0.00  0.00    +0.004 A 
ATOM     11  C   UNL     1      -0.152   2.192 -15.522  0.00  0.00    +0.004 A 
ATOM     12  C   UNL     1       0.002   3.439 -16.097  0.00  0.00    -0.047 A 
ATOM     13  C   UNL     1      -0.698   4.521 -15.598  0.00  0.00    +0.004 A 
ATOM     14  C   UNL     1      -1.555   4.356 -14.525  0.00  0.00    +0.004 A 
BRANCH  12  15
ATOM     15  C   UNL     1       0.932   3.619 -17.269  0.00  0.00    +0.038 C 
BRANCH  15  16
ATOM     16  C   UNL     1       0.162   3.396 -18.571  0.00  0.00    -0.013 C 
ATOM     17  C   UNL     1      -0.901   4.485 -18.728  0.00  0.00    +0.007 C 
ATOM     18  C   UNL     1       1.131   3.455 -19.754  0.00  0.00    +0.007 C 
ENDBRANCH  15  16
ENDBRANCH  12  15
ENDBRANCH   7   9
ENDBRANCH   4   7
ENDBRANCH   1   3
BRANCH   1  19
ATOM     19  N   UNL     1      -2.416   1.506  -8.188  0.00  0.00    -0.297 N 
ATOM     20  H   UNL     1      -3.381   1.583  -8.133  0.00  0.00    +0.154 HD
BRANCH  19  24
ATOM     21  C   UNL     1      -0.215   0.449  -4.814  0.00  0.00    +0.037 A 
ATOM     22  C   UNL     1       0.246   1.459  -5.663  0.00  0.00    +0.015 A 
ATOM     23  C   UNL     1      -0.483   1.806  -6.777  0.00  0.00    +0.024 A 
ATOM     24  C   UNL     1      -1.679   1.152  -7.059  0.00  0.00    +0.033 A 
ATOM     25  C   UNL     1      -2.141   0.145  -6.217  0.00  0.00    +0.024 A 
ATOM     26  C   UNL     1      -1.413  -0.210  -5.104  0.00  0.00    +0.015 A 
BRANCH  21  28
ATOM     27  N   UNL     1       1.721   0.710  -3.342  0.00  0.00    -0.309 N 
ATOM     28  C   UNL     1       0.565   0.074  -3.619  0.00  0.00    +0.244 C 
ATOM     29  O   UNL     1       0.165  -0.809  -2.884  0.00  0.00    -0.270 OA
ATOM     30  H   UNL     1       2.039   1.414  -3.928  0.00  0.00    +0.149 HD
BRANCH  27  31
ATOM     31  C   UNL     1       2.495   0.337  -2.155  0.00  0.00    +0.070 C 
ATOM     32  C   UNL     1       1.957   1.093  -0.938  0.00  0.00    +0.028 C 
BRANCH  31  34
ATOM     33  C   UNL     1       4.537  -0.148  -3.510  0.00  0.00    +0.005 C 
ATOM     34  C   UNL     1       3.966   0.700  -2.371  0.00  0.00    +0.018 C 
ENDBRANCH  31  34
ENDBRANCH  27  31
ENDBRANCH  21  28
ENDBRANCH  19  24
ENDBRANCH   1  19
TORSDOF 10
