REMARK  Name = ZINC36342139
REMARK  14 active torsions:
REMARK  status: ('A' for Active; 'I' for Inactive)
REMARK    1  A    between atoms: C_1  and  C_2
REMARK    2  A    between atoms: C_3  and  C_20
REMARK    3  A    between atoms: C_4  and  O_13
REMARK    4  A    between atoms: N_5  and  C_7
REMARK    5  A    between atoms: O_13  and  C_14
REMARK    6  A    between atoms: C_20  and  N_21
REMARK    7  A    between atoms: N_21  and  C_22
REMARK    8  A    between atoms: N_21  and  C_29
REMARK    9  A    between atoms: C_22  and  C_23
REMARK   10  A    between atoms: C_29  and  C_30
REMARK   11  A    between atoms: C_30  and  C_32
REMARK   12  A    between atoms: C_30  and  O_35
REMARK   13  A    between atoms: C_32  and  C_33
REMARK   14  A    between atoms: C_32  and  C_34
REMARK                            x       y       z     vdW  Elec       q    Type
REMARK                         _______ _______ _______ _____ _____    ______ ____
ROOT
ATOM      1  C   UNL     1       1.060   1.661  -0.035  0.00  0.00    +0.068 C 
ATOM      2  C   UNL     1       0.734   0.199   0.132  0.00  0.00    +0.065 A 
ATOM      3  C   UNL     1       0.288  -0.660  -0.877  0.00  0.00    +0.021 A 
ATOM      4  C   UNL     1       0.107  -1.891  -0.329  0.00  0.00    +0.225 A 
ATOM      5  N   UNL     1       0.432  -1.802   0.989  0.00  0.00    -0.200 N 
ATOM      6  N   UNL     1       0.826  -0.483   1.245  0.00  0.00    -0.168 NA
ENDROOT
BRANCH   5   7
ATOM      7  C   UNL     1       0.387  -2.847   1.922  0.00  0.00    +0.069 A 
ATOM      8  C   UNL     1      -0.694  -3.719   1.938  0.00  0.00    +0.028 A 
ATOM      9  C   UNL     1      -0.736  -4.747   2.860  0.00  0.00    +0.002 A 
ATOM     10  C   UNL     1       0.297  -4.909   3.765  0.00  0.00    +0.000 A 
ATOM     11  C   UNL     1       1.373  -4.041   3.752  0.00  0.00    +0.002 A 
ATOM     12  C   UNL     1       1.424  -3.015   2.830  0.00  0.00    +0.028 A 
ENDBRANCH   5   7
BRANCH   4  13
ATOM     13  O   UNL     1      -0.320  -3.004  -0.978  0.00  0.00    -0.438 OA
BRANCH  13  14
ATOM     14  C   UNL     1      -1.659  -3.205  -1.085  0.00  0.00    +0.130 A 
ATOM     15  C   UNL     1      -2.546  -2.234  -0.641  0.00  0.00    +0.046 A 
ATOM     16  C   UNL     1      -3.907  -2.441  -0.752  0.00  0.00    +0.004 A 
ATOM     17  C   UNL     1      -4.387  -3.614  -1.304  0.00  0.00    +0.000 A 
ATOM     18  C   UNL     1      -3.506  -4.583  -1.747  0.00  0.00    +0.004 A 
ATOM     19  C   UNL     1      -2.143  -4.379  -1.644  0.00  0.00    +0.046 A 
ENDBRANCH  13  14
ENDBRANCH   4  13
BRANCH   3  20
ATOM     20  C   UNL     1       0.049  -0.287  -2.318  0.00  0.00    -0.035 C 
BRANCH  20  21
ATOM     21  N   UNL     1       1.312  -0.379  -3.063  0.00  0.00    +0.387 N 
ATOM     22  H   UNL     1       2.020   0.166  -2.595  0.00  0.00    -0.081 HD
BRANCH  21  23
ATOM     23  C   UNL     1       1.739  -1.783  -3.131  0.00  0.00    -0.042 C 
BRANCH  23  24
ATOM     24  C   UNL     1       3.093  -1.865  -3.787  0.00  0.00    -0.064 A 
ATOM     25  C   UNL     1       3.188  -2.006  -5.159  0.00  0.00    +0.002 A 
ATOM     26  C   UNL     1       4.430  -2.082  -5.761  0.00  0.00    +0.000 A 
ATOM     27  C   UNL     1       5.577  -2.016  -4.992  0.00  0.00    +0.000 A 
ATOM     28  C   UNL     1       5.481  -1.874  -3.620  0.00  0.00    +0.000 A 
ATOM     29  C   UNL     1       4.239  -1.795  -3.018  0.00  0.00    +0.002 A 
ENDBRANCH  23  24
ENDBRANCH  21  23
BRANCH  21  30
ATOM     30  C   UNL     1       1.116   0.139  -4.424  0.00  0.00    -0.046 C 
BRANCH  30  31
ATOM     31  C   UNL     1       0.824   1.639  -4.362  0.00  0.00    +0.101 C 
BRANCH  31  32
ATOM     32  C   UNL     1       0.572   2.169  -5.774  0.00  0.00    +0.010 C 
ATOM     33  C   UNL     1      -0.698   1.530  -6.340  0.00  0.00    +0.010 C 
ATOM     34  C   UNL     1       0.400   3.689  -5.726  0.00  0.00    +0.010 C 
ENDBRANCH  31  32
BRANCH  31  35
ATOM     35  O   UNL     1       1.944   2.319  -3.791  0.00  0.00    -0.393 OA
ATOM     36  H   UNL     1       2.766   2.209  -4.288  0.00  0.00    +0.210 HD
ENDBRANCH  31  35
ENDBRANCH  30  31
ENDBRANCH  21  30
ENDBRANCH  20  21
ENDBRANCH   3  20
TORSDOF 11
