REMARK  Name = ZINC62071780
REMARK  8 active torsions:
REMARK  status: ('A' for Active; 'I' for Inactive)
REMARK    1  A    between atoms: C_1  and  C_2
REMARK    2  A    between atoms: C_2  and  C_4
REMARK    3  A    between atoms: C_2  and  C_17
REMARK    4  A    between atoms: C_4  and  N_5
REMARK    5  A    between atoms: N_5  and  C_6
REMARK    6  A    between atoms: C_6  and  C_7
REMARK    7  A    between atoms: C_10  and  N_14
REMARK    8  A    between atoms: C_17  and  N_18
REMARK                            x       y       z     vdW  Elec       q    Type
REMARK                         _______ _______ _______ _____ _____    ______ ____
ROOT
ATOM      1  N   UNL     1       2.153  -0.127  -1.045  0.00  0.00    +0.382 N 
ATOM      2  H   UNL     1       2.196   0.881  -1.069  0.00  0.00    -0.085 HD
ATOM      3  H   UNL     1       2.580  -0.462  -0.195  0.00  0.00    -0.085 HD
ENDROOT
BRANCH   1   4
ATOM      4  C   UNL     1       0.749  -0.557  -1.090  0.00  0.00    -0.081 C 
BRANCH   4   6
ATOM      5  C   UNL     1      -0.040   1.540   0.015  0.00  0.00    +0.004 C 
ATOM      6  C   UNL     1       0.002   0.014   0.117  0.00  0.00    -0.048 C 
BRANCH   6   7
ATOM      7  C   UNL     1      -1.427  -0.534   0.139  0.00  0.00    -0.078 C 
BRANCH   7   8
ATOM      8  N   UNL     1      -1.391  -1.984   0.371  0.00  0.00    +0.380 N 
ATOM      9  C   UNL     1      -0.938  -2.270   1.756  0.00  0.00    -0.079 C 
ATOM     10  C   UNL     1      -1.480  -3.698   2.019  0.00  0.00    -0.020 C 
ATOM     11  C   UNL     1      -2.851  -3.684   1.306  0.00  0.00    -0.020 C 
ATOM     12  C   UNL     1      -2.753  -2.551   0.266  0.00  0.00    -0.079 C 
ATOM     13  H   UNL     1      -0.777  -2.429  -0.296  0.00  0.00    -0.082 HD
ENDBRANCH   7   8
ENDBRANCH   6   7
ENDBRANCH   4   6
ENDBRANCH   1   4
BRANCH   1  14
ATOM     14  C   UNL     1       2.870  -0.675  -2.204  0.00  0.00    -0.046 C 
BRANCH  14  15
ATOM     15  C   UNL     1       4.310  -0.233  -2.158  0.00  0.00    -0.050 A 
ATOM     16  C   UNL     1       4.732   0.830  -2.934  0.00  0.00    +0.005 A 
ATOM     17  C   UNL     1       6.053   1.236  -2.892  0.00  0.00    +0.033 A 
ATOM     18  C   UNL     1       6.952   0.578  -2.074  0.00  0.00    +0.127 A 
ATOM     19  C   UNL     1       6.532  -0.485  -1.298  0.00  0.00    +0.048 A 
ATOM     20  C   UNL     1       5.209  -0.888  -1.335  0.00  0.00    +0.021 A 
ATOM     21 BR   UNL     1       4.630  -2.338  -0.268  0.00  0.00    -0.050 Br
BRANCH  18  22
ATOM     22  N   UNL     1       8.367   1.012  -2.029  0.00  0.00    +0.056 N 
ATOM     23  O   UNL     1       8.735   1.942  -2.708  0.00  0.00    -0.126 OA
ATOM     24  O   UNL     1       9.153   0.438  -1.314  0.00  0.00    -0.126 OA
ENDBRANCH  18  22
ENDBRANCH  14  15
ENDBRANCH   1  14
TORSDOF 7
