REMARK  Name = ZINC13063703
REMARK  14 active torsions:
REMARK  status: ('A' for Active; 'I' for Inactive)
REMARK    1  A    between atoms: C_1  and  C_2
REMARK    2  A    between atoms: C_2  and  C_3
REMARK    3  A    between atoms: C_10  and  C_15
REMARK    4  A    between atoms: C_15  and  N_70
REMARK    5  A    between atoms: C_16  and  C_17
REMARK    6  A    between atoms: C_16  and  N_70
REMARK    7  A    between atoms: C_22  and  C_24
REMARK    8  A    between atoms: C_22  and  C_26
REMARK    9  A    between atoms: C_22  and  N_70
REMARK   10  A    between atoms: C_24  and  C_25
REMARK   11  A    between atoms: N_30  and  C_31
REMARK   12  A    between atoms: C_31  and  C_32
REMARK   13  A    between atoms: C_35  and  O_38
REMARK   14  A    between atoms: O_38  and  C_39
REMARK                            x       y       z     vdW  Elec       q    Type
REMARK                         _______ _______ _______ _____ _____    ______ ____
ROOT
ATOM      1  N   UNL     1      -2.037  -0.305   1.609  0.00  0.00    +0.392 N 
ATOM      2  H   UNL     1      -1.537  -0.592   2.458  0.00  0.00    -0.080 HD
ENDROOT
BRANCH   1   3
ATOM      3  C   UNL     1      -1.416  -0.965   0.441  0.00  0.00    -0.036 C 
BRANCH   3  11
ATOM      4  C   UNL     1      -1.961   2.584  -4.598  0.00  0.00    -0.047 A 
ATOM      5  C   UNL     1      -3.129   2.002  -5.073  0.00  0.00    +0.005 A 
ATOM      6  C   UNL     1      -3.727   0.966  -4.389  0.00  0.00    +0.026 A 
ATOM      7  C   UNL     1      -3.157   0.498  -3.209  0.00  0.00    +0.049 A 
ATOM      8  C   UNL     1      -1.974   1.091  -2.731  0.00  0.00    -0.001 A 
ATOM      9  C   UNL     1      -1.384   2.141  -3.443  0.00  0.00    +0.013 A 
ATOM     10  C   UNL     1      -1.385   0.595  -1.486  0.00  0.00    +0.017 A 
ATOM     11  C   UNL     1      -1.998  -0.428  -0.841  0.00  0.00    +0.001 A 
ATOM     12  C   UNL     1      -3.184  -0.988  -1.363  0.00  0.00    +0.251 A 
ATOM     13  O   UNL     1      -3.722  -1.904  -0.766  0.00  0.00    -0.268 OA
ATOM     14  N   UNL     1      -3.735  -0.536  -2.504  0.00  0.00    -0.322 N 
ATOM     15  H   UNL     1      -4.550  -0.944  -2.835  0.00  0.00    +0.169 HD
BRANCH   4  17
ATOM     16  C   UNL     1      -0.330   3.148  -6.378  0.00  0.00    +0.009 C 
ATOM     17  C   UNL     1      -1.326   3.715  -5.365  0.00  0.00    +0.032 C 
ENDBRANCH   4  17
ENDBRANCH   3  11
ENDBRANCH   1   3
BRANCH   1  18
ATOM     18  C   UNL     1      -3.453  -0.711   1.724  0.00  0.00    -0.034 C 
BRANCH  18  19
ATOM     19  C   UNL     1      -3.510  -2.141   2.195  0.00  0.00    -0.027 A 
ATOM     20  C   UNL     1      -3.638  -2.620   3.457  0.00  0.00    +0.009 A 
ATOM     21  C   UNL     1      -3.669  -3.988   3.655  0.00  0.00    +0.008 A 
ATOM     22  C   UNL     1      -3.570  -4.810   2.581  0.00  0.00    +0.045 A 
ATOM     23  S   UNL     1      -3.436  -3.645   1.235  0.00  0.00    -0.103 S 
ENDBRANCH  18  19
ENDBRANCH   1  18
BRANCH   1  24
ATOM     24  C   UNL     1      -1.942   1.163   1.468  0.00  0.00    +0.003 C 
BRANCH  24  25
ATOM     25  C   UNL     1      -2.645   1.814   2.632  0.00  0.00    +0.138 A 
ATOM     26  N   UNL     1      -2.559   1.466   3.892  0.00  0.00    -0.115 NA
ATOM     27  N   UNL     1      -3.305   2.262   4.577  0.00  0.00    -0.023 NA
ATOM     28  N   UNL     1      -3.865   3.109   3.786  0.00  0.00    -0.044 NA
ATOM     29  N   UNL     1      -3.479   2.869   2.579  0.00  0.00    -0.226 N 
BRANCH  29  30
ATOM     30  C   UNL     1      -3.876   3.604   1.375  0.00  0.00    +0.182 C 
BRANCH  30  31
ATOM     31  C   UNL     1      -5.115   2.977   0.789  0.00  0.00    -0.026 A 
ATOM     32  C   UNL     1      -4.999   1.970  -0.151  0.00  0.00    +0.009 A 
ATOM     33  C   UNL     1      -6.133   1.389  -0.686  0.00  0.00    +0.046 A 
ATOM     34  C   UNL     1      -7.388   1.825  -0.287  0.00  0.00    +0.120 A 
ATOM     35  C   UNL     1      -7.501   2.839   0.653  0.00  0.00    +0.046 A 
ATOM     36  C   UNL     1      -6.364   3.413   1.188  0.00  0.00    +0.009 A 
BRANCH  34  37
ATOM     37  O   UNL     1      -8.505   1.258  -0.815  0.00  0.00    -0.495 OA
ATOM     38  C   UNL     1      -8.312   0.219  -1.777  0.00  0.00    +0.277 C 
ENDBRANCH  34  37
ENDBRANCH  30  31
ENDBRANCH  29  30
ENDBRANCH  24  25
BRANCH  24  39
ATOM     39  C   UNL     1      -0.466   1.567   1.474  0.00  0.00    -0.011 C 
ATOM     40  C   UNL     1      -0.349   3.078   1.266  0.00  0.00    +0.002 C 
ENDBRANCH  24  39
ENDBRANCH   1  24
TORSDOF 11
