REMARK  Name = ZINC58022273
REMARK  6 active torsions:
REMARK  status: ('A' for Active; 'I' for Inactive)
REMARK    1  A    between atoms: C_1  and  C_2
REMARK    2  A    between atoms: C_2  and  C_3
REMARK    3  A    between atoms: C_3  and  C_5
REMARK    4  A    between atoms: C_3  and  N_23
REMARK    5  A    between atoms: C_5  and  N_6
REMARK    6  A    between atoms: C_18  and  C_22
REMARK                            x       y       z     vdW  Elec       q    Type
REMARK                         _______ _______ _______ _____ _____    ______ ____
ROOT
ATOM      1  N   UNL     1      -2.784  -2.577   0.009  0.00  0.00    -0.301 NA
ATOM      2  C   UNL     1      -3.625  -2.130  -1.109  0.00  0.00    +0.103 C 
ATOM      3  C   UNL     1      -5.079  -2.537  -0.845  0.00  0.00    +0.122 C 
ATOM      4  N   UNL     1      -5.117  -3.983  -0.576  0.00  0.00    -0.307 N 
ATOM      5  C   UNL     1      -4.202  -4.527   0.438  0.00  0.00    +0.122 C 
ATOM      6  C   UNL     1      -2.783  -4.041   0.123  0.00  0.00    +0.103 C 
ATOM      7  C   UNL     1      -5.994  -4.810  -1.261  0.00  0.00    +0.161 A 
ATOM      8  N   UNL     1      -6.865  -4.487  -2.192  0.00  0.00    -0.229 NA
ATOM      9  C   UNL     1      -7.648  -5.397  -2.767  0.00  0.00    +0.054 A 
ATOM     10  C   UNL     1      -7.474  -6.665  -2.319  0.00  0.00    +0.014 A 
ATOM     11  S   UNL     1      -6.197  -6.476  -1.107  0.00  0.00    -0.057 S 
ATOM     12  C   UNL     1      -8.192  -7.895  -2.763  0.00  0.00    +0.047 C 
ATOM     13  C   UNL     1      -8.919  -7.578  -4.080  0.00  0.00    -0.009 C 
ATOM     14  C   UNL     1      -9.670  -6.252  -3.922  0.00  0.00    +0.010 C 
ATOM     15  C   UNL     1      -8.677  -5.091  -3.847  0.00  0.00    +0.056 C 
ATOM     16  C   UNL     1      -9.912  -8.697  -4.400  0.00  0.00    +0.008 C 
ENDROOT
BRANCH   1  17
ATOM     17  C   UNL     1      -1.416  -2.058  -0.121  0.00  0.00    +0.068 C 
BRANCH  17  18
ATOM     18  C   UNL     1      -1.433  -0.534   0.013  0.00  0.00    -0.061 C 
BRANCH  18  19
ATOM     19  N   UNL     1      -2.083  -0.161   1.276  0.00  0.00    +0.381 N 
ATOM     20  H   UNL     1      -1.571  -0.560   2.049  0.00  0.00    -0.090 HD
ATOM     21  H   UNL     1      -2.095   0.844   1.365  0.00  0.00    -0.090 HD
ATOM     22  H   UNL     1      -3.030  -0.510   1.284  0.00  0.00    -0.090 HD
ENDBRANCH  18  19
BRANCH  18  24
ATOM     23  C   UNL     1      -0.019   1.526   0.010  0.00  0.00    +0.002 C 
ATOM     24  C   UNL     1       0.002  -0.004   0.002  0.00  0.00    -0.018 C 
ENDBRANCH  18  24
ENDBRANCH  17  18
ENDBRANCH   1  17
TORSDOF 4
