REMARK  Name = ZINC67472697
REMARK  5 active torsions:
REMARK  status: ('A' for Active; 'I' for Inactive)
REMARK    1  A    between atoms: C_3  and  C_8
REMARK    2  A    between atoms: C_8  and  C_9
REMARK    3  A    between atoms: C_9  and  C_22
REMARK    4  A    between atoms: C_19  and  N_21
REMARK    5  A    between atoms: C_22  and  O_23
REMARK                            x       y       z     vdW  Elec       q    Type
REMARK                         _______ _______ _______ _____ _____    ______ ____
ROOT
ATOM      1  C   UNL     1       4.390   2.371   1.580  0.00  0.00    +0.014 C 
ATOM      2  C   UNL     1       3.170   3.086   2.166  0.00  0.00    +0.012 C 
ATOM      3  C   UNL     1       2.808   4.285   1.285  0.00  0.00    +0.020 C 
ATOM      4  C   UNL     1       3.981   5.270   1.263  0.00  0.00    +0.108 C 
ATOM      5  N   UNL     1       5.192   4.553   0.840  0.00  0.00    -0.300 N 
ATOM      6  C   UNL     1       5.581   3.334   1.562  0.00  0.00    +0.117 C 
ATOM      7  C   UNL     1       5.952   5.018  -0.220  0.00  0.00    +0.197 A 
ATOM      8  N   UNL     1       5.644   6.181  -0.775  0.00  0.00    -0.334 N 
ATOM      9  C   UNL     1       6.348   6.659  -1.790  0.00  0.00    +0.089 A 
ATOM     10  C   UNL     1       7.417   5.930  -2.274  0.00  0.00    +0.061 A 
ATOM     11  C   UNL     1       7.717   4.708  -1.670  0.00  0.00    +0.121 A 
ATOM     12  N   UNL     1       6.971   4.291  -0.651  0.00  0.00    -0.201 NA
ATOM     13  H   UNL     1       4.892   6.690  -0.432  0.00  0.00    +0.168 HD
ENDROOT
BRANCH  11  14
ATOM     14  N   UNL     1       8.780   3.943  -2.122  0.00  0.00    -0.343 N 
ATOM     15  H   UNL     1       9.322   4.255  -2.863  0.00  0.00    +0.144 HD
ATOM     16  H   UNL     1       8.983   3.095  -1.696  0.00  0.00    +0.144 HD
ENDBRANCH  11  14
BRANCH   1  17
ATOM     17  C   UNL     1       4.079   1.916   0.153  0.00  0.00    +0.046 C 
BRANCH  17  20
ATOM     18  C   UNL     1       0.545   0.589   0.067  0.00  0.00    +0.002 A 
ATOM     19  C   UNL     1       1.621   1.458   0.049  0.00  0.00    +0.004 A 
ATOM     20  C   UNL     1       2.907   0.968   0.172  0.00  0.00    -0.045 A 
ATOM     21  C   UNL     1       3.119  -0.390   0.312  0.00  0.00    +0.023 A 
ATOM     22  C   UNL     1       2.044  -1.260   0.330  0.00  0.00    +0.041 A 
ATOM     23  C   UNL     1       0.756  -0.769   0.207  0.00  0.00    +0.020 A 
ATOM     24 CL   UNL     1       2.310  -2.967   0.505  0.00  0.00    -0.084 Cl
ENDBRANCH  17  20
ENDBRANCH   1  17
BRANCH   1  25
ATOM     25  C   UNL     1       4.731   1.154   2.442  0.00  0.00    +0.164 C 
BRANCH  25  26
ATOM     26  O   UNL     1       3.619   0.257   2.460  0.00  0.00    -0.394 OA
ATOM     27  H   UNL     1       3.765  -0.540   2.989  0.00  0.00    +0.209 HD
ENDBRANCH  25  26
ENDBRANCH   1  25
TORSDOF 5
