REMARK  Name = ZINC64414807
REMARK  6 active torsions:
REMARK  status: ('A' for Active; 'I' for Inactive)
REMARK    1  A    between atoms: C_1  and  S_2
REMARK    2  A    between atoms: S_2  and  C_5
REMARK    3  A    between atoms: C_12  and  N_15
REMARK    4  A    between atoms: C_16  and  C_18
REMARK    5  A    between atoms: N_21  and  C_24
REMARK    6  A    between atoms: C_24  and  C_25
REMARK                            x       y       z     vdW  Elec       q    Type
REMARK                         _______ _______ _______ _____ _____    ______ ____
ROOT
ATOM      1  N   UNL     1       4.940  -2.901  -5.181  0.00  0.00    -0.288 N 
ATOM      2  C   UNL     1       6.251  -3.213  -5.192  0.00  0.00    +0.218 C 
ATOM      3  O   UNL     1       7.079  -2.362  -4.945  0.00  0.00    -0.275 OA
ATOM      4  H   UNL     1       4.278  -3.582  -5.378  0.00  0.00    +0.151 HD
ENDROOT
BRANCH   1  12
ATOM      5  C   UNL     1       0.840  -0.364  -1.674  0.00  0.00    +0.089 A 
ATOM      6  C   UNL     1       0.194  -0.502  -2.889  0.00  0.00    +0.029 A 
ATOM      7  C   UNL     1       0.889  -0.827  -4.030  0.00  0.00    +0.026 A 
ATOM      8  C   UNL     1       2.281  -1.031  -4.003  0.00  0.00    +0.043 A 
ATOM      9  C   UNL     1       2.905  -0.884  -2.760  0.00  0.00    +0.034 A 
ATOM     10  C   UNL     1       2.211  -0.553  -1.618  0.00  0.00    +0.043 A 
ATOM     11  S   UNL     1       4.628  -1.202  -3.065  0.00  0.00    -0.082 S 
ATOM     12  C   UNL     1       4.515  -1.535  -4.869  0.00  0.00    +0.224 C 
ATOM     13  N   UNL     1       3.074  -1.362  -5.100  0.00  0.00    -0.316 N 
ATOM     14  H   UNL     1       2.689  -1.476  -5.983  0.00  0.00    +0.149 HD
BRANCH   5  16
ATOM     15  C   UNL     1      -0.057   1.866  -0.171  0.00  0.00    +0.200 C 
ATOM     16  S   UNL     1      -0.066   0.052  -0.222  0.00  0.00    -0.006 S 
ATOM     17  O   UNL     1       0.707  -0.471   0.850  0.00  0.00    -0.170 OA
ATOM     18  O   UNL     1      -1.382  -0.424  -0.466  0.00  0.00    -0.170 OA
ENDBRANCH   5  16
ENDBRANCH   1  12
BRANCH   2  19
ATOM     19  C   UNL     1       6.689  -4.619  -5.513  0.00  0.00    +0.077 C 
ATOM     20  C   UNL     1       6.095  -5.587  -4.486  0.00  0.00    +0.028 C 
ATOM     21  C   UNL     1       6.591  -7.004  -4.780  0.00  0.00    +0.085 C 
ATOM     22  N   UNL     1       8.058  -7.033  -4.716  0.00  0.00    -0.299 NA
ATOM     23  C   UNL     1       8.652  -6.147  -5.726  0.00  0.00    +0.085 C 
ATOM     24  C   UNL     1       8.217  -4.705  -5.459  0.00  0.00    +0.028 C 
BRANCH  22  25
ATOM     25  C   UNL     1       8.564  -8.405  -4.857  0.00  0.00    +0.131 C 
BRANCH  25  26
ATOM     26  C   UNL     1       8.403  -9.147  -3.529  0.00  0.00    +0.188 C 
ATOM     27  N   UNL     1       6.981  -9.252  -3.178  0.00  0.00    -0.362 N 
ATOM     28  C   UNL     1       6.812  -8.635  -2.045  0.00  0.00    +0.060 A 
ATOM     29  C   UNL     1       5.632  -8.403  -1.200  0.00  0.00    +0.027 A 
ATOM     30  C   UNL     1       5.763  -7.713  -0.050  0.00  0.00    +0.002 A 
ATOM     31  C   UNL     1       6.995  -7.195   0.388  0.00  0.00    +0.002 A 
ATOM     32  C   UNL     1       8.137  -7.350  -0.310  0.00  0.00    +0.027 A 
ATOM     33  C   UNL     1       8.116  -8.088  -1.581  0.00  0.00    +0.060 A 
ATOM     34  N   UNL     1       9.041  -8.387  -2.446  0.00  0.00    -0.362 N 
ATOM     35  H   UNL     1       6.294  -9.698  -3.697  0.00  0.00    +0.162 HD
ATOM     36  H   UNL     1       9.980  -8.151  -2.387  0.00  0.00    +0.162 HD
ENDBRANCH  25  26
ENDBRANCH  22  25
ENDBRANCH   2  19
TORSDOF 5
