REMARK  Name = ZINC11701755
REMARK  5 active torsions:
REMARK  status: ('A' for Active; 'I' for Inactive)
REMARK    1  A    between atoms: C_6  and  S_7
REMARK    2  A    between atoms: S_7  and  N_10
REMARK    3  A    between atoms: C_14  and  C_16
REMARK    4  A    between atoms: N_18  and  C_19
REMARK    5  A    between atoms: C_22  and  N_26
REMARK                            x       y       z     vdW  Elec       q    Type
REMARK                         _______ _______ _______ _____ _____    ______ ____
ROOT
ATOM      1  N   UNL     1       4.623  -1.609  -1.362  0.00  0.00    -0.165 NA
ATOM      2  C   UNL     1       5.484  -0.452  -1.649  0.00  0.00    +0.110 C 
ATOM      3  C   UNL     1       5.272  -0.080  -3.132  0.00  0.00    +0.019 C 
ATOM      4  C   UNL     1       3.883  -0.694  -3.449  0.00  0.00    +0.031 C 
ATOM      5  C   UNL     1       3.916  -1.990  -2.598  0.00  0.00    +0.166 C 
ENDROOT
BRANCH   5   6
ATOM      6  C   UNL     1       2.514  -2.444  -2.281  0.00  0.00    +0.236 C 
ATOM      7  O   UNL     1       1.873  -1.879  -1.420  0.00  0.00    -0.274 OA
ATOM      8  N   UNL     1       1.973  -3.479  -2.954  0.00  0.00    -0.284 N 
ATOM      9  H   UNL     1       2.463  -3.895  -3.680  0.00  0.00    +0.155 HD
BRANCH   8  10
ATOM     10  C   UNL     1       0.702  -3.954  -2.604  0.00  0.00    +0.036 A 
ATOM     11  C   UNL     1       0.418  -5.310  -2.695  0.00  0.00    +0.045 A 
ATOM     12  C   UNL     1      -0.833  -5.780  -2.346  0.00  0.00    +0.065 A 
ATOM     13  C   UNL     1      -1.812  -4.894  -1.913  0.00  0.00    +0.062 A 
ATOM     14  C   UNL     1      -1.529  -3.536  -1.826  0.00  0.00    +0.065 A 
ATOM     15  C   UNL     1      -0.276  -3.068  -2.171  0.00  0.00    +0.045 A 
ATOM     16 CL   UNL     1      -2.751  -2.428  -1.284  0.00  0.00    -0.082 Cl
ATOM     17 CL   UNL     1      -1.185  -7.477  -2.454  0.00  0.00    -0.082 Cl
BRANCH  13  18
ATOM     18  N   UNL     1      -3.082  -5.369  -1.563  0.00  0.00    -0.356 N 
ATOM     19  H   UNL     1      -3.765  -4.750  -1.260  0.00  0.00    +0.142 HD
ATOM     20  H   UNL     1      -3.279  -6.316  -1.623  0.00  0.00    +0.142 HD
ENDBRANCH  13  18
ENDBRANCH   8  10
ENDBRANCH   5   6
BRANCH   1  21
ATOM     21  S   UNL     1       4.478  -2.363   0.105  0.00  0.00    +0.062 S 
ATOM     22  O   UNL     1       3.213  -3.011   0.106  0.00  0.00    -0.153 OA
ATOM     23  O   UNL     1       4.846  -1.408   1.091  0.00  0.00    -0.153 OA
BRANCH  21  29
ATOM     24  C   UNL     1       6.984  -3.342   0.565  0.00  0.00    +0.032 A 
ATOM     25  C   UNL     1       7.942  -4.338   0.607  0.00  0.00    +0.051 A 
ATOM     26  C   UNL     1       7.613  -5.634   0.242  0.00  0.00    +0.162 A 
ATOM     27  C   UNL     1       6.317  -5.930  -0.164  0.00  0.00    +0.164 A 
ATOM     28  C   UNL     1       5.361  -4.927  -0.205  0.00  0.00    +0.078 A 
ATOM     29  C   UNL     1       5.696  -3.636   0.159  0.00  0.00    +0.109 A 
ATOM     30  O   UNL     1       5.970  -7.198  -0.518  0.00  0.00    -0.485 OA
ATOM     31  C   UNL     1       7.043  -8.097  -0.822  0.00  0.00    +0.270 C 
ATOM     32  C   UNL     1       8.110  -7.959   0.272  0.00  0.00    +0.270 C 
ATOM     33  O   UNL     1       8.569  -6.602   0.281  0.00  0.00    -0.485 OA
ENDBRANCH  21  29
ENDBRANCH   1  21
TORSDOF 5
