REMARK  Name = ZINC13513513
REMARK  10 active torsions:
REMARK  status: ('A' for Active; 'I' for Inactive)
REMARK    1  A    between atoms: C_1  and  C_2
REMARK    2  A    between atoms: C_2  and  C_3
REMARK    3  A    between atoms: C_2  and  C_4
REMARK    4  A    between atoms: C_2  and  C_5
REMARK    5  A    between atoms: C_18  and  C_20
REMARK    6  A    between atoms: C_20  and  N_21
REMARK    7  A    between atoms: C_27  and  C_29
REMARK    8  A    between atoms: C_29  and  C_30
REMARK    9  A    between atoms: C_29  and  C_31
REMARK   10  A    between atoms: C_29  and  C_32
REMARK                            x       y       z     vdW  Elec       q    Type
REMARK                         _______ _______ _______ _____ _____    ______ ____
ROOT
ATOM      1  C   UNL     1      -2.962   9.788  -7.392  0.00  0.00    -0.000 C 
ATOM      2  C   UNL     1      -2.745   8.787  -8.530  0.00  0.00    +0.009 C 
ATOM      3  C   UNL     1      -3.138   7.383  -8.069  0.00  0.00    +0.037 C 
ATOM      4  C   UNL     1      -2.406   7.069  -6.767  0.00  0.00    -0.023 A 
ATOM      5  C   UNL     1      -1.878   8.059  -6.017  0.00  0.00    -0.004 A 
ATOM      6  S   UNL     1      -1.141   7.241  -4.628  0.00  0.00    -0.073 S 
ATOM      7  C   UNL     1      -1.546   5.568  -5.060  0.00  0.00    +0.116 A 
ATOM      8  C   UNL     1      -2.241   5.703  -6.272  0.00  0.00    +0.075 A 
ATOM      9  C   UNL     1      -2.698   4.480  -6.864  0.00  0.00    +0.260 A 
ATOM     10  O   UNL     1      -3.311   4.493  -7.918  0.00  0.00    -0.267 OA
ATOM     11  N   UNL     1      -2.434   3.317  -6.240  0.00  0.00    -0.309 N 
ATOM     12  H   UNL     1      -2.769   2.367  -6.683  0.00  0.00    +0.170 HD
ATOM     13  C   UNL     1      -1.757   3.284  -5.064  0.00  0.00    +0.125 A 
ATOM     14  N   UNL     1      -1.328   4.381  -4.500  0.00  0.00    -0.225 NA
ATOM     15  C   UNL     1      -1.911   9.530  -6.302  0.00  0.00    +0.046 C 
ENDROOT
BRANCH   1  17
ATOM     16  C   UNL     1      -1.408  11.387  -8.519  0.00  0.00    +0.011 C 
ATOM     17  C   UNL     1      -2.808  11.213  -7.926  0.00  0.00    -0.035 C 
ATOM     18  C   UNL     1      -3.856  11.467  -9.012  0.00  0.00    +0.011 C 
ATOM     19  C   UNL     1      -3.006  12.211  -6.783  0.00  0.00    +0.011 C 
ENDBRANCH   1  17
BRANCH  13  20
ATOM     20  C   UNL     1      -1.492   1.958  -4.399  0.00  0.00    +0.158 C 
BRANCH  20  21
ATOM     21  N   UNL     1      -0.624   2.160  -3.231  0.00  0.00    -0.292 NA
ATOM     22  C   UNL     1       0.714   2.607  -3.641  0.00  0.00    +0.104 C 
ATOM     23  C   UNL     1       1.528   2.979  -2.397  0.00  0.00    +0.123 C 
ATOM     24  N   UNL     1       1.510   1.842  -1.464  0.00  0.00    -0.299 N 
ATOM     25  C   UNL     1       0.209   1.247  -1.117  0.00  0.00    +0.123 C 
ATOM     26  C   UNL     1      -0.552   0.943  -2.412  0.00  0.00    +0.104 C 
ATOM     27  C   UNL     1       2.655   1.354  -0.946  0.00  0.00    +0.221 C 
ATOM     28  O   UNL     1       3.708   1.912  -1.170  0.00  0.00    -0.275 OA
BRANCH  27  29
ATOM     29  C   UNL     1       2.626   0.116  -0.088  0.00  0.00    +0.039 C 
ATOM     30  C   UNL     1       4.048  -0.226   0.362  0.00  0.00    +0.020 C 
ATOM     31  C   UNL     1       1.748   0.366   1.140  0.00  0.00    +0.020 C 
ATOM     32  C   UNL     1       2.053  -1.051  -0.895  0.00  0.00    +0.020 C 
ENDBRANCH  27  29
ENDBRANCH  20  21
ENDBRANCH  13  20
TORSDOF 4
