REMARK  Name = ZINC65182506
REMARK  10 active torsions:
REMARK  status: ('A' for Active; 'I' for Inactive)
REMARK    1  A    between atoms: C_1  and  C_2
REMARK    2  A    between atoms: C_2  and  C_3
REMARK    3  A    between atoms: C_6  and  C_34
REMARK    4  A    between atoms: C_11  and  C_13
REMARK    5  A    between atoms: C_16  and  C_19
REMARK    6  A    between atoms: C_19  and  C_20
REMARK    7  A    between atoms: C_20  and  N_21
REMARK    8  A    between atoms: N_21  and  C_22
REMARK    9  A    between atoms: C_23  and  C_25
REMARK   10  A    between atoms: C_25  and  C_28
REMARK                            x       y       z     vdW  Elec       q    Type
REMARK                         _______ _______ _______ _____ _____    ______ ____
ROOT
ATOM      1  C   UNL     1      -3.764  -2.778  -0.248  0.00  0.00    +0.318 C 
ATOM      2  N   UNL     1      -4.069  -4.188  -0.541  0.00  0.00    -0.291 N 
ATOM      3  C   UNL     1      -4.442  -4.248  -1.863  0.00  0.00    +0.139 C 
ATOM      4  N   UNL     1      -4.409  -3.090  -2.415  0.00  0.00    -0.072 NA
ATOM      5  O   UNL     1      -3.995  -2.097  -1.491  0.00  0.00    -0.367 OA
ATOM      6  H   UNL     1      -4.017  -4.932   0.080  0.00  0.00    +0.151 HD
ENDROOT
BRANCH   1  15
ATOM      7  C   UNL     1      -4.408  -0.782   1.103  0.00  0.00    -0.033 C 
ATOM      8  C   UNL     1      -5.546  -0.114   0.805  0.00  0.00    -0.000 A 
ATOM      9  C   UNL     1      -5.903   1.309   0.848  0.00  0.00    +0.013 A 
ATOM     10  C   UNL     1      -7.150   1.684   0.483  0.00  0.00    -0.050 A 
ATOM     11  C   UNL     1      -8.108   0.749   0.066  0.00  0.00    +0.005 A 
ATOM     12  C   UNL     1      -7.854  -0.575   0.000  0.00  0.00    +0.026 A 
ATOM     13  C   UNL     1      -6.575  -1.081   0.361  0.00  0.00    +0.043 A 
ATOM     14  N   UNL     1      -6.092  -2.300   0.383  0.00  0.00    -0.373 N 
ATOM     15  C   UNL     1      -4.699  -2.243   0.838  0.00  0.00    +0.169 C 
ATOM     16  C   UNL     1      -7.520   3.144   0.525  0.00  0.00    +0.044 C 
ATOM     17  H   UNL     1      -6.574  -3.104   0.136  0.00  0.00    +0.160 HD
BRANCH   7  19
ATOM     18  C   UNL     1      -3.259   1.327   1.721  0.00  0.00    +0.008 C 
ATOM     19  C   UNL     1      -3.111  -0.191   1.592  0.00  0.00    +0.030 C 
ENDBRANCH   7  19
ENDBRANCH   1  15
BRANCH   3  20
ATOM     20  C   UNL     1      -4.840  -5.515  -2.575  0.00  0.00    +0.094 C 
BRANCH  20  21
ATOM     21  C   UNL     1      -5.189  -5.195  -4.030  0.00  0.00    +0.115 C 
BRANCH  21  22
ATOM     22  N   UNL     1      -5.576  -6.427  -4.722  0.00  0.00    -0.303 N 
ATOM     23  C   UNL     1      -6.978  -6.850  -4.735  0.00  0.00    +0.132 C 
ATOM     24  C   UNL     1      -4.641  -7.170  -5.346  0.00  0.00    +0.226 C 
ATOM     25  O   UNL     1      -3.469  -6.870  -5.259  0.00  0.00    -0.275 OA
BRANCH  24  26
ATOM     26  C   UNL     1      -5.052  -8.375  -6.153  0.00  0.00    +0.072 C 
ATOM     27  C   UNL     1      -4.564  -8.456  -7.601  0.00  0.00    +0.022 C 
ATOM     28  C   UNL     1      -6.034  -8.153  -7.304  0.00  0.00    +0.022 C 
BRANCH  26  29
ATOM     29  C   UNL     1      -5.164  -9.666  -5.382  0.00  0.00    -0.032 A 
ATOM     30  C   UNL     1      -6.372 -10.335  -5.326  0.00  0.00    +0.004 A 
ATOM     31  C   UNL     1      -6.475 -11.518  -4.619  0.00  0.00    +0.000 A 
ATOM     32  C   UNL     1      -5.369 -12.033  -3.970  0.00  0.00    +0.000 A 
ATOM     33  C   UNL     1      -4.160 -11.365  -4.027  0.00  0.00    +0.000 A 
ATOM     34  C   UNL     1      -4.056 -10.184  -4.737  0.00  0.00    +0.004 A 
ENDBRANCH  26  29
ENDBRANCH  24  26
ENDBRANCH  21  22
ENDBRANCH  20  21
ENDBRANCH   3  20
TORSDOF 7
