REMARK  Name = ZINC57267245
REMARK  11 active torsions:
REMARK  status: ('A' for Active; 'I' for Inactive)
REMARK    1  A    between atoms: C_1  and  C_2
REMARK    2  A    between atoms: C_2  and  C_3
REMARK    3  A    between atoms: C_3  and  C_4
REMARK    4  A    between atoms: C_3  and  C_6
REMARK    5  A    between atoms: C_4  and  C_5
REMARK    6  A    between atoms: C_6  and  C_8
REMARK    7  A    between atoms: C_6  and  N_13
REMARK    8  A    between atoms: N_16  and  N_17
REMARK    9  A    between atoms: N_17  and  C_18
REMARK   10  A    between atoms: C_18  and  N_20
REMARK   11  A    between atoms: N_20  and  C_21
REMARK                            x       y       z     vdW  Elec       q    Type
REMARK                         _______ _______ _______ _____ _____    ______ ____
ROOT
ATOM      1  N   UNL     1       2.261  -2.204   0.582  0.00  0.00    -0.291 N 
ATOM      2  C   UNL     1       2.364  -3.461   0.105  0.00  0.00    +0.316 C 
ATOM      3  O   UNL     1       1.593  -4.320   0.486  0.00  0.00    -0.251 OA
ATOM      4  N   UNL     1       3.322  -3.764  -0.792  0.00  0.00    -0.219 N 
ATOM      5  H   UNL     1       2.876  -1.518   0.278  0.00  0.00    +0.151 HD
ATOM      6  H   UNL     1       3.397  -4.669  -1.135  0.00  0.00    +0.174 HD
ENDROOT
BRANCH   4   7
ATOM      7  N   UNL     1       4.211  -2.774  -1.231  0.00  0.00    -0.245 N 
ATOM      8  H   UNL     1       4.136  -1.869  -0.888  0.00  0.00    +0.172 HD
BRANCH   7   9
ATOM      9  C   UNL     1       5.169  -3.078  -2.129  0.00  0.00    +0.147 C 
ATOM     10  S   UNL     1       6.254  -1.867  -2.665  0.00  0.00    -0.017 S 
BRANCH   9  11
ATOM     11  N   UNL     1       5.272  -4.334  -2.605  0.00  0.00    -0.323 N 
ATOM     12  H   UNL     1       4.657  -5.020  -2.301  0.00  0.00    +0.148 HD
BRANCH  11  13
ATOM     13  C   UNL     1       6.313  -4.664  -3.581  0.00  0.00    +0.072 C 
ATOM     14  C   UNL     1       5.801  -4.397  -5.012  0.00  0.00    +0.022 C 
ATOM     15  C   UNL     1       6.413  -5.543  -5.855  0.00  0.00    +0.002 C 
ATOM     16  C   UNL     1       6.328  -6.756  -4.896  0.00  0.00    +0.002 C 
ATOM     17  C   UNL     1       6.648  -6.164  -3.507  0.00  0.00    +0.022 C 
ENDBRANCH  11  13
ENDBRANCH   9  11
ENDBRANCH   7   9
ENDBRANCH   4   7
BRANCH   1  18
ATOM     18  C   UNL     1       1.220  -1.874   1.558  0.00  0.00    +0.114 C 
BRANCH  18  19
ATOM     19  C   UNL     1       1.708  -2.204   2.944  0.00  0.00    +0.010 A 
ATOM     20  C   UNL     1       1.032  -2.766   3.976  0.00  0.00    +0.013 A 
ATOM     21  C   UNL     1       1.690  -2.980   5.172  0.00  0.00    +0.008 A 
ATOM     22  C   UNL     1       2.994  -2.622   5.278  0.00  0.00    +0.045 A 
ATOM     23  S   UNL     1       3.329  -1.966   3.652  0.00  0.00    -0.100 S 
ENDBRANCH  18  19
BRANCH  18  24
ATOM     24  C   UNL     1       0.897  -0.381   1.473  0.00  0.00    +0.014 C 
BRANCH  24  26
ATOM     25  C   UNL     1      -0.898  -0.803  -0.212  0.00  0.00    +0.004 C 
ATOM     26  C   UNL     1       0.401  -0.044   0.066  0.00  0.00    +0.002 C 
ENDBRANCH  24  26
BRANCH  24  27
ATOM     27  C   UNL     1      -0.191  -0.036   2.493  0.00  0.00    +0.002 C 
ATOM     28  C   UNL     1      -0.428   1.476   2.494  0.00  0.00    +0.004 C 
ENDBRANCH  24  27
ENDBRANCH  18  24
ENDBRANCH   1  18
TORSDOF 9
