REMARK  Name = ZINC03029953
REMARK  8 active torsions:
REMARK  status: ('A' for Active; 'I' for Inactive)
REMARK    1  A    between atoms: C_1  and  C_2
REMARK    2  A    between atoms: C_2  and  C_3
REMARK    3  A    between atoms: C_2  and  C_4
REMARK    4  A    between atoms: C_2  and  C_5
REMARK    5  A    between atoms: N_7  and  C_8
REMARK    6  A    between atoms: C_8  and  C_10
REMARK    7  A    between atoms: C_8  and  N_14
REMARK    8  A    between atoms: C_22  and  N_23
REMARK                            x       y       z     vdW  Elec       q    Type
REMARK                         _______ _______ _______ _____ _____    ______ ____
ROOT
ATOM      1  N   UNL     1      -3.507   1.939   0.613  0.00  0.00    -0.291 N 
ATOM      2  C   UNL     1      -3.535   3.301   0.666  0.00  0.00    +0.203 A 
ATOM      3  N   UNL     1      -4.622   3.700   1.260  0.00  0.00    -0.231 NA
ATOM      4  C   UNL     1      -5.354   2.623   1.632  0.00  0.00    +0.148 A 
ATOM      5  C   UNL     1      -4.647   1.480   1.222  0.00  0.00    +0.167 A 
ATOM      6  N   UNL     1      -5.159   0.279   1.472  0.00  0.00    -0.216 NA
ATOM      7  C   UNL     1      -6.311   0.158   2.096  0.00  0.00    +0.225 A 
ATOM      8  N   UNL     1      -7.012   1.202   2.501  0.00  0.00    -0.218 NA
ATOM      9  C   UNL     1      -6.580   2.442   2.294  0.00  0.00    +0.152 A 
ENDROOT
BRANCH   9  10
ATOM     10  N   UNL     1      -7.321   3.530   2.721  0.00  0.00    -0.313 N 
ATOM     11  C   UNL     1      -6.525   4.397   3.599  0.00  0.00    +0.106 C 
ATOM     12  C   UNL     1      -7.325   5.659   3.933  0.00  0.00    +0.019 C 
ATOM     13  C   UNL     1      -8.631   5.261   4.626  0.00  0.00    +0.003 C 
ATOM     14  C   UNL     1      -9.418   4.319   3.711  0.00  0.00    +0.019 C 
ATOM     15  C   UNL     1      -8.559   3.097   3.384  0.00  0.00    +0.106 C 
ENDBRANCH   9  10
BRANCH   1  16
ATOM     16  C   UNL     1      -2.449   1.117   0.020  0.00  0.00    +0.228 C 
BRANCH  16  19
ATOM     17  C   UNL     1      -0.014   1.209   0.009  0.00  0.00    +0.220 C 
ATOM     18  O   UNL     1       0.002  -0.004   0.002  0.00  0.00    -0.275 OA
ATOM     19  N   UNL     1      -1.191   1.867   0.018  0.00  0.00    -0.291 N 
ATOM     20  H   UNL     1      -1.204   2.837   0.023  0.00  0.00    +0.151 HD
BRANCH  17  22
ATOM     21  C   UNL     1       2.457   1.002  -0.016  0.00  0.00    +0.020 C 
ATOM     22  C   UNL     1       1.280   1.980   0.001  0.00  0.00    +0.039 C 
ATOM     23  C   UNL     1       1.337   2.867  -1.245  0.00  0.00    +0.020 C 
ATOM     24  C   UNL     1       1.361   2.854   1.254  0.00  0.00    +0.020 C 
ENDBRANCH  17  22
ENDBRANCH  16  19
BRANCH  16  25
ATOM     25  C   UNL     1      -2.830   0.756  -1.417  0.00  0.00    +0.227 C 
ATOM     26 CL   UNL     1      -1.529  -0.256  -2.148  0.00  0.00    -0.079 Cl
ATOM     27 CL   UNL     1      -4.379  -0.167  -1.415  0.00  0.00    -0.079 Cl
ATOM     28 CL   UNL     1      -3.031   2.265  -2.383  0.00  0.00    -0.079 Cl
ENDBRANCH  16  25
ENDBRANCH   1  16
TORSDOF 5
