REMARK  Name = ZINC06152629
REMARK  9 active torsions:
REMARK  status: ('A' for Active; 'I' for Inactive)
REMARK    1  A    between atoms: C_1  and  C_2
REMARK    2  A    between atoms: C_2  and  N_3
REMARK    3  A    between atoms: N_3  and  C_4
REMARK    4  A    between atoms: N_3  and  C_6
REMARK    5  A    between atoms: C_4  and  C_5
REMARK    6  A    between atoms: C_9  and  N_12
REMARK    7  A    between atoms: C_13  and  C_15
REMARK    8  A    between atoms: C_15  and  C_16
REMARK    9  A    between atoms: C_16  and  C_17
REMARK                            x       y       z     vdW  Elec       q    Type
REMARK                         _______ _______ _______ _____ _____    ______ ____
ROOT
ATOM      1  N   UNL     1      -3.502  -2.352  -2.575  0.00  0.00    -0.285 N 
ATOM      2  C   UNL     1      -3.382  -1.405  -3.526  0.00  0.00    +0.218 C 
ATOM      3  O   UNL     1      -4.242  -1.282  -4.372  0.00  0.00    -0.275 OA
ATOM      4  H   UNL     1      -2.784  -2.494  -1.939  0.00  0.00    +0.155 HD
ENDROOT
BRANCH   1   8
ATOM      5  C   UNL     1      -6.963  -4.670  -2.366  0.00  0.00    +0.030 A 
ATOM      6  C   UNL     1      -6.472  -4.265  -3.600  0.00  0.00    +0.025 A 
ATOM      7  C   UNL     1      -5.326  -3.498  -3.669  0.00  0.00    +0.025 A 
ATOM      8  C   UNL     1      -4.665  -3.131  -2.505  0.00  0.00    +0.033 A 
ATOM      9  C   UNL     1      -5.153  -3.540  -1.271  0.00  0.00    +0.025 A 
ATOM     10  C   UNL     1      -6.302  -4.303  -1.201  0.00  0.00    +0.025 A 
BRANCH   5  11
ATOM     11  N   UNL     1      -8.124  -5.447  -2.296  0.00  0.00    -0.330 N 
BRANCH  11  13
ATOM     12  C   UNL     1      -9.621  -4.823  -0.465  0.00  0.00    +0.024 C 
ATOM     13  C   UNL     1      -8.643  -5.874  -0.994  0.00  0.00    +0.102 C 
ENDBRANCH  11  13
BRANCH  11  14
ATOM     14  C   UNL     1      -8.822  -5.834  -3.525  0.00  0.00    +0.102 C 
ATOM     15  C   UNL     1      -8.267  -7.168  -4.028  0.00  0.00    +0.024 C 
ENDBRANCH  11  14
ENDBRANCH   5  11
ENDBRANCH   1   8
BRANCH   2  16
ATOM     16  C   UNL     1      -2.179  -0.497  -3.538  0.00  0.00    +0.101 C 
BRANCH  16  17
ATOM     17  C   UNL     1      -2.288   0.479  -4.711  0.00  0.00    +0.046 C 
BRANCH  17  18
ATOM     18  C   UNL     1      -1.084   1.386  -4.723  0.00  0.00    -0.022 A 
ATOM     19  C   UNL     1      -1.001   2.609  -4.177  0.00  0.00    +0.087 A 
ATOM     20  N   UNL     1       0.246   3.131  -4.388  0.00  0.00    -0.360 N 
ATOM     21  H   UNL     1       0.544   4.003  -4.086  0.00  0.00    +0.165 HD
ATOM     22  C   UNL     1       1.016   2.233  -5.094  0.00  0.00    +0.047 A 
ATOM     23  C   UNL     1       0.216   1.100  -5.335  0.00  0.00    +0.003 A 
ATOM     24  C   UNL     1       0.738   0.017  -6.043  0.00  0.00    +0.010 A 
ATOM     25  C   UNL     1       2.028   0.058  -6.492  0.00  0.00    +0.001 A 
ATOM     26  C   UNL     1       2.821   1.172  -6.257  0.00  0.00    +0.002 A 
ATOM     27  C   UNL     1       2.325   2.255  -5.563  0.00  0.00    +0.026 A 
ENDBRANCH  17  18
ENDBRANCH  16  17
ENDBRANCH   2  16
TORSDOF 7
