REMARK  Name = ZINC59171072
REMARK  5 active torsions:
REMARK  status: ('A' for Active; 'I' for Inactive)
REMARK    1  A    between atoms: C_1  and  O_2
REMARK    2  A    between atoms: O_2  and  C_3
REMARK    3  A    between atoms: N_11  and  C_12
REMARK    4  A    between atoms: C_19  and  C_21
REMARK    5  A    between atoms: C_21  and  N_23
REMARK                            x       y       z     vdW  Elec       q    Type
REMARK                         _______ _______ _______ _____ _____    ______ ____
ROOT
ATOM      1  C   UNL     1       0.805  -0.654   0.628  0.00  0.00    +0.164 A 
ATOM      2  C   UNL     1       1.182   0.210   1.641  0.00  0.00    +0.064 A 
ATOM      3  C   UNL     1       1.550  -0.279   2.887  0.00  0.00    +0.022 A 
ATOM      4  C   UNL     1       1.547  -1.634   3.132  0.00  0.00    +0.027 A 
ATOM      5  C   UNL     1       1.171  -2.523   2.118  0.00  0.00    +0.023 A 
ATOM      6  C   UNL     1       0.788  -2.026   0.859  0.00  0.00    +0.179 A 
ATOM      7  O   UNL     1       0.410  -2.886  -0.120  0.00  0.00    -0.435 OA
ATOM      8  C   UNL     1       0.928  -4.140  -0.073  0.00  0.00    +0.209 A 
ATOM      9  N   UNL     1       1.321  -4.752  -1.168  0.00  0.00    -0.325 N 
ATOM     10  C   UNL     1       1.035  -4.795   1.247  0.00  0.00    +0.064 A 
ATOM     11  C   UNL     1       1.166  -3.969   2.352  0.00  0.00    +0.027 A 
ATOM     12 BR   UNL     1       2.059   0.923   4.255  0.00  0.00    -0.050 Br
ATOM     13  H   UNL     1       1.780  -5.605  -1.109  0.00  0.00    +0.169 HD
ENDROOT
BRANCH   9  14
ATOM     14  C   UNL     1       1.085  -4.186  -2.391  0.00  0.00    +0.042 A 
ATOM     15  C   UNL     1      -0.166  -3.634  -2.678  0.00  0.00    +0.028 A 
ATOM     16  C   UNL     1      -0.399  -3.065  -3.912  0.00  0.00    +0.040 A 
ATOM     17  C   UNL     1       0.605  -3.041  -4.867  0.00  0.00    +0.124 A 
ATOM     18  C   UNL     1       1.848  -3.587  -4.589  0.00  0.00    +0.040 A 
ATOM     19  C   UNL     1       2.094  -4.154  -3.356  0.00  0.00    +0.028 A 
ATOM     20  F   UNL     1       0.371  -2.482  -6.075  0.00  0.00    -0.205 F 
ENDBRANCH   9  14
BRANCH   1  22
ATOM     21  C   UNL     1       0.486   1.255  -0.753  0.00  0.00    +0.277 C 
ATOM     22  O   UNL     1       0.446  -0.164  -0.588  0.00  0.00    -0.491 OA
ENDBRANCH   1  22
BRANCH  10  23
ATOM     23  C   UNL     1       1.015  -6.260   1.380  0.00  0.00    +0.082 C 
ATOM     24  S   UNL     1       0.697  -7.240   0.013  0.00  0.00    -0.035 S 
BRANCH  23  25
ATOM     25  N   UNL     1       1.248  -6.831   2.579  0.00  0.00    -0.352 N 
ATOM     26  H   UNL     1       1.429  -6.276   3.353  0.00  0.00    +0.143 HD
ATOM     27  H   UNL     1       1.235  -7.797   2.667  0.00  0.00    +0.143 HD
ENDBRANCH  23  25
ENDBRANCH  10  23
TORSDOF 4
