REMARK  Name = ZINC51755210
REMARK  8 active torsions:
REMARK  status: ('A' for Active; 'I' for Inactive)
REMARK    1  A    between atoms: C_1  and  C_2
REMARK    2  A    between atoms: C_5  and  C_11
REMARK    3  A    between atoms: C_6  and  C_10
REMARK    4  A    between atoms: C_7  and  O_8
REMARK    5  A    between atoms: O_8  and  C_9
REMARK    6  A    between atoms: C_11  and  N_12
REMARK    7  A    between atoms: N_15  and  N_16
REMARK    8  A    between atoms: N_16  and  C_17
REMARK                            x       y       z     vdW  Elec       q    Type
REMARK                         _______ _______ _______ _____ _____    ______ ____
ROOT
ATOM      1  N   UNL     1       1.447  -4.700  -0.204  0.00  0.00    -0.293 N 
ATOM      2  C   UNL     1       1.711  -6.020  -0.274  0.00  0.00    +0.316 C 
ATOM      3  O   UNL     1       0.798  -6.821  -0.310  0.00  0.00    -0.251 OA
ATOM      4  N   UNL     1       2.988  -6.451  -0.304  0.00  0.00    -0.220 N 
ATOM      5  H   UNL     1       2.176  -4.060  -0.176  0.00  0.00    +0.151 HD
ATOM      6  H   UNL     1       3.178  -7.401  -0.354  0.00  0.00    +0.174 HD
ENDROOT
BRANCH   4   7
ATOM      7  N   UNL     1       4.040  -5.527  -0.262  0.00  0.00    -0.262 N 
ATOM      8  H   UNL     1       3.850  -4.577  -0.212  0.00  0.00    +0.170 HD
BRANCH   7   9
ATOM      9  C   UNL     1       5.365  -5.975  -0.293  0.00  0.00    +0.059 A 
ATOM     10  C   UNL     1       5.638  -7.334  -0.370  0.00  0.00    +0.028 A 
ATOM     11  C   UNL     1       6.947  -7.774  -0.401  0.00  0.00    +0.040 A 
ATOM     12  C   UNL     1       7.987  -6.861  -0.354  0.00  0.00    +0.125 A 
ATOM     13  C   UNL     1       7.718  -5.505  -0.277  0.00  0.00    +0.055 A 
ATOM     14  C   UNL     1       6.410  -5.060  -0.252  0.00  0.00    +0.043 A 
ATOM     15 BR   UNL     1       6.042  -3.208  -0.154  0.00  0.00    -0.048 Br
ATOM     16  F   UNL     1       9.267  -7.294  -0.384  0.00  0.00    -0.205 F 
ENDBRANCH   7   9
ENDBRANCH   4   7
BRANCH   1  17
ATOM     17  C   UNL     1       0.060  -4.231  -0.172  0.00  0.00    +0.161 C 
BRANCH  17  22
ATOM     18  C   UNL     1      -0.018   1.503   0.010  0.00  0.00    +0.049 C 
ATOM     19  C   UNL     1       0.002  -0.004   0.002  0.00  0.00    +0.010 A 
ATOM     20  C   UNL     1       0.006  -0.697  -1.191  0.00  0.00    +0.118 A 
ATOM     21  N   UNL     1       0.024  -2.016  -1.207  0.00  0.00    -0.258 NA
ATOM     22  C   UNL     1       0.040  -2.726  -0.095  0.00  0.00    +0.065 A 
ATOM     23  C   UNL     1       0.037  -2.108   1.139  0.00  0.00    +0.014 A 
ATOM     24  C   UNL     1       0.023  -0.716   1.198  0.00  0.00    +0.129 A 
ATOM     25  C   UNL     1       0.054  -2.926   2.404  0.00  0.00    +0.049 C 
BRANCH  24  26
ATOM     26  O   UNL     1       0.025  -0.071   2.393  0.00  0.00    -0.494 OA
ATOM     27  C   UNL     1      -1.247   0.220   2.975  0.00  0.00    +0.277 C 
ENDBRANCH  24  26
ENDBRANCH  17  22
ENDBRANCH   1  17
TORSDOF 5
