REMARK  Name = ZINC08480785
REMARK  6 active torsions:
REMARK  status: ('A' for Active; 'I' for Inactive)
REMARK    1  A    between atoms: C_1  and  C_2
REMARK    2  A    between atoms: C_2  and  C_3
REMARK    3  A    between atoms: C_3  and  C_24
REMARK    4  A    between atoms: N_6  and  C_10
REMARK    5  A    between atoms: C_10  and  C_11
REMARK    6  A    between atoms: N_13  and  C_14
REMARK                            x       y       z     vdW  Elec       q    Type
REMARK                         _______ _______ _______ _____ _____    ______ ____
ROOT
ATOM      1  C   UNL     1      -1.235   2.107   0.018  0.00  0.00    +0.138 C 
ATOM      2  C   UNL     1      -0.014   1.208   0.009  0.00  0.00    +0.251 C 
ATOM      3  O   UNL     1       0.002  -0.004   0.002  0.00  0.00    -0.272 OA
ATOM      4  N   UNL     1       1.048   2.037   0.003  0.00  0.00    -0.215 N 
ATOM      5  C   UNL     1       0.673   3.321   0.013  0.00  0.00    +0.310 C 
ATOM      6  O   UNL     1       1.453   4.253   0.010  0.00  0.00    -0.252 OA
ATOM      7  N   UNL     1      -0.664   3.465   0.026  0.00  0.00    -0.281 N 
ATOM      8  H   UNL     1      -1.157   4.301   0.035  0.00  0.00    +0.152 HD
ENDROOT
BRANCH   1   9
ATOM      9  C   UNL     1      -2.067   1.885  -1.218  0.00  0.00    -0.015 A 
ATOM     10  C   UNL     1      -3.075   0.940  -1.212  0.00  0.00    +0.009 A 
ATOM     11  C   UNL     1      -3.842   0.740  -2.344  0.00  0.00    +0.039 A 
ATOM     12  C   UNL     1      -3.593   1.478  -3.488  0.00  0.00    +0.123 A 
ATOM     13  C   UNL     1      -2.579   2.421  -3.495  0.00  0.00    +0.039 A 
ATOM     14  C   UNL     1      -1.817   2.623  -2.360  0.00  0.00    +0.009 A 
ATOM     15  F   UNL     1      -4.338   1.279  -4.597  0.00  0.00    -0.205 F 
ENDBRANCH   1   9
BRANCH   1  17
ATOM     16  C   UNL     1      -1.256   2.274   2.511  0.00  0.00    +0.007 C 
ATOM     17  C   UNL     1      -2.068   1.870   1.279  0.00  0.00    +0.037 C 
ENDBRANCH   1  17
BRANCH   4  18
ATOM     18  C   UNL     1       2.443   1.587  -0.013  0.00  0.00    +0.213 C 
BRANCH  18  19
ATOM     19  C   UNL     1       2.907   1.440  -1.439  0.00  0.00    +0.231 C 
ATOM     20  O   UNL     1       2.148   1.687  -2.352  0.00  0.00    -0.274 OA
ATOM     21  N   UNL     1       4.166   1.034  -1.699  0.00  0.00    -0.308 N 
ATOM     22  H   UNL     1       4.773   0.837  -0.969  0.00  0.00    +0.149 HD
BRANCH  21  23
ATOM     23  C   UNL     1       4.617   0.892  -3.086  0.00  0.00    +0.035 C 
ATOM     24  C   UNL     1       3.741  -0.136  -3.804  0.00  0.00    +0.029 C 
ATOM     25  C   UNL     1       4.213  -0.285  -5.252  0.00  0.00    -0.008 C 
ATOM     26  C   UNL     1       5.669  -0.755  -5.269  0.00  0.00    +0.007 C 
ATOM     27  C   UNL     1       6.545   0.273  -4.550  0.00  0.00    -0.008 C 
ATOM     28  C   UNL     1       6.073   0.422  -3.102  0.00  0.00    +0.029 C 
ATOM     29  C   UNL     1       6.436   1.623  -5.263  0.00  0.00    +0.007 C 
ATOM     30  C   UNL     1       4.980   2.092  -5.247  0.00  0.00    -0.008 C 
ATOM     31  C   UNL     1       4.104   1.064  -5.965  0.00  0.00    +0.007 C 
ATOM     32  C   UNL     1       4.509   2.241  -3.799  0.00  0.00    +0.029 C 
ENDBRANCH  21  23
ENDBRANCH  18  19
ENDBRANCH   4  18
TORSDOF 5
