REMARK  Name = ZINC39595128
REMARK  10 active torsions:
REMARK  status: ('A' for Active; 'I' for Inactive)
REMARK    1  A    between atoms: C_1  and  C_2
REMARK    2  A    between atoms: C_2  and  C_3
REMARK    3  A    between atoms: C_3  and  C_5
REMARK    4  A    between atoms: C_3  and  C_6
REMARK    5  A    between atoms: C_6  and  C_7
REMARK    6  A    between atoms: C_11  and  C_20
REMARK    7  A    between atoms: N_22  and  C_23
REMARK    8  A    between atoms: C_23  and  C_24
REMARK    9  A    between atoms: C_24  and  C_26
REMARK   10  A    between atoms: C_24  and  N_32
REMARK                            x       y       z     vdW  Elec       q    Type
REMARK                         _______ _______ _______ _____ _____    ______ ____
ROOT
ATOM      1  C   UNL     1      -1.886  -2.639  -0.451  0.00  0.00    +0.216 C 
ATOM      2  O   UNL     1      -2.717  -1.759  -0.526  0.00  0.00    -0.276 OA
ATOM      3  N   UNL     1      -2.261  -3.930  -0.557  0.00  0.00    -0.300 N 
ATOM      4  C   UNL     1      -1.401  -5.134  -0.485  0.00  0.00    +0.121 C 
ATOM      5  C   UNL     1      -2.234  -6.162   0.312  0.00  0.00    +0.100 C 
ATOM      6  C   UNL     1      -3.694  -5.718   0.119  0.00  0.00    -0.004 C 
ATOM      7  C   UNL     1      -3.628  -4.465  -0.765  0.00  0.00    +0.115 C 
ATOM      8  C   UNL     1      -4.324  -5.375   1.465  0.00  0.00    -0.010 C 
ATOM      9  C   UNL     1      -5.792  -4.991   1.254  0.00  0.00    -0.082 C 
ATOM     10  N   UNL     1      -6.506  -6.110   0.627  0.00  0.00    +0.379 N 
ATOM     11  C   UNL     1      -5.953  -6.374  -0.706  0.00  0.00    -0.082 C 
ATOM     12  C   UNL     1      -4.493  -6.816  -0.578  0.00  0.00    -0.010 C 
ATOM     13  H   UNL     1      -6.406  -6.934   1.201  0.00  0.00    -0.086 HD
ATOM     14  H   UNL     1      -7.485  -5.878   0.545  0.00  0.00    -0.086 HD
ENDROOT
BRANCH   5  15
ATOM     15  C   UNL     1      -1.860  -6.122   1.771  0.00  0.00    +0.218 C 
ATOM     16  O   UNL     1      -1.439  -5.096   2.261  0.00  0.00    -0.275 OA
ATOM     17  N   UNL     1      -1.993  -7.227   2.532  0.00  0.00    -0.316 N 
ATOM     18  H   UNL     1      -2.330  -8.048   2.139  0.00  0.00    +0.149 HD
BRANCH  17  19
ATOM     19  C   UNL     1      -1.629  -7.188   3.950  0.00  0.00    +0.093 C 
BRANCH  19  20
ATOM     20  C   UNL     1      -1.741  -8.594   4.544  0.00  0.00    -0.019 C 
BRANCH  20  21
ATOM     21  C   UNL     1      -0.717  -9.494   3.903  0.00  0.00    -0.041 A 
ATOM     22  C   UNL     1      -1.082 -10.358   2.882  0.00  0.00    +0.005 A 
ATOM     23  C   UNL     1      -0.106 -11.167   2.321  0.00  0.00    +0.020 A 
ATOM     24  C   UNL     1       1.190 -11.086   2.796  0.00  0.00    +0.111 A 
ATOM     25  N   UNL     1       1.501 -10.253   3.769  0.00  0.00    -0.263 NA
ATOM     26  C   UNL     1       0.600  -9.464   4.321  0.00  0.00    +0.112 A 
ENDBRANCH  20  21
BRANCH  20  27
ATOM     27  N   UNL     1      -1.503  -8.534   5.992  0.00  0.00    +0.385 N 
ATOM     28  C   UNL     1      -2.556  -7.721   6.652  0.00  0.00    -0.078 C 
ATOM     29  C   UNL     1      -2.510  -8.206   8.122  0.00  0.00    -0.020 C 
ATOM     30  C   UNL     1      -2.239  -9.722   7.978  0.00  0.00    -0.020 C 
ATOM     31  C   UNL     1      -1.608  -9.886   6.583  0.00  0.00    -0.078 C 
ATOM     32  H   UNL     1      -0.592  -8.143   6.179  0.00  0.00    -0.081 HD
ENDBRANCH  20  27
ENDBRANCH  19  20
ENDBRANCH  17  19
ENDBRANCH   5  15
BRANCH   1  33
ATOM     33  C   UNL     1      -0.435  -2.291  -0.240  0.00  0.00    +0.099 C 
BRANCH  33  34
ATOM     34  C   UNL     1      -0.283  -0.771  -0.154  0.00  0.00    -0.006 C 
ATOM     35  C   UNL     1      -1.008  -0.255   1.090  0.00  0.00    +0.008 C 
BRANCH  34  37
ATOM     36  C   UNL     1       1.361   1.109  -0.105  0.00  0.00    +0.004 C 
ATOM     37  C   UNL     1       1.202  -0.412  -0.065  0.00  0.00    +0.000 C 
ENDBRANCH  34  37
ENDBRANCH  33  34
ENDBRANCH   1  33
TORSDOF 8
