REMARK  Name = ZINC12495585
REMARK  8 active torsions:
REMARK  status: ('A' for Active; 'I' for Inactive)
REMARK    1  A    between atoms: C_1  and  C_2
REMARK    2  A    between atoms: C_2  and  C_3
REMARK    3  A    between atoms: C_3  and  C_4
REMARK    4  A    between atoms: C_4  and  C_24
REMARK    5  A    between atoms: C_9  and  C_11
REMARK    6  A    between atoms: N_20  and  C_23
REMARK    7  A    between atoms: C_24  and  O_26
REMARK    8  A    between atoms: O_26  and  C_27
REMARK                            x       y       z     vdW  Elec       q    Type
REMARK                         _______ _______ _______ _____ _____    ______ ____
ROOT
ATOM      1  C   UNL     1      -1.331   2.074   0.020  0.00  0.00    +0.044 C 
ATOM      2  C   UNL     1      -1.183   3.402  -0.596  0.00  0.00    +0.086 C 
ATOM      3  C   UNL     1      -1.335   3.092  -2.139  0.00  0.00    +0.077 C 
ATOM      4  C   UNL     1      -2.614   2.255  -2.012  0.00  0.00    -0.027 C 
ATOM      5  C   UNL     1      -1.413   4.529  -2.576  0.00  0.00    +0.224 C 
ATOM      6  O   UNL     1      -2.084   4.985  -3.478  0.00  0.00    -0.275 OA
ATOM      7  N   UNL     1      -0.572   5.214  -1.745  0.00  0.00    -0.245 N 
ATOM      8  C   UNL     1      -0.242   4.501  -0.619  0.00  0.00    +0.225 C 
ATOM      9  O   UNL     1       0.640   4.739   0.177  0.00  0.00    -0.275 OA
ATOM     10  C   UNL     1      -0.075   6.563  -2.026  0.00  0.00    +0.141 C 
ATOM     11  N   UNL     1      -2.327   1.383  -0.851  0.00  0.00    +0.395 N 
ATOM     12  H   UNL     1      -3.191   1.213  -0.323  0.00  0.00    -0.083 HD
ATOM     13  H   UNL     1      -1.942   0.488  -1.176  0.00  0.00    -0.083 HD
ENDROOT
BRANCH   4  14
ATOM     14  C   UNL     1      -2.851   1.448  -3.263  0.00  0.00    -0.061 A 
ATOM     15  C   UNL     1      -2.156   0.271  -3.468  0.00  0.00    +0.003 A 
ATOM     16  C   UNL     1      -2.377  -0.472  -4.613  0.00  0.00    +0.020 A 
ATOM     17  C   UNL     1      -3.287  -0.032  -5.557  0.00  0.00    +0.041 A 
ATOM     18  C   UNL     1      -3.979   1.149  -5.353  0.00  0.00    +0.020 A 
ATOM     19  C   UNL     1      -3.761   1.888  -4.206  0.00  0.00    +0.003 A 
ATOM     20 CL   UNL     1      -3.561  -0.960  -6.998  0.00  0.00    -0.084 Cl
ENDBRANCH   4  14
BRANCH   1  21
ATOM     21  C   UNL     1      -0.016   1.338   0.009  0.00  0.00    +0.297 C 
ATOM     22  O   UNL     1       1.022   1.956   0.003  0.00  0.00    -0.252 OA
BRANCH  21  23
ATOM     23  O   UNL     1       0.002  -0.004   0.002  0.00  0.00    -0.469 OA
ATOM     24  C   UNL     1       1.305  -0.646  -0.014  0.00  0.00    +0.280 C 
ENDBRANCH  21  23
ENDBRANCH   1  21
BRANCH   1  25
ATOM     25  C   UNL     1      -1.860   2.202   1.450  0.00  0.00    -0.001 C 
BRANCH  25  27
ATOM     26  C   UNL     1      -2.577   0.937   3.481  0.00  0.00    +0.004 C 
ATOM     27  C   UNL     1      -2.048   0.808   2.051  0.00  0.00    -0.004 C 
ENDBRANCH  25  27
ENDBRANCH   1  25
TORSDOF 5
