REMARK  Name = ZINC24178357
REMARK  5 active torsions:
REMARK  status: ('A' for Active; 'I' for Inactive)
REMARK    1  A    between atoms: C_1  and  C_2
REMARK    2  A    between atoms: C_4  and  C_8
REMARK    3  A    between atoms: C_5  and  C_7
REMARK    4  A    between atoms: N_10  and  N_11
REMARK    5  A    between atoms: C_12  and  C_14
REMARK                            x       y       z     vdW  Elec       q    Type
REMARK                         _______ _______ _______ _____ _____    ______ ____
ROOT
ATOM      1  N   UNL     1       1.187   2.061   0.002  0.00  0.00    -0.230 N 
ATOM      2  C   UNL     1       1.169   3.408   0.009  0.00  0.00    +0.267 C 
ATOM      3  O   UNL     1       0.107   4.002   0.022  0.00  0.00    -0.268 OA
ATOM      4  H   UNL     1       2.147   1.524  -0.010  0.00  0.00    +0.173 HD
ENDROOT
BRANCH   2   5
ATOM      5  C   UNL     1       2.429   4.158   0.001  0.00  0.00    +0.076 A 
ATOM      6  C   UNL     1       2.629   5.526   0.007  0.00  0.00    +0.024 A 
ATOM      7  C   UNL     1       3.932   5.997  -0.003  0.00  0.00    -0.036 A 
ATOM      8  C   UNL     1       4.924   5.059  -0.017  0.00  0.00    -0.006 A 
ATOM      9  S   UNL     1       4.104   3.544  -0.010  0.00  0.00    -0.088 S 
ATOM     10  C   UNL     1       6.401   5.307  -0.030  0.00  0.00    +0.043 C 
ATOM     11  C   UNL     1       6.641   6.778  -0.400  0.00  0.00    +0.005 C 
ATOM     12  C   UNL     1       5.723   7.657   0.453  0.00  0.00    +0.005 C 
ATOM     13  C   UNL     1       4.272   7.485   0.003  0.00  0.00    +0.036 C 
ENDBRANCH   2   5
BRANCH   1  16
ATOM     14  C   UNL     1       0.002  -0.004   0.002  0.00  0.00    +0.261 C 
ATOM     15  O   UNL     1       1.064  -0.598  -0.011  0.00  0.00    -0.269 OA
ATOM     16  N   UNL     1      -0.016   1.344   0.009  0.00  0.00    -0.230 N 
ATOM     17  H   UNL     1      -0.976   1.881   0.021  0.00  0.00    +0.173 HD
BRANCH  14  21
ATOM     18  C   UNL     1      -5.085  -0.438   0.046  0.00  0.00    +0.051 C 
ATOM     19  C   UNL     1      -3.639  -0.863   0.031  0.00  0.00    -0.012 A 
ATOM     20  C   UNL     1      -2.538  -0.086   0.025  0.00  0.00    +0.024 A 
ATOM     21  C   UNL     1      -1.262  -0.757   0.010  0.00  0.00    +0.048 A 
ATOM     22  C   UNL     1      -1.279  -2.137  -0.003  0.00  0.00    -0.001 A 
ATOM     23  S   UNL     1      -2.969  -2.513   0.016  0.00  0.00    -0.098 S 
ATOM     24  C   UNL     1      -0.110  -3.086  -0.025  0.00  0.00    +0.052 C 
ENDBRANCH  14  21
ENDBRANCH   1  16
TORSDOF 3
