REMARK  Name = ZINC16040809
REMARK  2 active torsions:
REMARK  status: ('A' for Active; 'I' for Inactive)
REMARK    1  A    between atoms: C_4  and  N_7
REMARK    2  A    between atoms: C_23  and  C_29
REMARK                            x       y       z     vdW  Elec       q    Type
REMARK                         _______ _______ _______ _____ _____    ______ ____
ROOT
ATOM      1  N   UNL     1       3.624  -0.652  -0.037  0.00  0.00    -0.210 N 
ATOM      2  C   UNL     1       3.728  -2.013  -0.051  0.00  0.00    +0.232 C 
ATOM      3  O   UNL     1       2.861  -2.809  -0.338  0.00  0.00    -0.274 OA
ATOM      4  C   UNL     1       5.150  -2.324   0.364  0.00  0.00    +0.115 C 
ATOM      5  C   UNL     1       5.949  -3.362  -0.319  0.00  0.00    +0.117 C 
ATOM      6  C   UNL     1       5.551  -4.497  -1.124  0.00  0.00    -0.019 A 
ATOM      7  C   UNL     1       4.243  -4.895  -1.304  0.00  0.00    +0.006 A 
ATOM      8  C   UNL     1       3.934  -5.997  -2.078  0.00  0.00    +0.000 A 
ATOM      9  C   UNL     1       4.940  -6.725  -2.689  0.00  0.00    +0.001 A 
ATOM     10  C   UNL     1       6.255  -6.347  -2.529  0.00  0.00    +0.008 A 
ATOM     11  C   UNL     1       6.580  -5.236  -1.755  0.00  0.00    -0.019 A 
ATOM     12  C   UNL     1       7.986  -4.817  -1.606  0.00  0.00    +0.023 C 
ATOM     13  C   UNL     1       8.326  -3.649  -1.030  0.00  0.00    +0.072 C 
ATOM     14  N   UNL     1       7.290  -2.836  -0.615  0.00  0.00    -0.316 N 
ATOM     15  C   UNL     1       7.231  -1.364  -0.425  0.00  0.00    +0.172 C 
ATOM     16  C   UNL     1       5.781  -1.066  -0.374  0.00  0.00    +0.119 C 
ATOM     17  C   UNL     1       4.844  -0.023  -0.047  0.00  0.00    +0.232 C 
ATOM     18  O   UNL     1       5.080   1.146   0.172  0.00  0.00    -0.274 OA
ENDROOT
BRANCH   1  22
ATOM     19  C   UNL     1      -0.017   1.379   0.010  0.00  0.00    +0.000 A 
ATOM     20  C   UNL     1       1.170   2.089   0.002  0.00  0.00    +0.002 A 
ATOM     21  C   UNL     1       2.377   1.419  -0.013  0.00  0.00    +0.024 A 
ATOM     22  C   UNL     1       2.399   0.031  -0.021  0.00  0.00    +0.044 A 
ATOM     23  C   UNL     1       1.207  -0.680  -0.013  0.00  0.00    +0.024 A 
ATOM     24  C   UNL     1       0.002  -0.004   0.002  0.00  0.00    +0.002 A 
ENDBRANCH   1  22
BRANCH  15  25
ATOM     25  C   UNL     1       7.877  -0.970   0.878  0.00  0.00    +0.232 C 
ATOM     26  O   UNL     1       8.046  -1.799   1.746  0.00  0.00    -0.274 OA
ATOM     27  N   UNL     1       8.268   0.305   1.078  0.00  0.00    -0.328 N 
ATOM     28  H   UNL     1       8.133   0.968   0.384  0.00  0.00    +0.145 HD
ATOM     29  H   UNL     1       8.684   0.558   1.917  0.00  0.00    +0.145 HD
ENDBRANCH  15  25
TORSDOF 2
