REMARK  Name = ZINC34774301
REMARK  9 active torsions:
REMARK  status: ('A' for Active; 'I' for Inactive)
REMARK    1  A    between atoms: C_1  and  C_2
REMARK    2  A    between atoms: C_5  and  C_35
REMARK    3  A    between atoms: C_6  and  C_8
REMARK    4  A    between atoms: C_8  and  N_9
REMARK    5  A    between atoms: C_17  and  C_29
REMARK    6  A    between atoms: C_22  and  S_24
REMARK    7  A    between atoms: S_24  and  C_25
REMARK    8  A    between atoms: C_25  and  C_26
REMARK    9  A    between atoms: C_26  and  C_28
REMARK                            x       y       z     vdW  Elec       q    Type
REMARK                         _______ _______ _______ _____ _____    ______ ____
ROOT
ATOM      1  N   UNL     1       2.211  -2.282   2.035  0.00  0.00    +0.384 N 
ATOM      2  C   UNL     1       3.527  -1.634   1.993  0.00  0.00    -0.059 C 
ATOM      3  C   UNL     1       4.583  -2.587   2.563  0.00  0.00    +0.088 C 
ATOM      4  N   UNL     1       4.156  -3.006   3.907  0.00  0.00    -0.318 N 
ATOM      5  C   UNL     1       2.787  -3.517   4.071  0.00  0.00    +0.088 C 
ATOM      6  C   UNL     1       1.816  -2.520   3.429  0.00  0.00    -0.059 C 
ATOM      7  C   UNL     1       5.018  -2.921   4.986  0.00  0.00    +0.134 A 
ATOM      8  C   UNL     1       6.086  -3.847   5.125  0.00  0.00    +0.055 A 
ATOM      9  C   UNL     1       6.468  -4.963   4.264  0.00  0.00    +0.002 A 
ATOM     10  C   UNL     1       7.538  -5.715   4.608  0.00  0.00    +0.056 A 
ATOM     11  S   UNL     1       8.104  -4.964   6.122  0.00  0.00    -0.076 S 
ATOM     12  C   UNL     1       6.902  -3.668   6.260  0.00  0.00    +0.115 A 
ATOM     13  N   UNL     1       6.675  -2.699   7.127  0.00  0.00    -0.214 NA
ATOM     14  C   UNL     1       5.662  -1.863   6.945  0.00  0.00    +0.191 A 
ATOM     15  N   UNL     1       4.858  -1.973   5.894  0.00  0.00    -0.206 NA
ATOM     16  H   UNL     1       2.255  -3.162   1.545  0.00  0.00    -0.081 HD
ENDROOT
BRANCH   9  17
ATOM     17  C   UNL     1       5.696  -5.266   3.035  0.00  0.00    -0.017 A 
ATOM     18  C   UNL     1       4.341  -5.584   3.121  0.00  0.00    +0.008 A 
ATOM     19  C   UNL     1       3.627  -5.865   1.974  0.00  0.00    +0.001 A 
ATOM     20  C   UNL     1       4.254  -5.832   0.741  0.00  0.00    +0.000 A 
ATOM     21  C   UNL     1       5.598  -5.517   0.649  0.00  0.00    +0.001 A 
ATOM     22  C   UNL     1       6.320  -5.229   1.789  0.00  0.00    +0.008 A 
ENDBRANCH   9  17
BRANCH   1  23
ATOM     23  C   UNL     1       1.218  -1.413   1.389  0.00  0.00    -0.043 C 
BRANCH  23  29
ATOM     24  C   UNL     1       3.225   1.237  -2.352  0.00  0.00    +0.044 C 
ATOM     25  C   UNL     1       2.514   0.002  -1.862  0.00  0.00    -0.050 A 
ATOM     26  C   UNL     1       2.171  -0.997  -2.754  0.00  0.00    +0.003 A 
ATOM     27  C   UNL     1       1.519  -2.130  -2.305  0.00  0.00    +0.004 A 
ATOM     28  C   UNL     1       1.210  -2.264  -0.964  0.00  0.00    -0.049 A 
ATOM     29  C   UNL     1       1.554  -1.266  -0.072  0.00  0.00    -0.061 A 
ATOM     30  C   UNL     1       2.211  -0.135  -0.521  0.00  0.00    +0.005 A 
ATOM     31  C   UNL     1       0.498  -3.499  -0.475  0.00  0.00    +0.044 C 
ENDBRANCH  23  29
ENDBRANCH   1  23
BRANCH  14  32
ATOM     32  S   UNL     1       5.381  -0.578   8.118  0.00  0.00    -0.082 S 
BRANCH  32  33
ATOM     33  C   UNL     1       6.696  -0.809   9.346  0.00  0.00    +0.107 C 
BRANCH  33  34
ATOM     34  C   UNL     1       6.570   0.240  10.420  0.00  0.00    -0.069 C 
ATOM     35  C   UNL     1       6.096  -0.083  11.598  0.00  0.00    +0.008 C 
ATOM     36  C   UNL     1       6.988   1.660  10.140  0.00  0.00    +0.039 C 
ENDBRANCH  33  34
ENDBRANCH  32  33
ENDBRANCH  14  32
TORSDOF 6
