REMARK  Name = ZINC09520936
REMARK  11 active torsions:
REMARK  status: ('A' for Active; 'I' for Inactive)
REMARK    1  A    between atoms: C_1  and  C_2
REMARK    2  A    between atoms: C_2  and  O_3
REMARK    3  A    between atoms: O_3  and  C_4
REMARK    4  A    between atoms: C_4  and  C_6
REMARK    5  A    between atoms: C_10  and  N_11
REMARK    6  A    between atoms: C_12  and  C_14
REMARK    7  A    between atoms: C_14  and  C_15
REMARK    8  A    between atoms: C_24  and  C_29
REMARK    9  A    between atoms: C_24  and  C_30
REMARK   10  A    between atoms: C_25  and  C_27
REMARK   11  A    between atoms: C_25  and  C_28
REMARK                            x       y       z     vdW  Elec       q    Type
REMARK                         _______ _______ _______ _____ _____    ______ ____
ROOT
ATOM      1  C   UNL     1       9.645  -1.861   0.630  0.00  0.00    +0.091 A 
ATOM      2  C   UNL     1      10.354  -2.274  -0.562  0.00  0.00    -0.024 A 
ATOM      3  C   UNL     1       9.598  -2.399  -1.678  0.00  0.00    -0.016 A 
ATOM      4  S   UNL     1       7.960  -1.982  -1.156  0.00  0.00    -0.079 S 
ATOM      5  C   UNL     1       8.275  -1.642   0.513  0.00  0.00    +0.086 A 
ATOM      6  C   UNL     1      10.077  -2.796  -3.036  0.00  0.00    -0.041 C 
ATOM      7  C   UNL     1      12.027  -3.655  -1.732  0.00  0.00    -0.069 C 
ATOM      8  C   UNL     1      11.844  -2.576  -0.657  0.00  0.00    +0.024 C 
ATOM      9  C   UNL     1      11.406  -4.966  -1.241  0.00  0.00    -0.010 C 
ATOM     10  C   UNL     1      13.539  -3.886  -1.913  0.00  0.00    -0.010 C 
ATOM     11  C   UNL     1       9.162  -3.895  -3.595  0.00  0.00    -0.005 C 
ATOM     12  C   UNL     1       9.972  -1.572  -3.965  0.00  0.00    -0.005 C 
ATOM     13  N   UNL     1      11.495  -3.258  -3.061  0.00  0.00    +0.389 N 
ATOM     14  H   UNL     1      12.076  -2.495  -3.426  0.00  0.00    -0.084 HD
ATOM     15  H   UNL     1      11.559  -4.068  -3.688  0.00  0.00    -0.084 HD
ENDROOT
BRANCH   5  16
ATOM     16  N   UNL     1       7.382  -1.247   1.497  0.00  0.00    -0.279 N 
ATOM     17  C   UNL     1       6.078  -1.085   1.196  0.00  0.00    +0.222 C 
ATOM     18  O   UNL     1       5.687  -1.283   0.066  0.00  0.00    -0.275 OA
ATOM     19  H   UNL     1       7.695  -1.089   2.401  0.00  0.00    +0.155 HD
BRANCH  17  20
ATOM     20  C   UNL     1       5.107  -0.655   2.265  0.00  0.00    +0.131 C 
BRANCH  20  21
ATOM     21  C   UNL     1       3.725  -0.548   1.674  0.00  0.00    -0.035 A 
ATOM     22  C   UNL     1       2.885  -1.646   1.677  0.00  0.00    +0.008 A 
ATOM     23  C   UNL     1       1.617  -1.553   1.135  0.00  0.00    +0.050 A 
ATOM     24  C   UNL     1       1.183  -0.356   0.589  0.00  0.00    +0.166 A 
ATOM     25  C   UNL     1       2.028   0.751   0.586  0.00  0.00    +0.166 A 
ATOM     26  C   UNL     1       3.298   0.650   1.131  0.00  0.00    +0.053 A 
ATOM     27  O   UNL     1       1.376   1.797  -0.001  0.00  0.00    -0.453 OA
ATOM     28  C   UNL     1      -0.018   1.436   0.010  0.00  0.00    +0.466 C 
ATOM     29  O   UNL     1       0.002  -0.004   0.002  0.00  0.00    -0.453 OA
ENDBRANCH  20  21
ENDBRANCH  17  20
ENDBRANCH   5  16
BRANCH   1  30
ATOM     30  C   UNL     1      10.328  -1.674   1.912  0.00  0.00    +0.342 C 
ATOM     31  O   UNL     1      10.431  -2.606   2.687  0.00  0.00    -0.245 OA
BRANCH  30  32
ATOM     32  O   UNL     1      10.844  -0.470   2.232  0.00  0.00    -0.461 OA
BRANCH  32  34
ATOM     33  C   UNL     1      12.024   1.070   3.704  0.00  0.00    +0.048 C 
ATOM     34  C   UNL     1      11.508  -0.358   3.519  0.00  0.00    +0.229 C 
ENDBRANCH  32  34
ENDBRANCH  30  32
ENDBRANCH   1  30
TORSDOF 6
