REMARK  Name = ZINC20998527
REMARK  6 active torsions:
REMARK  status: ('A' for Active; 'I' for Inactive)
REMARK    1  A    between atoms: C_4  and  O_31
REMARK    2  A    between atoms: C_5  and  C_7
REMARK    3  A    between atoms: C_7  and  N_8
REMARK    4  A    between atoms: C_12  and  N_15
REMARK    5  A    between atoms: N_18  and  C_21
REMARK    6  A    between atoms: C_21  and  C_22
REMARK                            x       y       z     vdW  Elec       q    Type
REMARK                         _______ _______ _______ _____ _____    ______ ____
ROOT
ATOM      1  N   UNL     1      -6.011   5.667  -2.888  0.00  0.00    -0.305 NA
ATOM      2  C   UNL     1      -6.999   4.870  -2.147  0.00  0.00    +0.066 C 
ATOM      3  C   UNL     1      -8.344   5.601  -2.147  0.00  0.00    -0.063 C 
ATOM      4  N   UNL     1      -8.780   5.817  -3.534  0.00  0.00    +0.384 N 
ATOM      5  C   UNL     1      -7.793   6.614  -4.275  0.00  0.00    -0.063 C 
ATOM      6  C   UNL     1      -6.447   5.884  -4.275  0.00  0.00    +0.066 C 
ATOM      7  H   UNL     1      -8.860   4.835  -4.022  0.00  0.00    -0.081 HD
ENDROOT
BRANCH   1  12
ATOM      8  N   UNL     1      -2.933   4.212  -1.347  0.00  0.00    +0.383 N 
ATOM      9  C   UNL     1      -1.927   5.083  -1.967  0.00  0.00    -0.078 C 
ATOM     10  C   UNL     1      -2.277   5.301  -3.441  0.00  0.00    -0.017 C 
ATOM     11  C   UNL     1      -3.665   5.939  -3.542  0.00  0.00    +0.015 C 
ATOM     12  C   UNL     1      -4.686   5.035  -2.846  0.00  0.00    +0.040 C 
ATOM     13  C   UNL     1      -4.266   4.825  -1.389  0.00  0.00    -0.059 C 
ATOM     14  H   UNL     1      -2.973   3.280  -1.930  0.00  0.00    -0.081 HD
BRANCH   8  15
ATOM     15  C   UNL     1      -2.555   3.869   0.031  0.00  0.00    -0.039 C 
BRANCH  15  20
ATOM     16  C   UNL     1       0.950   2.489   0.294  0.00  0.00    +0.000 A 
ATOM     17  C   UNL     1       0.751   1.159  -0.029  0.00  0.00    +0.004 A 
ATOM     18  C   UNL     1      -0.516   0.703  -0.333  0.00  0.00    +0.045 A 
ATOM     19  C   UNL     1      -1.591   1.580  -0.315  0.00  0.00    +0.118 A 
ATOM     20  C   UNL     1      -1.389   2.913   0.009  0.00  0.00    -0.022 A 
ATOM     21  C   UNL     1      -0.120   3.364   0.318  0.00  0.00    +0.005 A 
BRANCH  19  22
ATOM     22  O   UNL     1      -2.840   1.133  -0.613  0.00  0.00    -0.507 OA
ATOM     23  H   UNL     1      -3.691   1.829  -0.598  0.00  0.00    +0.292 HD
ENDBRANCH  19  22
ENDBRANCH  15  20
ENDBRANCH   8  15
ENDBRANCH   1  12
BRANCH   4  24
ATOM     24  C   UNL     1     -10.105   6.450  -3.576  0.00  0.00    -0.043 C 
BRANCH  24  25
ATOM     25  C   UNL     1     -11.134   5.497  -3.025  0.00  0.00    -0.060 A 
ATOM     26  C   UNL     1     -11.786   4.620  -3.872  0.00  0.00    +0.005 A 
ATOM     27  C   UNL     1     -12.727   3.740  -3.370  0.00  0.00    +0.050 A 
ATOM     28  C   UNL     1     -13.027   3.743  -2.018  0.00  0.00    +0.166 A 
ATOM     29  C   UNL     1     -12.374   4.630  -1.165  0.00  0.00    +0.166 A 
ATOM     30  C   UNL     1     -11.428   5.505  -1.674  0.00  0.00    +0.051 A 
ATOM     31  O   UNL     1     -12.840   4.438   0.103  0.00  0.00    -0.453 OA
ATOM     32  C   UNL     1     -14.074   3.712  -0.046  0.00  0.00    +0.466 C 
ATOM     33  O   UNL     1     -13.902   2.996  -1.283  0.00  0.00    -0.453 OA
ENDBRANCH  24  25
ENDBRANCH   4  24
TORSDOF 6
