REMARK  Name = ZINC55304375
REMARK  4 active torsions:
REMARK  status: ('A' for Active; 'I' for Inactive)
REMARK    1  A    between atoms: C_1  and  O_2
REMARK    2  A    between atoms: O_2  and  C_3
REMARK    3  A    between atoms: C_6  and  C_10
REMARK    4  A    between atoms: C_10  and  C_12
REMARK                            x       y       z     vdW  Elec       q    Type
REMARK                         _______ _______ _______ _____ _____    ______ ____
ROOT
ATOM      1  C   UNL     1       0.606  -0.607  -1.056  0.00  0.00    +0.123 A 
ATOM      2  C   UNL     1       1.173   0.161  -2.062  0.00  0.00    +0.046 A 
ATOM      3  C   UNL     1       1.786  -0.453  -3.137  0.00  0.00    +0.011 A 
ATOM      4  C   UNL     1       1.836  -1.833  -3.211  0.00  0.00    +0.008 A 
ATOM      5  C   UNL     1       1.271  -2.602  -2.208  0.00  0.00    +0.132 A 
ATOM      6  C   UNL     1       0.661  -1.991  -1.127  0.00  0.00    +0.084 A 
ATOM      7  F   UNL     1       1.320  -3.950  -2.283  0.00  0.00    -0.205 F 
ENDROOT
BRANCH   1   9
ATOM      8  C   UNL     1      -0.017   1.425   0.010  0.00  0.00    +0.277 C 
ATOM      9  O   UNL     1       0.002  -0.004   0.002  0.00  0.00    -0.495 OA
ENDBRANCH   1   9
BRANCH   4  10
ATOM     10  C   UNL     1       2.505  -2.499  -4.385  0.00  0.00    +0.144 C 
ATOM     11 CL   UNL     1       1.625  -4.019  -4.795  0.00  0.00    -0.114 Cl
BRANCH  10  12
ATOM     12  C   UNL     1       3.955  -2.831  -4.025  0.00  0.00    +0.166 C 
ATOM     13  C   UNL     1       4.673  -3.391  -5.256  0.00  0.00    +0.193 C 
ATOM     14  O   UNL     1       6.054  -3.593  -4.942  0.00  0.00    -0.375 OA
ATOM     15  C   UNL     1       6.723  -2.405  -4.509  0.00  0.00    +0.188 C 
ATOM     16  C   UNL     1       6.005  -1.845  -3.278  0.00  0.00    +0.188 C 
ATOM     17  O   UNL     1       4.623  -1.643  -3.590  0.00  0.00    -0.370 OA
ENDBRANCH  10  12
ENDBRANCH   4  10
TORSDOF 3
