REMARK  Name = ZINC25384368
REMARK  11 active torsions:
REMARK  status: ('A' for Active; 'I' for Inactive)
REMARK    1  A    between atoms: C_1  and  C_2
REMARK    2  A    between atoms: C_2  and  C_3
REMARK    3  A    between atoms: C_2  and  C_4
REMARK    4  A    between atoms: C_4  and  C_6
REMARK    5  A    between atoms: C_4  and  N_22
REMARK    6  A    between atoms: N_8  and  C_9
REMARK    7  A    between atoms: C_9  and  C_10
REMARK    8  A    between atoms: C_10  and  C_12
REMARK    9  A    between atoms: C_10  and  N_17
REMARK   10  A    between atoms: N_22  and  S_23
REMARK   11  A    between atoms: S_23  and  C_26
REMARK                            x       y       z     vdW  Elec       q    Type
REMARK                         _______ _______ _______ _____ _____    ______ ____
ROOT
ATOM      1  C   UNL     1       5.094  -5.431   1.486  0.00  0.00    +0.165 C 
ENDROOT
BRANCH   1   2
ATOM      2  C   UNL     1       4.319  -4.246   2.003  0.00  0.00    +0.232 C 
ATOM      3  O   UNL     1       4.482  -3.866   3.143  0.00  0.00    -0.274 OA
ATOM      4  N   UNL     1       3.444  -3.610   1.199  0.00  0.00    -0.315 N 
ATOM      5  H   UNL     1       3.228  -4.010   0.197  0.00  0.00    +0.149 HD
BRANCH   4   6
ATOM      6  C   UNL     1       2.782  -2.387   1.659  0.00  0.00    +0.094 C 
BRANCH   6   7
ATOM      7  C   UNL     1       1.734  -1.957   0.630  0.00  0.00    -0.013 C 
BRANCH   7   8
ATOM      8  N   UNL     1       0.694  -2.989   0.529  0.00  0.00    +0.386 N 
ATOM      9  C   UNL     1      -0.482  -2.488  -0.227  0.00  0.00    -0.078 C 
ATOM     10  C   UNL     1      -1.192  -3.788  -0.681  0.00  0.00    -0.020 C 
ATOM     11  C   UNL     1      -0.011  -4.731  -1.008  0.00  0.00    -0.020 C 
ATOM     12  C   UNL     1       1.186  -4.165  -0.222  0.00  0.00    -0.078 C 
ATOM     13  H   UNL     1       0.433  -3.253   1.565  0.00  0.00    -0.081 HD
ENDBRANCH   7   8
BRANCH   7  14
ATOM     14  C   UNL     1       1.110  -0.655   1.063  0.00  0.00    -0.022 A 
ATOM     15  C   UNL     1       1.302   0.591   0.566  0.00  0.00    +0.009 A 
ATOM     16  C   UNL     1       0.614   1.650   1.127  0.00  0.00    +0.008 A 
ATOM     17  C   UNL     1      -0.233   1.411   2.159  0.00  0.00    +0.045 A 
ATOM     18  S   UNL     1      -0.074  -0.355   2.365  0.00  0.00    -0.103 S 
ENDBRANCH   7  14
ENDBRANCH   6   7
ENDBRANCH   4   6
ENDBRANCH   1   2
BRANCH   1  20
ATOM     19  C   UNL     1       5.992  -4.079  -0.414  0.00  0.00    +0.009 C 
ATOM     20  C   UNL     1       6.367  -4.943   0.792  0.00  0.00    +0.010 C 
ATOM     21  C   UNL     1       7.199  -4.115   1.774  0.00  0.00    +0.009 C 
ENDBRANCH   1  20
BRANCH   1  22
ATOM     22  N   UNL     1       5.453  -6.306   2.605  0.00  0.00    -0.178 NA
ATOM     23  H   UNL     1       5.853  -5.875   3.534  0.00  0.00    +0.149 HD
BRANCH  22  24
ATOM     24  S   UNL     1       5.492  -7.948   2.392  0.00  0.00    +0.059 S 
ATOM     25  O   UNL     1       5.894  -8.509   3.634  0.00  0.00    -0.153 OA
ATOM     26  O   UNL     1       4.274  -8.304   1.754  0.00  0.00    -0.153 OA
BRANCH  24  27
ATOM     27  C   UNL     1       6.782  -8.293   1.243  0.00  0.00    +0.106 A 
ATOM     28  C   UNL     1       6.495  -8.334  -0.120  0.00  0.00    +0.029 A 
ATOM     29  C   UNL     1       7.469  -8.592  -1.034  0.00  0.00    +0.010 A 
ATOM     30  C   UNL     1       8.784  -8.834  -0.600  0.00  0.00    -0.018 A 
ATOM     31  C   UNL     1       9.815  -9.111  -1.514  0.00  0.00    +0.008 A 
ATOM     32  C   UNL     1      11.076  -9.340  -1.057  0.00  0.00    +0.001 A 
ATOM     33  C   UNL     1      11.363  -9.305   0.307  0.00  0.00    +0.001 A 
ATOM     34  C   UNL     1      10.389  -9.040   1.220  0.00  0.00    +0.008 A 
ATOM     35  C   UNL     1       9.075  -8.798   0.786  0.00  0.00    -0.016 A 
ATOM     36  C   UNL     1       8.044  -8.522   1.700  0.00  0.00    +0.037 A 
ENDBRANCH  24  27
ENDBRANCH  22  24
ENDBRANCH   1  22
TORSDOF 9
