REMARK  Name = ZINC41585057
REMARK  13 active torsions:
REMARK  status: ('A' for Active; 'I' for Inactive)
REMARK    1  A    between atoms: C_1  and  C_2
REMARK    2  A    between atoms: C_2  and  C_3
REMARK    3  A    between atoms: C_3  and  O_4
REMARK    4  A    between atoms: O_4  and  C_5
REMARK    5  A    between atoms: C_5  and  C_7
REMARK    6  A    between atoms: C_7  and  C_8
REMARK    7  A    between atoms: C_8  and  C_9
REMARK    8  A    between atoms: C_12  and  C_38
REMARK    9  A    between atoms: C_18  and  C_21
REMARK   10  A    between atoms: C_19  and  O_20
REMARK   11  A    between atoms: C_21  and  N_22
REMARK   12  A    between atoms: N_25  and  C_28
REMARK   13  A    between atoms: C_28  and  C_29
REMARK                            x       y       z     vdW  Elec       q    Type
REMARK                         _______ _______ _______ _____ _____    ______ ____
ROOT
ATOM      1  C   UNL     1       2.179  -5.947  -3.743  0.00  0.00    -0.004 A 
ATOM      2  C   UNL     1       3.282  -6.606  -3.282  0.00  0.00    +0.019 A 
ATOM      3  C   UNL     1       3.337  -8.003  -3.353  0.00  0.00    +0.021 A 
ATOM      4  C   UNL     1       4.507  -8.737  -2.866  0.00  0.00    -0.033 A 
ATOM      5  C   UNL     1       4.500 -10.092  -2.963  0.00  0.00    +0.096 A 
ATOM      6  C   UNL     1       3.384 -10.750  -3.521  0.00  0.00    +0.337 A 
ATOM      7  O   UNL     1       3.391 -11.965  -3.602  0.00  0.00    -0.245 OA
ATOM      8  O   UNL     1       2.315 -10.071  -3.966  0.00  0.00    -0.422 OA
ATOM      9  C   UNL     1       2.258  -8.723  -3.899  0.00  0.00    +0.147 A 
ATOM     10  C   UNL     1       1.147  -8.037  -4.363  0.00  0.00    +0.051 A 
ATOM     11  C   UNL     1       1.106  -6.655  -4.279  0.00  0.00    +0.128 A 
ATOM     12  C   UNL     1       5.686  -8.009  -2.274  0.00  0.00    +0.045 C 
ENDROOT
BRANCH  11  13
ATOM     13  O   UNL     1       0.015  -5.985  -4.729  0.00  0.00    -0.506 OA
ATOM     14  H   UNL     1       0.063  -5.735  -5.662  0.00  0.00    +0.292 HD
ENDBRANCH  11  13
BRANCH   1  15
ATOM     15  C   UNL     1       2.120  -4.443  -3.666  0.00  0.00    +0.050 C 
BRANCH  15  16
ATOM     16  C   UNL     1       1.393  -4.026  -2.386  0.00  0.00    +0.125 C 
BRANCH  16  17
ATOM     17  C   UNL     1       1.334  -2.522  -2.309  0.00  0.00    +0.307 C 
ATOM     18  O   UNL     1       1.823  -1.852  -3.188  0.00  0.00    -0.251 OA
BRANCH  17  19
ATOM     19  O   UNL     1       0.738  -1.926  -1.265  0.00  0.00    -0.465 OA
BRANCH  19  20
ATOM     20  C   UNL     1       0.718  -0.497  -1.257  0.00  0.00    +0.232 C 
BRANCH  20  22
ATOM     21  C   UNL     1      -0.019   1.526   0.010  0.00  0.00    +0.007 C 
ATOM     22  C   UNL     1       0.002  -0.004   0.002  0.00  0.00    +0.038 C 
ENDBRANCH  20  22
ENDBRANCH  19  20
ENDBRANCH  17  19
ENDBRANCH  16  17
ENDBRANCH  15  16
ENDBRANCH   1  15
BRANCH  10  23
ATOM     23  C   UNL     1      -0.017  -8.793  -4.951  0.00  0.00    +0.126 C 
BRANCH  23  24
ATOM     24  N   UNL     1      -0.973  -9.126  -3.886  0.00  0.00    -0.301 NA
ATOM     25  C   UNL     1      -0.389 -10.080  -2.933  0.00  0.00    +0.066 C 
ATOM     26  C   UNL     1      -1.392 -10.354  -1.810  0.00  0.00    -0.063 C 
ATOM     27  N   UNL     1      -2.629 -10.902  -2.382  0.00  0.00    +0.384 N 
ATOM     28  C   UNL     1      -3.214  -9.928  -3.313  0.00  0.00    -0.063 C 
ATOM     29  C   UNL     1      -2.226  -9.650  -4.448  0.00  0.00    +0.066 C 
ATOM     30  H   UNL     1      -2.421 -11.756  -2.876  0.00  0.00    -0.081 HD
BRANCH  27  31
ATOM     31  C   UNL     1      -3.585 -11.181  -1.302  0.00  0.00    -0.043 C 
BRANCH  31  32
ATOM     32  C   UNL     1      -4.805 -11.856  -1.874  0.00  0.00    -0.060 A 
ATOM     33  C   UNL     1      -5.872 -11.095  -2.315  0.00  0.00    +0.005 A 
ATOM     34  C   UNL     1      -6.993 -11.709  -2.841  0.00  0.00    +0.050 A 
ATOM     35  C   UNL     1      -7.051 -13.091  -2.925  0.00  0.00    +0.166 A 
ATOM     36  C   UNL     1      -5.976 -13.858  -2.481  0.00  0.00    +0.166 A 
ATOM     37  C   UNL     1      -4.854 -13.235  -1.961  0.00  0.00    +0.051 A 
ATOM     38  O   UNL     1      -6.274 -15.177  -2.670  0.00  0.00    -0.453 OA
ATOM     39  C   UNL     1      -7.701 -15.226  -2.855  0.00  0.00    +0.466 C 
ATOM     40  O   UNL     1      -8.021 -13.929  -3.393  0.00  0.00    -0.453 OA
ENDBRANCH  31  32
ENDBRANCH  27  31
ENDBRANCH  23  24
ENDBRANCH  10  23
TORSDOF 11
