REMARK  Name = ZINC05952760
REMARK  10 active torsions:
REMARK  status: ('A' for Active; 'I' for Inactive)
REMARK    1  A    between atoms: C_1  and  C_2
REMARK    2  A    between atoms: C_2  and  O_3
REMARK    3  A    between atoms: O_3  and  C_4
REMARK    4  A    between atoms: C_4  and  C_6
REMARK    5  A    between atoms: C_7  and  N_32
REMARK    6  A    between atoms: C_11  and  C_13
REMARK    7  A    between atoms: C_22  and  O_23
REMARK    8  A    between atoms: O_23  and  C_24
REMARK    9  A    between atoms: C_28  and  C_30
REMARK   10  A    between atoms: C_28  and  C_31
REMARK                            x       y       z     vdW  Elec       q    Type
REMARK                         _______ _______ _______ _____ _____    ______ ____
ROOT
ATOM      1  C   UNL     1       1.409  -2.175  -2.360  0.00  0.00    +0.105 C 
ATOM      2  C   UNL     1       1.497  -3.531  -2.344  0.00  0.00    +0.195 C 
ATOM      3  O   UNL     1       2.021  -4.203  -3.381  0.00  0.00    -0.446 OA
ATOM      4  C   UNL     1       2.837  -3.580  -4.255  0.00  0.00    +0.115 C 
ATOM      5  C   UNL     1       2.832  -2.241  -4.379  0.00  0.00    +0.045 C 
ATOM      6  C   UNL     1       1.896  -1.394  -3.548  0.00  0.00    +0.102 C 
ATOM      7  C   UNL     1       3.692  -1.588  -5.285  0.00  0.00    +0.164 C 
ATOM      8  O   UNL     1       3.648  -0.378  -5.381  0.00  0.00    -0.292 OA
ATOM      9  C   UNL     1       4.662  -2.362  -6.134  0.00  0.00    +0.086 C 
ATOM     10  C   UNL     1       5.039  -3.655  -5.403  0.00  0.00    -0.021 C 
ATOM     11  C   UNL     1       3.757  -4.431  -5.098  0.00  0.00    +0.081 C 
ATOM     12  C   UNL     1       5.953  -4.501  -6.293  0.00  0.00    +0.012 C 
ATOM     13  C   UNL     1       5.759  -3.316  -4.096  0.00  0.00    +0.012 C 
ENDROOT
BRANCH   6  14
ATOM     14  C   UNL     1       0.717  -0.973  -4.387  0.00  0.00    +0.014 A 
ATOM     15  C   UNL     1       0.438   0.390  -4.581  0.00  0.00    -0.010 A 
ATOM     16  C   UNL     1       1.243   1.387  -4.003  0.00  0.00    +0.009 A 
ATOM     17  C   UNL     1       0.944   2.698  -4.212  0.00  0.00    +0.001 A 
ATOM     18  C   UNL     1      -0.151   3.069  -4.991  0.00  0.00    +0.001 A 
ATOM     19  C   UNL     1      -0.952   2.131  -5.566  0.00  0.00    +0.008 A 
ATOM     20  C   UNL     1      -0.675   0.766  -5.373  0.00  0.00    -0.017 A 
ATOM     21  C   UNL     1      -1.480  -0.230  -5.952  0.00  0.00    +0.012 A 
ATOM     22  C   UNL     1      -1.184  -1.541  -5.745  0.00  0.00    +0.046 A 
ATOM     23  C   UNL     1      -0.083  -1.915  -4.968  0.00  0.00    +0.125 A 
BRANCH  23  24
ATOM     24  O   UNL     1       0.191  -3.233  -4.784  0.00  0.00    -0.495 OA
ATOM     25  C   UNL     1      -0.682  -4.172  -5.417  0.00  0.00    +0.277 C 
ENDBRANCH  23  24
ENDBRANCH   6  14
BRANCH   2  26
ATOM     26  N   UNL     1       1.044  -4.222  -1.253  0.00  0.00    -0.329 N 
ATOM     27  H   UNL     1       0.596  -3.752  -0.533  0.00  0.00    +0.145 HD
ATOM     28  H   UNL     1       1.172  -5.183  -1.200  0.00  0.00    +0.145 HD
ENDBRANCH   2  26
BRANCH   1  29
ATOM     29  C   UNL     1       0.853  -1.500  -1.262  0.00  0.00    +0.341 C 
ATOM     30  O   UNL     1       1.580  -0.960  -0.447  0.00  0.00    -0.245 OA
BRANCH  29  31
ATOM     31  O   UNL     1      -0.488  -1.448  -1.110  0.00  0.00    -0.462 OA
BRANCH  31  33
ATOM     32  C   UNL     1      -2.514  -0.792   0.034  0.00  0.00    +0.048 C 
ATOM     33  C   UNL     1      -0.985  -0.744   0.030  0.00  0.00    +0.229 C 
ENDBRANCH  31  33
ENDBRANCH  29  31
ENDBRANCH   1  29
TORSDOF 6
