REMARK  Name = ZINC12589812
REMARK  6 active torsions:
REMARK  status: ('A' for Active; 'I' for Inactive)
REMARK    1  A    between atoms: C_1  and  C_2
REMARK    2  A    between atoms: C_5  and  N_9
REMARK    3  A    between atoms: C_7  and  C_8
REMARK    4  A    between atoms: C_14  and  N_58
REMARK    5  A    between atoms: C_19  and  C_20
REMARK    6  A    between atoms: C_19  and  N_58
REMARK                            x       y       z     vdW  Elec       q    Type
REMARK                         _______ _______ _______ _____ _____    ______ ____
ROOT
ATOM      1  N   UNL     1       6.604   9.848   1.531  0.00  0.00    -0.237 N 
ATOM      2  C   UNL     1       5.329  10.209   1.761  0.00  0.00    +0.047 A 
ATOM      3  C   UNL     1       4.526   9.376   1.051  0.00  0.00    -0.020 A 
ATOM      4  C   UNL     1       5.340   8.478   0.363  0.00  0.00    +0.137 A 
ATOM      5  N   UNL     1       6.589   8.758   0.648  0.00  0.00    -0.174 NA
ATOM      6  C   UNL     1       3.020   9.454   1.044  0.00  0.00    -0.037 C 
ATOM      7  C   UNL     1       2.574  10.301   2.243  0.00  0.00    -0.011 C 
ATOM      8  C   UNL     1       3.363  11.613   2.263  0.00  0.00    +0.005 C 
ATOM      9  C   UNL     1       4.823  11.328   2.638  0.00  0.00    +0.056 C 
ENDROOT
BRANCH   1  14
ATOM     10  C   UNL     1      11.224  12.300   3.736  0.00  0.00    +0.044 C 
ATOM     11  C   UNL     1       9.998  11.649   3.150  0.00  0.00    -0.047 A 
ATOM     12  C   UNL     1       9.983  11.275   1.819  0.00  0.00    +0.006 A 
ATOM     13  C   UNL     1       8.863  10.673   1.281  0.00  0.00    +0.028 A 
ATOM     14  C   UNL     1       7.745  10.454   2.076  0.00  0.00    +0.066 A 
ATOM     15  C   UNL     1       7.763  10.830   3.412  0.00  0.00    +0.031 A 
ATOM     16  C   UNL     1       8.889  11.426   3.946  0.00  0.00    -0.046 A 
ATOM     17  C   UNL     1       8.908  11.835   5.396  0.00  0.00    +0.044 C 
ENDBRANCH   1  14
BRANCH   6  18
ATOM     18  N   UNL     1       2.451   8.098   1.164  0.00  0.00    +0.387 N 
ATOM     19  H   UNL     1       1.519   8.159   1.591  0.00  0.00    -0.085 HD
ATOM     20  H   UNL     1       3.062   7.526   1.758  0.00  0.00    -0.085 HD
BRANCH  18  21
ATOM     21  C   UNL     1       2.338   7.471  -0.166  0.00  0.00    -0.037 C 
BRANCH  21  22
ATOM     22  C   UNL     1       1.755   6.090  -0.012  0.00  0.00    -0.006 A 
ATOM     23  C   UNL     1       0.460   5.692  -0.028  0.00  0.00    +0.122 A 
ATOM     24  N   UNL     1       0.195   4.408   0.125  0.00  0.00    -0.233 NA
ATOM     25  C   UNL     1       1.161   3.527   0.300  0.00  0.00    +0.161 A 
ATOM     26  S   UNL     1       2.581   4.526   0.241  0.00  0.00    -0.059 S 
ATOM     27  N   UNL     1       1.068   2.155   0.478  0.00  0.00    -0.305 N 
ATOM     28  C   UNL     1      -0.335   1.716   0.463  0.00  0.00    +0.135 C 
ATOM     29  C   UNL     1      -0.389   0.193   0.603  0.00  0.00    +0.179 C 
ATOM     30  O   UNL     1       0.286  -0.195   1.802  0.00  0.00    -0.377 OA
ATOM     31  C   UNL     1       1.655   0.216   1.851  0.00  0.00    +0.179 C 
ATOM     32  C   UNL     1       1.730   1.740   1.724  0.00  0.00    +0.135 C 
ENDBRANCH  21  22
ENDBRANCH  18  21
ENDBRANCH   6  18
TORSDOF 4
