REMARK  Name = ZINC02111099
REMARK  11 active torsions:
REMARK  status: ('A' for Active; 'I' for Inactive)
REMARK    1  A    between atoms: C_1  and  C_2
REMARK    2  A    between atoms: C_2  and  C_3
REMARK    3  A    between atoms: C_3  and  C_4
REMARK    4  A    between atoms: C_4  and  C_5
REMARK    5  A    between atoms: C_5  and  C_7
REMARK    6  A    between atoms: C_5  and  C_9
REMARK    7  A    between atoms: C_7  and  C_8
REMARK    8  A    between atoms: C_9  and  N_10
REMARK    9  A    between atoms: C_11  and  C_13
REMARK   10  A    between atoms: C_17  and  N_19
REMARK   11  A    between atoms: C_22  and  C_38
REMARK                            x       y       z     vdW  Elec       q    Type
REMARK                         _______ _______ _______ _____ _____    ______ ____
ROOT
ATOM      1  N   UNL     1      -1.199   2.414  -7.646  0.00  0.00    -0.192 N 
ATOM      2  C   UNL     1      -0.055   1.773  -7.971  0.00  0.00    +0.257 C 
ATOM      3  O   UNL     1       0.687   1.173  -7.224  0.00  0.00    -0.272 OA
ATOM      4  C   UNL     1       0.103   1.961  -9.461  0.00  0.00    +0.153 C 
ATOM      5  C   UNL     1       0.188   0.637 -10.182  0.00  0.00    +0.053 A 
ATOM      6  C   UNL     1      -0.645   0.295 -11.192  0.00  0.00    -0.015 A 
ATOM      7  C   UNL     1      -0.241  -1.029 -11.630  0.00  0.00    +0.003 A 
ATOM      8  C   UNL     1      -0.723  -1.879 -12.631  0.00  0.00    +0.010 A 
ATOM      9  C   UNL     1      -0.090  -3.089 -12.773  0.00  0.00    +0.001 A 
ATOM     10  C   UNL     1       0.975  -3.462 -11.969  0.00  0.00    +0.002 A 
ATOM     11  C   UNL     1       1.471  -2.641 -10.972  0.00  0.00    +0.026 A 
ATOM     12  C   UNL     1       0.849  -1.405 -10.805  0.00  0.00    +0.047 A 
ATOM     13  N   UNL     1       1.078  -0.374  -9.941  0.00  0.00    -0.356 N 
ATOM     14  H   UNL     1       1.767  -0.360  -9.258  0.00  0.00    +0.166 HD
ATOM     15  C   UNL     1      -1.781   1.125 -11.733  0.00  0.00    +0.056 C 
ATOM     16  C   UNL     1      -1.659   2.577 -11.248  0.00  0.00    +0.115 C 
ATOM     17  N   UNL     1      -1.200   2.544  -9.858  0.00  0.00    -0.265 N 
ATOM     18  C   UNL     1      -1.820   2.901  -8.733  0.00  0.00    +0.317 C 
ATOM     19  O   UNL     1      -2.823   3.587  -8.696  0.00  0.00    -0.252 OA
ATOM     20  C   UNL     1       1.285   2.872  -9.801  0.00  0.00    +0.048 C 
ENDROOT
BRANCH   1  25
ATOM     21  C   UNL     1      -1.401   2.248  -3.967  0.00  0.00    +0.038 A 
ATOM     22  C   UNL     1      -2.656   2.820  -3.751  0.00  0.00    +0.013 A 
ATOM     23  C   UNL     1      -3.407   3.259  -4.821  0.00  0.00    +0.003 A 
ATOM     24  C   UNL     1      -2.927   3.123  -6.111  0.00  0.00    +0.024 A 
ATOM     25  C   UNL     1      -1.682   2.550  -6.336  0.00  0.00    +0.046 A 
ATOM     26  C   UNL     1      -0.917   2.111  -5.267  0.00  0.00    +0.037 A 
BRANCH  21  28
ATOM     27  N   UNL     1      -1.060   1.916  -1.565  0.00  0.00    -0.311 N 
ATOM     28  C   UNL     1      -0.590   1.783  -2.821  0.00  0.00    +0.244 C 
ATOM     29  O   UNL     1       0.500   1.280  -3.011  0.00  0.00    -0.270 OA
ATOM     30  H   UNL     1      -1.931   2.317  -1.412  0.00  0.00    +0.149 HD
BRANCH  27  31
ATOM     31  C   UNL     1      -0.258   1.455  -0.429  0.00  0.00    +0.108 C 
BRANCH  31  32
ATOM     32  C   UNL     1      -0.956   1.838   0.878  0.00  0.00    +0.006 C 
BRANCH  32  33
ATOM     33  C   UNL     1      -1.010   3.362   1.000  0.00  0.00    +0.002 C 
ATOM     34  C   UNL     1       0.413   3.919   1.075  0.00  0.00    +0.004 C 
ENDBRANCH  32  33
BRANCH  32  35
ATOM     35  C   UNL     1      -0.176   1.259   2.060  0.00  0.00    +0.005 C 
BRANCH  35  36
ATOM     36  C   UNL     1      -0.940   1.534   3.357  0.00  0.00    +0.000 C 
BRANCH  36  38
ATOM     37  C   UNL     1      -0.923   1.230   5.837  0.00  0.00    +0.004 C 
ATOM     38  C   UNL     1      -0.160   0.955   4.540  0.00  0.00    -0.003 C 
ENDBRANCH  36  38
ENDBRANCH  35  36
ENDBRANCH  32  35
ENDBRANCH  31  32
ENDBRANCH  27  31
ENDBRANCH  21  28
ENDBRANCH   1  25
TORSDOF 8
