REMARK  Name = ZINC12529544
REMARK  7 active torsions:
REMARK  status: ('A' for Active; 'I' for Inactive)
REMARK    1  A    between atoms: C_1  and  C_2
REMARK    2  A    between atoms: C_2  and  O_3
REMARK    3  A    between atoms: O_3  and  C_4
REMARK    4  A    between atoms: C_12  and  S_14
REMARK    5  A    between atoms: S_14  and  C_15
REMARK    6  A    between atoms: C_15  and  C_16
REMARK    7  A    between atoms: N_18  and  C_19
REMARK                            x       y       z     vdW  Elec       q    Type
REMARK                         _______ _______ _______ _____ _____    ______ ____
ROOT
ATOM      1  S   UNL     1       0.359   0.814   8.644  0.00  0.00    -0.079 S 
ENDROOT
BRANCH   1  10
ATOM      2  C   UNL     1      -0.193   1.123   2.382  0.00  0.00    +0.123 A 
ATOM      3  C   UNL     1       0.956   0.339   2.418  0.00  0.00    +0.048 A 
ATOM      4  C   UNL     1       1.512  -0.029   3.622  0.00  0.00    +0.033 A 
ATOM      5  C   UNL     1       0.921   0.387   4.817  0.00  0.00    +0.090 A 
ATOM      6  C   UNL     1      -0.238   1.180   4.778  0.00  0.00    +0.070 A 
ATOM      7  C   UNL     1      -0.785   1.547   3.559  0.00  0.00    +0.073 A 
ATOM      8  N   UNL     1      -0.580   1.428   6.098  0.00  0.00    -0.333 N 
ATOM      9  H   UNL     1      -1.360   1.966   6.417  0.00  0.00    +0.168 HD
ATOM     10  C   UNL     1       0.348   0.802   6.882  0.00  0.00    +0.168 A 
ATOM     11  N   UNL     1       1.229   0.192   6.128  0.00  0.00    -0.222 NA
BRANCH   2  12
ATOM     12  O   UNL     1      -0.732   1.480   1.186  0.00  0.00    -0.492 OA
BRANCH  12  14
ATOM     13  C   UNL     1      -0.815   1.511  -1.229  0.00  0.00    +0.048 C 
ATOM     14  C   UNL     1      -0.068   1.013   0.010  0.00  0.00    +0.225 C 
ENDBRANCH  12  14
ENDBRANCH   2  12
ENDBRANCH   1  10
BRANCH   1  15
ATOM     15  C   UNL     1       1.832  -0.190   8.956  0.00  0.00    +0.173 C 
BRANCH  15  16
ATOM     16  C   UNL     1       2.046  -0.320  10.442  0.00  0.00    +0.228 C 
ATOM     17  O   UNL     1       1.278   0.214  11.214  0.00  0.00    -0.275 OA
ATOM     18  N   UNL     1       3.091  -1.030  10.913  0.00  0.00    -0.284 N 
ATOM     19  H   UNL     1       3.667  -1.510  10.299  0.00  0.00    +0.155 HD
BRANCH  18  20
ATOM     20  C   UNL     1       3.344  -1.073  12.290  0.00  0.00    +0.053 A 
ATOM     21  C   UNL     1       2.288  -1.063  13.191  0.00  0.00    +0.046 A 
ATOM     22  C   UNL     1       2.541  -1.110  14.549  0.00  0.00    +0.061 A 
ATOM     23  C   UNL     1       3.846  -1.158  15.011  0.00  0.00    +0.061 A 
ATOM     24  C   UNL     1       4.899  -1.162  14.115  0.00  0.00    +0.043 A 
ATOM     25  C   UNL     1       4.652  -1.120  12.755  0.00  0.00    +0.064 A 
ATOM     26 CL   UNL     1       5.975  -1.126  11.631  0.00  0.00    -0.082 Cl
ATOM     27 CL   UNL     1       4.160  -1.211  16.718  0.00  0.00    -0.082 Cl
ATOM     28 CL   UNL     1       1.221  -1.104  15.678  0.00  0.00    -0.082 Cl
ENDBRANCH  18  20
ENDBRANCH  15  16
ENDBRANCH   1  15
TORSDOF 6
