REMARK  Name = ZINC38671125
REMARK  10 active torsions:
REMARK  status: ('A' for Active; 'I' for Inactive)
REMARK    1  A    between atoms: C_1  and  C_2
REMARK    2  A    between atoms: C_4  and  C_33
REMARK    3  A    between atoms: C_5  and  S_9
REMARK    4  A    between atoms: C_6  and  C_8
REMARK    5  A    between atoms: S_9  and  N_12
REMARK    6  A    between atoms: N_12  and  C_13
REMARK    7  A    between atoms: C_13  and  C_14
REMARK    8  A    between atoms: C_14  and  C_16
REMARK    9  A    between atoms: C_14  and  N_27
REMARK   10  A    between atoms: N_25  and  C_26
REMARK                            x       y       z     vdW  Elec       q    Type
REMARK                         _______ _______ _______ _____ _____    ______ ____
ROOT
ATOM      1  C   UNL     1       3.932  -3.916   2.534  0.00  0.00    -0.022 C 
ENDROOT
BRANCH   1   2
ATOM      2  C   UNL     1       4.328  -3.336   3.867  0.00  0.00    -0.059 A 
ATOM      3  C   UNL     1       4.793  -2.036   3.943  0.00  0.00    +0.004 A 
ATOM      4  C   UNL     1       5.157  -1.505   5.164  0.00  0.00    +0.023 A 
ATOM      5  C   UNL     1       5.056  -2.277   6.316  0.00  0.00    +0.033 A 
ATOM      6  C   UNL     1       4.587  -3.580   6.240  0.00  0.00    -0.026 A 
ATOM      7  C   UNL     1       4.221  -4.103   5.011  0.00  0.00    +0.007 A 
ATOM      8  C   UNL     1       4.455  -4.441   7.468  0.00  0.00    +0.038 C 
ATOM      9  C   UNL     1       5.340  -3.908   8.594  0.00  0.00    +0.024 C 
ATOM     10  C   UNL     1       5.054  -2.413   8.783  0.00  0.00    +0.105 C 
ATOM     11  N   UNL     1       5.436  -1.722   7.543  0.00  0.00    -0.333 N 
ATOM     12  C   UNL     1       6.200  -0.474   7.591  0.00  0.00    +0.129 C 
ENDBRANCH   1   2
BRANCH   1  13
ATOM     13  N   UNL     1       4.890  -3.485   1.507  0.00  0.00    +0.385 N 
ATOM     14  C   UNL     1       4.476  -4.011   0.201  0.00  0.00    -0.078 C 
ATOM     15  C   UNL     1       5.425  -3.498  -0.884  0.00  0.00    -0.019 C 
ATOM     16  C   UNL     1       6.849  -3.965  -0.571  0.00  0.00    -0.004 C 
ATOM     17  C   UNL     1       7.243  -3.473   0.824  0.00  0.00    -0.019 C 
ATOM     18  C   UNL     1       6.227  -3.987   1.846  0.00  0.00    -0.078 C 
ATOM     19  H   UNL     1       4.910  -2.476   1.470  0.00  0.00    -0.081 HD
ENDBRANCH   1  13
BRANCH   1  20
ATOM     20  C   UNL     1       2.530  -3.427   2.161  0.00  0.00    +0.095 C 
BRANCH  20  21
ATOM     21  N   UNL     1       1.562  -3.927   3.141  0.00  0.00    -0.191 NA
ATOM     22  H   UNL     1       1.812  -4.639   3.750  0.00  0.00    +0.148 HD
BRANCH  21  23
ATOM     23  S   UNL     1       0.041  -3.276   3.207  0.00  0.00    +0.059 S 
ATOM     24  O   UNL     1       0.204  -1.865   3.231  0.00  0.00    -0.153 OA
ATOM     25  O   UNL     1      -0.657  -3.980   4.225  0.00  0.00    -0.153 OA
BRANCH  23  30
ATOM     26  C   UNL     1      -2.696  -4.609  -2.002  0.00  0.00    +0.044 C 
ATOM     27  C   UNL     1      -2.013  -4.276  -0.701  0.00  0.00    -0.050 A 
ATOM     28  C   UNL     1      -1.326  -3.084  -0.566  0.00  0.00    +0.008 A 
ATOM     29  C   UNL     1      -0.699  -2.779   0.627  0.00  0.00    -0.024 A 
ATOM     30  C   UNL     1      -0.759  -3.665   1.686  0.00  0.00    +0.111 A 
ATOM     31  C   UNL     1      -1.447  -4.857   1.552  0.00  0.00    -0.024 A 
ATOM     32  C   UNL     1      -2.077  -5.160   0.360  0.00  0.00    +0.008 A 
ATOM     33  C   UNL     1      -1.512  -5.823   2.707  0.00  0.00    +0.046 C 
ATOM     34  C   UNL     1       0.051  -1.479   0.774  0.00  0.00    +0.046 C 
ENDBRANCH  23  30
ENDBRANCH  21  23
ENDBRANCH  20  21
ENDBRANCH   1  20
TORSDOF 6
