REMARK  Name = ZINC43095990
REMARK  7 active torsions:
REMARK  status: ('A' for Active; 'I' for Inactive)
REMARK    1  A    between atoms: C_1  and  C_2
REMARK    2  A    between atoms: C_2  and  C_3
REMARK    3  A    between atoms: C_3  and  C_5
REMARK    4  A    between atoms: C_3  and  N_20
REMARK    5  A    between atoms: C_5  and  C_7
REMARK    6  A    between atoms: C_5  and  S_14
REMARK    7  A    between atoms: S_14  and  C_15
REMARK                            x       y       z     vdW  Elec       q    Type
REMARK                         _______ _______ _______ _____ _____    ______ ____
ROOT
ATOM      1  C   UNL     1       0.855  -2.138  -1.335  0.00  0.00    +0.070 C 
ENDROOT
BRANCH   1   2
ATOM      2  C   UNL     1       1.774  -2.533  -0.208  0.00  0.00    -0.022 A 
ATOM      3  C   UNL     1       3.142  -2.545  -0.404  0.00  0.00    +0.006 A 
ATOM      4  C   UNL     1       3.985  -2.908   0.630  0.00  0.00    +0.000 A 
ATOM      5  C   UNL     1       3.460  -3.259   1.860  0.00  0.00    +0.001 A 
ATOM      6  C   UNL     1       2.092  -3.247   2.056  0.00  0.00    +0.015 A 
ATOM      7  C   UNL     1       1.248  -2.879   1.023  0.00  0.00    +0.022 A 
ATOM      8 BR   UNL     1      -0.623  -2.856   1.293  0.00  0.00    -0.050 Br
ENDBRANCH   1   2
BRANCH   1   9
ATOM      9  C   UNL     1       0.598  -0.630  -1.279  0.00  0.00    -0.057 C 
BRANCH   9  10
ATOM     10  N   UNL     1      -0.009  -0.285   0.014  0.00  0.00    +0.381 N 
ATOM     11  H   UNL     1      -0.243   0.696   0.024  0.00  0.00    -0.090 HD
ATOM     12  H   UNL     1      -0.846  -0.833   0.149  0.00  0.00    -0.090 HD
ATOM     13  H   UNL     1       0.646  -0.482   0.756  0.00  0.00    -0.090 HD
ENDBRANCH   9  10
BRANCH   9  15
ATOM     14  C   UNL     1       1.652   1.623  -1.505  0.00  0.00    +0.002 C 
ATOM     15  C   UNL     1       1.923   0.119  -1.437  0.00  0.00    -0.018 C 
ENDBRANCH   9  15
ENDBRANCH   1   9
BRANCH   1  16
ATOM     16  S   UNL     1       1.627  -2.560  -2.922  0.00  0.00    -0.091 S 
BRANCH  16  17
ATOM     17  C   UNL     1       0.345  -2.300  -4.102  0.00  0.00    +0.159 A 
ATOM     18  N   UNL     1      -0.877  -1.809  -3.942  0.00  0.00    -0.135 NA
ATOM     19  N   UNL     1      -1.678  -1.690  -4.909  0.00  0.00    -0.149 NA
ATOM     20  C   UNL     1      -1.354  -2.045  -6.136  0.00  0.00    +0.182 A 
ATOM     21  S   UNL     1       0.320  -2.617  -5.864  0.00  0.00    -0.048 S 
ENDBRANCH  16  17
ENDBRANCH   1  16
TORSDOF 6
