REMARK  Name = ZINC24892471
REMARK  14 active torsions:
REMARK  status: ('A' for Active; 'I' for Inactive)
REMARK    1  A    between atoms: C_1  and  C_2
REMARK    2  A    between atoms: C_2  and  C_4
REMARK    3  A    between atoms: C_2  and  N_10
REMARK    4  A    between atoms: C_4  and  C_5
REMARK    5  A    between atoms: N_10  and  C_11
REMARK    6  A    between atoms: N_10  and  C_20
REMARK    7  A    between atoms: C_11  and  C_12
REMARK    8  A    between atoms: C_15  and  O_18
REMARK    9  A    between atoms: O_18  and  C_19
REMARK   10  A    between atoms: C_20  and  C_21
REMARK   11  A    between atoms: C_27  and  O_34
REMARK   12  A    between atoms: C_28  and  O_32
REMARK   13  A    between atoms: O_32  and  C_33
REMARK   14  A    between atoms: O_34  and  C_35
REMARK                            x       y       z     vdW  Elec       q    Type
REMARK                         _______ _______ _______ _____ _____    ______ ____
ROOT
ATOM      1  N   UNL     1       2.066   5.396  -0.017  0.00  0.00    +0.389 N 
ATOM      2  H   UNL     1       1.471   5.598   0.886  0.00  0.00    -0.080 HD
ENDROOT
BRANCH   1   4
ATOM      3  C   UNL     1       1.943   5.319  -2.462  0.00  0.00    -0.013 C 
ATOM      4  C   UNL     1       1.282   5.832  -1.181  0.00  0.00    -0.066 C 
BRANCH   4   5
ATOM      5  C   UNL     1      -0.138   5.272  -1.079  0.00  0.00    +0.027 C 
BRANCH   5   6
ATOM      6  C   UNL     1      -0.819   5.848   0.135  0.00  0.00    -0.012 A 
ATOM      7  C   UNL     1      -1.634   6.928   0.225  0.00  0.00    +0.011 A 
ATOM      8  C   UNL     1      -2.152   7.276   1.458  0.00  0.00    +0.008 A 
ATOM      9  C   UNL     1      -1.831   6.528   2.541  0.00  0.00    +0.045 A 
ATOM     10  S   UNL     1      -0.770   5.282   1.827  0.00  0.00    -0.102 S 
ENDBRANCH   5   6
ENDBRANCH   4   5
ENDBRANCH   1   4
BRANCH   1  11
ATOM     11  C   UNL     1       3.319   6.154   0.089  0.00  0.00    -0.042 C 
BRANCH  11  12
ATOM     12  C   UNL     1       3.008   7.598   0.387  0.00  0.00    -0.064 A 
ATOM     13  C   UNL     1       2.829   8.495  -0.650  0.00  0.00    +0.005 A 
ATOM     14  C   UNL     1       2.538   9.818  -0.380  0.00  0.00    +0.046 A 
ATOM     15  C   UNL     1       2.437  10.249   0.935  0.00  0.00    +0.120 A 
ATOM     16  C   UNL     1       2.623   9.349   1.974  0.00  0.00    +0.046 A 
ATOM     17  C   UNL     1       2.908   8.026   1.698  0.00  0.00    +0.005 A 
BRANCH  15  18
ATOM     18  O   UNL     1       2.157  11.552   1.204  0.00  0.00    -0.495 OA
ATOM     19  C   UNL     1       1.978  12.421   0.085  0.00  0.00    +0.277 C 
ENDBRANCH  15  18
ENDBRANCH  11  12
ENDBRANCH   1  11
BRANCH   1  20
ATOM     20  C   UNL     1       2.328   3.951  -0.071  0.00  0.00    -0.002 C 
BRANCH  20  21
ATOM     21  C   UNL     1       2.677   3.452   1.308  0.00  0.00    +0.094 A 
ATOM     22  N   UNL     1       2.872   2.118   1.481  0.00  0.00    -0.312 N 
ATOM     23  C   UNL     1       3.182   1.619   2.700  0.00  0.00    +0.259 A 
ATOM     24  O   UNL     1       3.359   0.427   2.868  0.00  0.00    -0.267 OA
ATOM     25  C   UNL     1       3.303   2.572   3.810  0.00  0.00    +0.068 A 
ATOM     26  C   UNL     1       3.620   2.158   5.104  0.00  0.00    +0.064 A 
ATOM     27  C   UNL     1       3.712   3.092   6.115  0.00  0.00    +0.162 A 
ATOM     28  C   UNL     1       3.494   4.448   5.848  0.00  0.00    +0.164 A 
ATOM     29  C   UNL     1       3.197   4.874   4.568  0.00  0.00    +0.078 A 
ATOM     30  C   UNL     1       3.086   3.942   3.536  0.00  0.00    +0.082 A 
ATOM     31  N   UNL     1       2.776   4.318   2.269  0.00  0.00    -0.236 NA
ATOM     32  H   UNL     1       2.778   1.433   0.625  0.00  0.00    +0.170 HD
BRANCH  28  33
ATOM     33  O   UNL     1       3.588   5.355   6.854  0.00  0.00    -0.491 OA
ATOM     34  C   UNL     1       3.354   6.724   6.517  0.00  0.00    +0.277 C 
ENDBRANCH  28  33
BRANCH  27  35
ATOM     35  O   UNL     1       4.017   2.693   7.379  0.00  0.00    -0.491 OA
ATOM     36  C   UNL     1       4.227   1.295   7.585  0.00  0.00    +0.277 C 
ENDBRANCH  27  35
ENDBRANCH  20  21
ENDBRANCH   1  20
TORSDOF 10
