REMARK  Name = ZINC24792358
REMARK  13 active torsions:
REMARK  status: ('A' for Active; 'I' for Inactive)
REMARK    1  A    between atoms: C_1  and  C_2
REMARK    2  A    between atoms: C_2  and  C_3
REMARK    3  A    between atoms: C_2  and  C_4
REMARK    4  A    between atoms: C_4  and  C_6
REMARK    5  A    between atoms: C_4  and  N_17
REMARK    6  A    between atoms: C_18  and  C_20
REMARK    7  A    between atoms: C_20  and  N_21
REMARK    8  A    between atoms: N_21  and  C_22
REMARK    9  A    between atoms: N_21  and  C_23
REMARK   10  A    between atoms: C_23  and  C_24
REMARK   11  A    between atoms: N_26  and  C_27
REMARK   12  A    between atoms: C_32  and  O_33
REMARK   13  A    between atoms: O_33  and  C_34
REMARK                            x       y       z     vdW  Elec       q    Type
REMARK                         _______ _______ _______ _____ _____    ______ ____
ROOT
ATOM      1  N   UNL     1      -1.236   3.229   0.952  0.00  0.00    -0.310 N 
ATOM      2  C   UNL     1      -2.351   3.741   1.512  0.00  0.00    +0.197 C 
ATOM      3  O   UNL     1      -3.431   3.240   1.279  0.00  0.00    -0.278 OA
ATOM      4  H   UNL     1      -0.257   3.684   1.163  0.00  0.00    +0.149 HD
ENDROOT
BRANCH   1   5
ATOM      5  C   UNL     1      -1.330   2.069   0.063  0.00  0.00    +0.106 C 
BRANCH   5   6
ATOM      6  C   UNL     1      -0.017   1.329   0.063  0.00  0.00    -0.023 A 
ATOM      7  C   UNL     1       1.172   2.035   0.059  0.00  0.00    +0.009 A 
ATOM      8  C   UNL     1       2.381   1.363   0.053  0.00  0.00    +0.050 A 
ATOM      9  C   UNL     1       2.397  -0.021   0.052  0.00  0.00    +0.162 A 
ATOM     10  C   UNL     1       1.204  -0.730   0.057  0.00  0.00    +0.162 A 
ATOM     11  C   UNL     1      -0.004  -0.054   0.062  0.00  0.00    +0.055 A 
ATOM     12  O   UNL     1       1.230  -2.094   0.057  0.00  0.00    -0.488 OA
ATOM     13  C   UNL     1       1.713  -2.710  -1.139  0.00  0.00    +0.232 C 
ATOM     14  C   UNL     1       3.231  -2.791  -1.130  0.00  0.00    +0.082 C 
ATOM     15  C   UNL     1       3.885  -1.419  -1.149  0.00  0.00    +0.232 C 
ATOM     16  O   UNL     1       3.583  -0.696   0.046  0.00  0.00    -0.488 OA
ENDBRANCH   5   6
BRANCH   5  18
ATOM     17  C   UNL     1      -1.748   1.326  -2.285  0.00  0.00    +0.009 C 
ATOM     18  C   UNL     1      -1.651   2.538  -1.357  0.00  0.00    +0.008 C 
ATOM     19  C   UNL     1      -2.984   3.289  -1.357  0.00  0.00    +0.009 C 
ENDBRANCH   5  18
ENDBRANCH   1   5
BRANCH   2  20
ATOM     20  C   UNL     1      -2.255   4.935   2.426  0.00  0.00    +0.019 C 
BRANCH  20  21
ATOM     21  N   UNL     1      -3.597   5.297   2.902  0.00  0.00    +0.389 N 
ATOM     22  C   UNL     1      -4.438   5.771   1.795  0.00  0.00    -0.095 C 
ATOM     23  H   UNL     1      -4.063   4.391   3.317  0.00  0.00    -0.081 HD
BRANCH  21  24
ATOM     24  C   UNL     1      -3.523   6.299   3.974  0.00  0.00    +0.019 C 
BRANCH  24  25
ATOM     25  C   UNL     1      -4.883   6.463   4.602  0.00  0.00    +0.201 C 
ATOM     26  O   UNL     1      -5.821   5.810   4.196  0.00  0.00    -0.278 OA
ATOM     27  N   UNL     1      -5.057   7.336   5.614  0.00  0.00    -0.284 N 
ATOM     28  H   UNL     1      -4.192   7.875   6.030  0.00  0.00    +0.155 HD
BRANCH  27  29
ATOM     29  C   UNL     1      -6.338   7.558   6.136  0.00  0.00    +0.077 A 
ATOM     30  C   UNL     1      -7.252   6.517   6.201  0.00  0.00    +0.047 A 
ATOM     31  C   UNL     1      -8.515   6.737   6.720  0.00  0.00    +0.043 A 
ATOM     32  C   UNL     1      -8.872   7.997   7.166  0.00  0.00    +0.024 A 
ATOM     33  C   UNL     1      -7.967   9.040   7.099  0.00  0.00    +0.049 A 
ATOM     34  C   UNL     1      -6.699   8.826   6.585  0.00  0.00    +0.141 A 
ATOM     35 CL   UNL     1      -9.656   5.432   6.806  0.00  0.00    -0.083 Cl
BRANCH  34  36
ATOM     36  O   UNL     1      -5.808   9.852   6.519  0.00  0.00    -0.493 OA
ATOM     37  C   UNL     1      -6.247  11.124   6.997  0.00  0.00    +0.277 C 
ENDBRANCH  34  36
ENDBRANCH  27  29
ENDBRANCH  24  25
ENDBRANCH  21  24
ENDBRANCH  20  21
ENDBRANCH   2  20
TORSDOF 9
