REMARK  Name = ZINC20277880
REMARK  5 active torsions:
REMARK  status: ('A' for Active; 'I' for Inactive)
REMARK    1  A    between atoms: C_1  and  C_2
REMARK    2  A    between atoms: C_2  and  C_4
REMARK    3  A    between atoms: C_4  and  N_5
REMARK    4  A    between atoms: C_8  and  N_23
REMARK    5  A    between atoms: C_13  and  C_17
REMARK                            x       y       z     vdW  Elec       q    Type
REMARK                         _______ _______ _______ _____ _____    ______ ____
ROOT
ATOM      1  N   UNL     1       1.669   2.808  -0.561  0.00  0.00    -0.261 N 
ATOM      2  C   UNL     1       0.624   3.531  -1.152  0.00  0.00    +0.080 A 
ATOM      3  C   UNL     1       0.773   4.875  -1.446  0.00  0.00    +0.050 A 
ATOM      4  C   UNL     1      -0.275   5.573  -2.034  0.00  0.00    +0.027 A 
ATOM      5  C   UNL     1      -1.467   4.923  -2.324  0.00  0.00    +0.026 A 
ATOM      6  C   UNL     1      -1.616   3.580  -2.030  0.00  0.00    +0.049 A 
ATOM      7  C   UNL     1      -0.575   2.881  -1.444  0.00  0.00    +0.144 A 
ATOM      8  O   UNL     1      -0.708   1.559  -1.149  0.00  0.00    -0.473 OA
ATOM      9  C   UNL     1      -0.013   1.086   0.008  0.00  0.00    +0.289 C 
ATOM     10  C   UNL     1       1.402   1.607  -0.003  0.00  0.00    +0.266 C 
ATOM     11  O   UNL     1       2.296   0.951   0.488  0.00  0.00    -0.271 OA
ENDROOT
BRANCH   9  12
ATOM     12  C   UNL     1      -0.717   1.571   1.249  0.00  0.00    +0.002 A 
ATOM     13  C   UNL     1      -1.312   2.819   1.262  0.00  0.00    +0.008 A 
ATOM     14  C   UNL     1      -1.962   3.262   2.400  0.00  0.00    +0.000 A 
ATOM     15  C   UNL     1      -2.008   2.462   3.526  0.00  0.00    +0.000 A 
ATOM     16  C   UNL     1      -1.408   1.216   3.514  0.00  0.00    +0.000 A 
ATOM     17  C   UNL     1      -0.762   0.771   2.375  0.00  0.00    +0.008 A 
ENDBRANCH   9  12
BRANCH   4  18
ATOM     18  N   UNL     1      -0.129   6.932  -2.333  0.00  0.00    -0.358 N 
ATOM     19  H   UNL     1      -0.958   7.485  -2.798  0.00  0.00    +0.142 HD
ATOM     20  H   UNL     1       0.816   7.447  -2.103  0.00  0.00    +0.142 HD
ENDBRANCH   4  18
BRANCH   1  21
ATOM     21  C   UNL     1       3.032   3.346  -0.549  0.00  0.00    +0.143 C 
BRANCH  21  23
ATOM     22  C   UNL     1       4.447   1.553  -1.811  0.00  0.00    +0.040 C 
ATOM     23  C   UNL     1       3.761   2.895  -1.788  0.00  0.00    -0.062 C 
ATOM     24  C   UNL     1       3.800   3.669  -2.844  0.00  0.00    +0.009 C 
ENDBRANCH  21  23
ENDBRANCH   1  21
TORSDOF 4
