REMARK  Name = ZINC11321285
REMARK  5 active torsions:
REMARK  status: ('A' for Active; 'I' for Inactive)
REMARK    1  A    between atoms: C_1  and  N_2
REMARK    2  A    between atoms: C_3  and  C_24
REMARK    3  A    between atoms: C_6  and  S_7
REMARK    4  A    between atoms: S_7  and  C_8
REMARK    5  A    between atoms: C_8  and  C_9
REMARK                            x       y       z     vdW  Elec       q    Type
REMARK                         _______ _______ _______ _____ _____    ______ ____
ROOT
ATOM      1  C   UNL     1       3.931   2.885  -0.150  0.00  0.00    +0.143 A 
ATOM      2  N   UNL     1       4.441   1.670  -0.050  0.00  0.00    -0.216 NA
ATOM      3  C   UNL     1       3.682   0.600   0.127  0.00  0.00    +0.128 A 
ATOM      4  C   UNL     1       2.271   0.759   0.213  0.00  0.00    +0.051 A 
ATOM      5  C   UNL     1       1.246  -0.272   0.408  0.00  0.00    -0.025 A 
ATOM      6  C   UNL     1      -0.035   0.148   0.450  0.00  0.00    -0.004 A 
ATOM      7  S   UNL     1       0.045   1.909   0.244  0.00  0.00    -0.073 S 
ATOM      8  C   UNL     1       1.803   2.082   0.097  0.00  0.00    +0.114 A 
ATOM      9  N   UNL     1       2.631   3.094  -0.079  0.00  0.00    -0.224 NA
ATOM     10  C   UNL     1      -1.268  -0.684   0.618  0.00  0.00    +0.043 C 
ATOM     11  C   UNL     1      -1.079  -1.640   1.803  0.00  0.00    +0.005 C 
ATOM     12  C   UNL     1      -0.459  -2.933   1.282  0.00  0.00    +0.001 C 
ATOM     13  C   UNL     1       0.472  -2.630   0.109  0.00  0.00    +0.005 C 
ATOM     14  C   UNL     1       1.625  -1.742   0.560  0.00  0.00    +0.037 C 
ATOM     15  N   UNL     1       4.253  -0.656   0.227  0.00  0.00    -0.343 N 
ATOM     16  H   UNL     1       5.108  -0.835  -0.196  0.00  0.00    +0.144 HD
ATOM     17  H   UNL     1       3.800  -1.357   0.720  0.00  0.00    +0.144 HD
ENDROOT
BRANCH   1  18
ATOM     18  C   UNL     1       4.856   4.057  -0.350  0.00  0.00    +0.153 C 
BRANCH  18  19
ATOM     19  S   UNL     1       5.103   4.335  -2.122  0.00  0.00    -0.078 S 
BRANCH  19  25
ATOM     20  C   UNL     1       6.518   6.067  -4.556  0.00  0.00    +0.153 C 
ATOM     21  N   UNL     1       6.728   6.373  -3.138  0.00  0.00    -0.305 N 
ATOM     22  C   UNL     1       7.504   7.379  -2.611  0.00  0.00    +0.165 A 
ATOM     23  N   UNL     1       7.414   7.290  -1.304  0.00  0.00    -0.128 NA
ATOM     24  N   UNL     1       6.642   6.314  -0.983  0.00  0.00    -0.122 NA
ATOM     25  C   UNL     1       6.191   5.720  -2.066  0.00  0.00    +0.192 A 
BRANCH  22  26
ATOM     26  C   UNL     1       8.295   8.369  -3.371  0.00  0.00    +0.019 A 
ATOM     27  C   UNL     1       9.318   9.081  -2.743  0.00  0.00    +0.013 A 
ATOM     28  C   UNL     1      10.055  10.001  -3.458  0.00  0.00    +0.021 A 
ATOM     29  C   UNL     1       9.776  10.226  -4.796  0.00  0.00    +0.041 A 
ATOM     30  C   UNL     1       8.760   9.526  -5.424  0.00  0.00    +0.021 A 
ATOM     31  C   UNL     1       8.019   8.600  -4.720  0.00  0.00    +0.013 A 
ATOM     32 CL   UNL     1      10.704  11.390  -5.689  0.00  0.00    -0.084 Cl
ENDBRANCH  22  26
ENDBRANCH  19  25
ENDBRANCH  18  19
ENDBRANCH   1  18
TORSDOF 4
