REMARK  Name = ZINC00643872
REMARK  9 active torsions:
REMARK  status: ('A' for Active; 'I' for Inactive)
REMARK    1  A    between atoms: C_1  and  C_2
REMARK    2  A    between atoms: C_2  and  C_27
REMARK    3  A    between atoms: C_6  and  C_14
REMARK    4  A    between atoms: C_8  and  C_12
REMARK    5  A    between atoms: C_9  and  N_11
REMARK    6  A    between atoms: C_17  and  O_22
REMARK    7  A    between atoms: C_19  and  O_20
REMARK    8  A    between atoms: O_20  and  C_21
REMARK    9  A    between atoms: O_22  and  C_23
REMARK                            x       y       z     vdW  Elec       q    Type
REMARK                         _______ _______ _______ _____ _____    ______ ____
ROOT
ATOM      1  C   UNL     1      -1.180   1.258   7.587  0.00  0.00    +0.012 C 
ATOM      2  C   UNL     1      -0.351   2.538   7.461  0.00  0.00    -0.021 C 
ATOM      3  C   UNL     1      -1.268   3.711   7.108  0.00  0.00    +0.081 C 
ATOM      4  C   UNL     1      -1.944   3.448   5.783  0.00  0.00    +0.115 C 
ATOM      5  C   UNL     1      -1.328   2.727   4.829  0.00  0.00    +0.046 C 
ATOM      6  C   UNL     1      -2.000   2.476   3.501  0.00  0.00    +0.105 C 
ATOM      7  C   UNL     1      -3.480   2.714   3.619  0.00  0.00    +0.098 C 
ATOM      8  C   UNL     1      -3.978   3.436   4.652  0.00  0.00    +0.198 C 
ATOM      9  O   UNL     1      -3.174   3.960   5.590  0.00  0.00    -0.445 OA
ATOM     10  C   UNL     1      -0.044   2.186   5.035  0.00  0.00    +0.164 C 
ATOM     11  O   UNL     1       0.487   1.555   4.143  0.00  0.00    -0.292 OA
ATOM     12  C   UNL     1       0.681   2.375   6.340  0.00  0.00    +0.086 C 
ATOM     13  C   UNL     1       0.366   2.819   8.783  0.00  0.00    +0.012 C 
ENDROOT
BRANCH   6  14
ATOM     14  C   UNL     1      -1.425   3.408   2.465  0.00  0.00    +0.007 A 
ATOM     15  C   UNL     1      -1.532   4.776   2.631  0.00  0.00    +0.012 A 
ATOM     16  C   UNL     1      -1.006   5.632   1.684  0.00  0.00    +0.046 A 
ATOM     17  C   UNL     1      -0.367   5.121   0.562  0.00  0.00    +0.124 A 
ATOM     18  C   UNL     1      -0.253   3.749   0.397  0.00  0.00    +0.091 A 
ATOM     19  C   UNL     1      -0.787   2.892   1.346  0.00  0.00    +0.128 A 
BRANCH  19  20
ATOM     20  O   UNL     1      -0.682   1.547   1.184  0.00  0.00    -0.495 OA
ATOM     21  C   UNL     1      -0.013   1.086   0.008  0.00  0.00    +0.277 C 
ENDBRANCH  19  20
BRANCH  17  22
ATOM     22  O   UNL     1       0.150   5.964  -0.369  0.00  0.00    -0.495 OA
ATOM     23  C   UNL     1       0.001   7.365  -0.130  0.00  0.00    +0.277 C 
ENDBRANCH  17  22
ENDBRANCH   6  14
BRANCH   8  24
ATOM     24  N   UNL     1      -5.333   3.633   4.742  0.00  0.00    -0.328 N 
ATOM     25  H   UNL     1      -5.923   3.258   4.070  0.00  0.00    +0.145 HD
ATOM     26  H   UNL     1      -5.700   4.148   5.477  0.00  0.00    +0.145 HD
ENDBRANCH   8  24
BRANCH   7  27
ATOM     27  C   UNL     1      -4.368   2.175   2.633  0.00  0.00    +0.101 C 
ATOM     28  N   UNL     1      -5.073   1.748   1.852  0.00  0.00    -0.191 NA
ENDBRANCH   7  27
TORSDOF 5
