REMARK  Name = ZINC01131960
REMARK  5 active torsions:
REMARK  status: ('A' for Active; 'I' for Inactive)
REMARK    1  A    between atoms: C_6  and  N_7
REMARK    2  A    between atoms: C_11  and  S_13
REMARK    3  A    between atoms: S_13  and  C_14
REMARK    4  A    between atoms: C_14  and  C_15
REMARK    5  A    between atoms: N_17  and  C_18
REMARK                            x       y       z     vdW  Elec       q    Type
REMARK                         _______ _______ _______ _____ _____    ______ ____
ROOT
ATOM      1  S   UNL     1       6.406   1.891  -0.074  0.00  0.00    -0.089 S 
ENDROOT
BRANCH   1   9
ATOM      2  C   UNL     1      -0.015   1.380  -0.059  0.00  0.00    +0.035 A 
ATOM      3  C   UNL     1       1.143   2.113  -0.055  0.00  0.00    +0.031 A 
ATOM      4  C   UNL     1       2.403   1.471  -0.066  0.00  0.00    +0.080 A 
ATOM      5  C   UNL     1       2.384   0.058  -0.080  0.00  0.00    +0.042 A 
ATOM      6  C   UNL     1       1.220  -0.667  -0.083  0.00  0.00    +0.050 A 
ATOM      7  C   UNL     1       0.004  -0.006  -0.073  0.00  0.00    +0.127 A 
ATOM      8  S   UNL     1       4.115  -0.344  -0.089  0.00  0.00    -0.061 S 
ATOM      9  C   UNL     1       4.735   1.331  -0.075  0.00  0.00    +0.136 A 
ATOM     10  N   UNL     1       3.628   2.040  -0.064  0.00  0.00    -0.233 NA
BRANCH   7  11
ATOM     11  N   UNL     1      -1.263  -0.772  -0.076  0.00  0.00    +0.056 N 
ATOM     12  O   UNL     1      -2.330  -0.184  -0.067  0.00  0.00    -0.126 OA
ATOM     13  O   UNL     1      -1.239  -1.990  -0.088  0.00  0.00    -0.126 OA
ENDBRANCH   7  11
ENDBRANCH   1   9
BRANCH   1  14
ATOM     14  C   UNL     1       6.138   3.681  -0.055  0.00  0.00    +0.172 C 
BRANCH  14  15
ATOM     15  C   UNL     1       7.469   4.388  -0.052  0.00  0.00    +0.227 C 
ATOM     16  O   UNL     1       8.497   3.746  -0.062  0.00  0.00    -0.275 OA
ATOM     17  N   UNL     1       7.516   5.735  -0.039  0.00  0.00    -0.284 N 
ATOM     18  H   UNL     1       6.696   6.250  -0.097  0.00  0.00    +0.155 HD
BRANCH  17  19
ATOM     19  C   UNL     1       8.749   6.392   0.059  0.00  0.00    +0.052 A 
ATOM     20  C   UNL     1       9.875   5.850  -0.546  0.00  0.00    +0.026 A 
ATOM     21  C   UNL     1      11.090   6.499  -0.448  0.00  0.00    +0.017 A 
ATOM     22  C   UNL     1      11.186   7.689   0.252  0.00  0.00    +0.019 A 
ATOM     23  C   UNL     1      10.066   8.232   0.856  0.00  0.00    +0.037 A 
ATOM     24  C   UNL     1       8.847   7.589   0.757  0.00  0.00    +0.063 A 
ATOM     25 CL   UNL     1       7.440   8.274   1.508  0.00  0.00    -0.082 Cl
ATOM     26 BR   UNL     1      12.852   8.574   0.384  0.00  0.00    -0.050 Br
ENDBRANCH  17  19
ENDBRANCH  14  15
ENDBRANCH   1  14
TORSDOF 5
