REMARK  Name = ZINC01635096
REMARK  9 active torsions:
REMARK  status: ('A' for Active; 'I' for Inactive)
REMARK    1  A    between atoms: C_1  and  C_2
REMARK    2  A    between atoms: C_8  and  C_15
REMARK    3  A    between atoms: C_9  and  O_14
REMARK    4  A    between atoms: C_11  and  C_13
REMARK    5  A    between atoms: C_20  and  O_29
REMARK    6  A    between atoms: C_22  and  O_27
REMARK    7  A    between atoms: C_24  and  C_25
REMARK    8  A    between atoms: C_25  and  O_26
REMARK    9  A    between atoms: O_27  and  C_28
REMARK                            x       y       z     vdW  Elec       q    Type
REMARK                         _______ _______ _______ _____ _____    ______ ____
ROOT
ATOM      1  C   UNL     1       3.314   1.595  -1.463  0.00  0.00    -0.001 A 
ATOM      2  C   UNL     1       4.010   1.192  -2.628  0.00  0.00    -0.003 A 
ATOM      3  C   UNL     1       5.315   1.640  -2.884  0.00  0.00    +0.009 A 
ATOM      4  C   UNL     1       5.963   1.238  -4.012  0.00  0.00    +0.004 A 
ATOM      5  C   UNL     1       5.351   0.384  -4.925  0.00  0.00    +0.046 A 
ATOM      6  C   UNL     1       4.072  -0.077  -4.708  0.00  0.00    +0.128 A 
ATOM      7  C   UNL     1       3.378   0.324  -3.549  0.00  0.00    +0.066 A 
ATOM      8  C   UNL     1       2.068  -0.127  -3.292  0.00  0.00    +0.132 A 
ATOM      9  C   UNL     1       1.416   0.277  -2.147  0.00  0.00    +0.053 A 
ATOM     10  C   UNL     1       2.028   1.134  -1.242  0.00  0.00    -0.010 A 
ENDROOT
BRANCH   1  17
ATOM     11  C   UNL     1       6.377   7.467   2.952  0.00  0.00    -0.013 C 
ATOM     12  C   UNL     1       5.921   6.532   1.831  0.00  0.00    -0.070 C 
ATOM     13  C   UNL     1       5.831   5.100   2.361  0.00  0.00    +0.019 C 
ATOM     14  C   UNL     1       5.162   4.214   1.341  0.00  0.00    -0.044 A 
ATOM     15  C   UNL     1       5.300   2.839   1.472  0.00  0.00    +0.004 A 
ATOM     16  C   UNL     1       4.706   1.984   0.569  0.00  0.00    +0.012 A 
ATOM     17  C   UNL     1       3.958   2.504  -0.487  0.00  0.00    +0.025 A 
ATOM     18  C   UNL     1       3.825   3.888  -0.620  0.00  0.00    +0.126 A 
ATOM     19  C   UNL     1       4.426   4.739   0.300  0.00  0.00    -0.016 A 
ATOM     20  C   UNL     1       4.256   6.225   0.116  0.00  0.00    -0.040 C 
ATOM     21  C   UNL     1       5.179   6.704  -1.007  0.00  0.00    -0.009 C 
ATOM     22  N   UNL     1       4.586   6.941   1.356  0.00  0.00    +0.385 N 
ATOM     23  H   UNL     1       4.584   7.952   1.176  0.00  0.00    -0.085 HD
ATOM     24  H   UNL     1       3.887   6.719   2.074  0.00  0.00    -0.085 HD
BRANCH  18  25
ATOM     25  O   UNL     1       3.102   4.404  -1.649  0.00  0.00    -0.506 OA
ATOM     26  H   UNL     1       2.165   4.531  -1.446  0.00  0.00    +0.292 HD
ENDBRANCH  18  25
ENDBRANCH   1  17
BRANCH   8  27
ATOM     27  O   UNL     1       1.452  -0.961  -4.168  0.00  0.00    -0.494 OA
ATOM     28  C   UNL     1       0.124  -1.377  -3.842  0.00  0.00    +0.277 C 
ENDBRANCH   8  27
BRANCH   6  29
ATOM     29  O   UNL     1       3.483  -0.910  -5.604  0.00  0.00    -0.506 OA
ATOM     30  H   UNL     1       2.988  -0.454  -6.299  0.00  0.00    +0.292 HD
ENDBRANCH   6  29
BRANCH  10  31
ATOM     31  C   UNL     1       1.286   1.562  -0.002  0.00  0.00    +0.191 C 
BRANCH  31  32
ATOM     32  O   UNL     1      -0.011   0.963   0.007  0.00  0.00    -0.390 OA
ATOM     33  H   UNL     1       0.002  -0.004   0.002  0.00  0.00    +0.210 HD
ENDBRANCH  31  32
ENDBRANCH  10  31
TORSDOF 6
