REMARK  Name = ZINC66570671
REMARK  6 active torsions:
REMARK  status: ('A' for Active; 'I' for Inactive)
REMARK    1  A    between atoms: C_1  and  O_2
REMARK    2  A    between atoms: O_2  and  C_3
REMARK    3  A    between atoms: C_6  and  C_10
REMARK    4  A    between atoms: N_12  and  N_13
REMARK    5  A    between atoms: C_14  and  C_16
REMARK    6  A    between atoms: C_16  and  C_17
REMARK                            x       y       z     vdW  Elec       q    Type
REMARK                         _______ _______ _______ _____ _____    ______ ____
ROOT
ATOM      1  C   UNL     1       2.493  -2.488  -4.360  0.00  0.00    +0.261 C 
ATOM      2  O   UNL     1       2.537  -3.702  -4.425  0.00  0.00    -0.269 OA
ATOM      3  N   UNL     1       3.043  -1.741  -5.337  0.00  0.00    -0.230 N 
ATOM      4  H   UNL     1       3.008  -0.773  -5.285  0.00  0.00    +0.173 HD
ENDROOT
BRANCH   1   8
ATOM      5  C   UNL     1       0.605  -0.606  -1.054  0.00  0.00    +0.121 A 
ATOM      6  C   UNL     1       1.172   0.166  -2.062  0.00  0.00    +0.046 A 
ATOM      7  C   UNL     1       1.785  -0.440  -3.135  0.00  0.00    +0.018 A 
ATOM      8  C   UNL     1       1.837  -1.835  -3.212  0.00  0.00    +0.052 A 
ATOM      9  C   UNL     1       1.266  -2.608  -2.197  0.00  0.00    +0.033 A 
ATOM     10  C   UNL     1       0.658  -1.993  -1.123  0.00  0.00    +0.061 A 
ATOM     11 BR   UNL     1       1.331  -4.496  -2.294  0.00  0.00    -0.049 Br
BRANCH   5  13
ATOM     12  C   UNL     1      -0.017   1.425   0.010  0.00  0.00    +0.277 C 
ATOM     13  O   UNL     1       0.002  -0.004   0.002  0.00  0.00    -0.495 OA
ENDBRANCH   5  13
ENDBRANCH   1   8
BRANCH   3  14
ATOM     14  N   UNL     1       3.666  -2.361  -6.428  0.00  0.00    -0.234 N 
ATOM     15  C   UNL     1       4.216  -1.614  -7.405  0.00  0.00    +0.229 C 
ATOM     16  O   UNL     1       4.172  -0.404  -7.340  0.00  0.00    -0.274 OA
ATOM     17  H   UNL     1       3.701  -3.329  -6.480  0.00  0.00    +0.173 HD
BRANCH  15  18
ATOM     18  C   UNL     1       4.885  -2.282  -8.579  0.00  0.00    +0.101 C 
BRANCH  18  19
ATOM     19  C   UNL     1       5.422  -1.214  -9.535  0.00  0.00    -0.002 C 
ATOM     20  C   UNL     1       4.252  -0.429 -10.130  0.00  0.00    +0.004 C 
ATOM     21  C   UNL     1       4.788   0.638 -11.086  0.00  0.00    +0.000 C 
ATOM     22  C   UNL     1       5.575  -0.035 -12.212  0.00  0.00    +0.000 C 
ATOM     23  C   UNL     1       6.745  -0.821 -11.617  0.00  0.00    +0.000 C 
ATOM     24  C   UNL     1       6.209  -1.888 -10.661  0.00  0.00    +0.004 C 
ENDBRANCH  18  19
ENDBRANCH  15  18
ENDBRANCH   3  14
TORSDOF 5
