REMARK  Name = ZINC63296155
REMARK  4 active torsions:
REMARK  status: ('A' for Active; 'I' for Inactive)
REMARK    1  A    between atoms: C_6  and  N_7
REMARK    2  A    between atoms: C_13  and  C_15
REMARK    3  A    between atoms: C_15  and  C_16
REMARK    4  A    between atoms: C_16  and  N_17
REMARK                            x       y       z     vdW  Elec       q    Type
REMARK                         _______ _______ _______ _____ _____    ______ ____
ROOT
ATOM      1  N   UNL     1      -5.927  -6.075  -1.362  0.00  0.00    -0.299 N 
ATOM      2  C   UNL     1      -7.085  -6.766  -1.344  0.00  0.00    +0.302 C 
ATOM      3  O   UNL     1      -8.146  -6.173  -1.326  0.00  0.00    -0.253 OA
ATOM      4  N   UNL     1      -7.065  -8.113  -1.347  0.00  0.00    -0.283 N 
ATOM      5  C   UNL     1      -5.785  -8.820  -1.240  0.00  0.00    +0.114 C 
ATOM      6  C   UNL     1      -5.814  -9.752  -0.015  0.00  0.00    +0.052 C 
ATOM      7  C   UNL     1      -7.138 -10.474  -0.051  0.00  0.00    -0.035 C 
ATOM      8  C   UNL     1      -7.435 -11.766   0.015  0.00  0.00    +0.001 A 
ATOM      9  C   UNL     1      -6.599 -12.952   0.256  0.00  0.00    +0.030 A 
ATOM     10  C   UNL     1      -7.240 -14.152   0.237  0.00  0.00    +0.042 A 
ATOM     11  C   UNL     1      -8.613 -14.287   0.004  0.00  0.00    +0.022 A 
ATOM     12  C   UNL     1      -9.458 -13.249  -0.219  0.00  0.00    +0.027 A 
ATOM     13  C   UNL     1      -8.902 -11.937  -0.214  0.00  0.00    +0.043 A 
ATOM     14  N   UNL     1      -9.475 -10.781  -0.375  0.00  0.00    -0.376 N 
ATOM     15  C   UNL     1      -8.463  -9.737  -0.207  0.00  0.00    +0.124 C 
ATOM     16  C   UNL     1      -8.329  -8.859  -1.450  0.00  0.00    +0.138 C 
ATOM     17 CL   UNL     1      -6.306 -15.589   0.516  0.00  0.00    -0.084 Cl
ATOM     18  H   UNL     1      -5.084  -6.545  -1.454  0.00  0.00    +0.150 HD
ATOM     19  H   UNL     1     -10.414 -10.635  -0.572  0.00  0.00    +0.160 HD
ENDROOT
BRANCH   1  20
ATOM     20  C   UNL     1      -5.944  -4.615  -1.243  0.00  0.00    +0.115 C 
BRANCH  20  21
ATOM     21  C   UNL     1      -4.510  -4.083  -1.292  0.00  0.00    +0.114 C 
BRANCH  21  28
ATOM     22  N   UNL     1      -1.183  -0.726  -0.032  0.00  0.00    -0.327 N 
ATOM     23  C   UNL     1      -2.469  -0.028   0.106  0.00  0.00    +0.124 C 
ATOM     24  C   UNL     1      -3.371  -0.425  -1.069  0.00  0.00    +0.126 C 
ATOM     25  N   UNL     1      -3.370  -1.890  -1.187  0.00  0.00    -0.298 N 
ATOM     26  C   UNL     1      -2.084  -2.588  -1.325  0.00  0.00    +0.126 C 
ATOM     27  C   UNL     1      -1.183  -2.191  -0.155  0.00  0.00    +0.124 C 
ATOM     28  C   UNL     1      -4.527  -2.581  -1.169  0.00  0.00    +0.217 C 
ATOM     29  O   UNL     1      -5.582  -1.994  -1.055  0.00  0.00    -0.276 OA
BRANCH  22  35
ATOM     30  C   UNL     1       1.230  -0.685  -0.073  0.00  0.00    +0.026 A 
ATOM     31  C   UNL     1       2.415   0.025  -0.092  0.00  0.00    +0.040 A 
ATOM     32  C   UNL     1       2.393   1.409  -0.088  0.00  0.00    +0.124 A 
ATOM     33  C   UNL     1       1.185   2.085  -0.065  0.00  0.00    +0.040 A 
ATOM     34  C   UNL     1      -0.002   1.379  -0.045  0.00  0.00    +0.026 A 
ATOM     35  C   UNL     1       0.017  -0.010  -0.050  0.00  0.00    +0.030 A 
ATOM     36  F   UNL     1       3.553   2.101  -0.106  0.00  0.00    -0.205 F 
ENDBRANCH  22  35
ENDBRANCH  21  28
ENDBRANCH  20  21
ENDBRANCH   1  20
TORSDOF 4
