REMARK  Name = ZINC20242435
REMARK  8 active torsions:
REMARK  status: ('A' for Active; 'I' for Inactive)
REMARK    1  A    between atoms: C_1  and  C_2
REMARK    2  A    between atoms: C_2  and  C_4
REMARK    3  A    between atoms: C_2  and  N_12
REMARK    4  A    between atoms: C_4  and  C_5
REMARK    5  A    between atoms: C_5  and  C_6
REMARK    6  A    between atoms: C_13  and  C_15
REMARK    7  A    between atoms: N_21  and  C_32
REMARK    8  A    between atoms: C_32  and  C_33
REMARK                            x       y       z     vdW  Elec       q    Type
REMARK                         _______ _______ _______ _____ _____    ______ ____
ROOT
ATOM      1  C   UNL     1       8.668  -0.543   0.210  0.00  0.00    +0.039 A 
ATOM      2  C   UNL     1       8.530   0.846   0.189  0.00  0.00    +0.014 A 
ATOM      3  C   UNL     1       9.517   1.638   0.736  0.00  0.00    +0.020 A 
ATOM      4  C   UNL     1      10.642   1.066   1.305  0.00  0.00    +0.065 A 
ATOM      5  C   UNL     1      10.795  -0.311   1.332  0.00  0.00    +0.054 A 
ATOM      6  C   UNL     1       9.797  -1.117   0.786  0.00  0.00    +0.037 A 
ATOM      7  N   UNL     1      11.906  -0.922   1.885  0.00  0.00    -0.262 N 
ATOM      8  C   UNL     1      12.529  -0.696   3.011  0.00  0.00    +0.252 C 
ATOM      9  O   UNL     1      13.474  -1.424   3.243  0.00  0.00    -0.270 OA
ATOM     10  C   UNL     1      12.244   0.314   4.033  0.00  0.00    +0.053 A 
ATOM     11  C   UNL     1      12.288  -0.047   5.386  0.00  0.00    +0.014 A 
ATOM     12  C   UNL     1      12.019   0.887   6.362  0.00  0.00    +0.001 A 
ATOM     13  C   UNL     1      11.705   2.189   6.012  0.00  0.00    +0.001 A 
ATOM     14  C   UNL     1      11.659   2.556   4.680  0.00  0.00    +0.018 A 
ATOM     15  C   UNL     1      11.929   1.629   3.694  0.00  0.00    +0.056 A 
ATOM     16  S   UNL     1      11.879   2.111   2.001  0.00  0.00    +0.088 S 
ATOM     17  O   UNL     1      13.095   1.609   1.464  0.00  0.00    -0.247 OA
ENDROOT
BRANCH   1  19
ATOM     18  N   UNL     1       6.520  -0.844  -0.926  0.00  0.00    -0.309 N 
ATOM     19  C   UNL     1       7.615  -1.402  -0.374  0.00  0.00    +0.244 C 
ATOM     20  O   UNL     1       7.738  -2.611  -0.355  0.00  0.00    -0.270 OA
ATOM     21  H   UNL     1       6.409   0.250  -0.944  0.00  0.00    +0.149 HD
BRANCH  18  23
ATOM     22  C   UNL     1       5.846  -2.046  -2.947  0.00  0.00    +0.028 C 
ATOM     23  C   UNL     1       5.477  -1.695  -1.504  0.00  0.00    +0.070 C 
BRANCH  23  24
ATOM     24  C   UNL     1       4.142  -0.948  -1.487  0.00  0.00    +0.026 C 
BRANCH  24  25
ATOM     25  C   UNL     1       3.711  -0.707  -0.039  0.00  0.00    +0.037 C 
BRANCH  25  26
ATOM     26  C   UNL     1       2.396   0.029  -0.022  0.00  0.00    -0.047 A 
ATOM     27  C   UNL     1       1.208  -0.679  -0.014  0.00  0.00    +0.003 A 
ATOM     28  C   UNL     1       0.002  -0.004   0.002  0.00  0.00    +0.000 A 
ATOM     29  C   UNL     1      -0.017   1.378   0.010  0.00  0.00    +0.000 A 
ATOM     30  C   UNL     1       1.171   2.086   0.002  0.00  0.00    +0.000 A 
ATOM     31  C   UNL     1       2.377   1.411  -0.014  0.00  0.00    +0.003 A 
ENDBRANCH  25  26
ENDBRANCH  24  25
ENDBRANCH  23  24
ENDBRANCH  18  23
ENDBRANCH   1  19
BRANCH   7  32
ATOM     32  C   UNL     1      12.478  -2.001   1.076  0.00  0.00    +0.152 C 
BRANCH  32  33
ATOM     33  C   UNL     1      13.517  -1.433   0.143  0.00  0.00    +0.005 A 
ATOM     34  C   UNL     1      14.860  -1.626   0.405  0.00  0.00    +0.008 A 
ATOM     35  C   UNL     1      15.813  -1.105  -0.451  0.00  0.00    +0.000 A 
ATOM     36  C   UNL     1      15.424  -0.390  -1.569  0.00  0.00    +0.003 A 
ATOM     37  C   UNL     1      14.081  -0.196  -1.832  0.00  0.00    +0.038 A 
ATOM     38  C   UNL     1      13.126  -0.721  -0.978  0.00  0.00    +0.128 A 
ATOM     39  F   UNL     1      11.813  -0.537  -1.238  0.00  0.00    -0.205 F 
ENDBRANCH  32  33
ENDBRANCH   7  32
TORSDOF 7
