REMARK  Name = ZINC46572695
REMARK  9 active torsions:
REMARK  status: ('A' for Active; 'I' for Inactive)
REMARK    1  A    between atoms: C_1  and  C_2
REMARK    2  A    between atoms: C_2  and  C_4
REMARK    3  A    between atoms: C_2  and  O_14
REMARK    4  A    between atoms: N_6  and  N_7
REMARK    5  A    between atoms: N_7  and  C_8
REMARK    6  A    between atoms: C_8  and  N_10
REMARK    7  A    between atoms: N_10  and  C_11
REMARK    8  A    between atoms: C_11  and  C_12
REMARK    9  A    between atoms: O_14  and  C_15
REMARK                            x       y       z     vdW  Elec       q    Type
REMARK                         _______ _______ _______ _____ _____    ______ ____
ROOT
ATOM      1  C   UNL     1      -1.469  -0.321   0.136  0.00  0.00    +0.270 C 
ATOM      2  O   UNL     1      -1.896  -0.800   1.165  0.00  0.00    -0.270 OA
ATOM      3  N   UNL     1      -2.309  -0.063  -0.887  0.00  0.00    -0.232 N 
ATOM      4  H   UNL     1      -1.968   0.320  -1.710  0.00  0.00    +0.173 HD
ENDROOT
BRANCH   1   6
ATOM      5  C   UNL     1       0.194   1.499  -0.139  0.00  0.00    +0.062 C 
ATOM      6  C   UNL     1       0.000  -0.013  -0.000  0.00  0.00    +0.257 C 
BRANCH   6   7
ATOM      7  O   UNL     1       0.693  -0.477   1.160  0.00  0.00    -0.479 OA
BRANCH   7   8
ATOM      8  C   UNL     1       2.014  -0.764   1.016  0.00  0.00    +0.136 A 
ATOM      9  C   UNL     1       2.656  -0.496  -0.184  0.00  0.00    +0.049 A 
ATOM     10  C   UNL     1       3.999  -0.787  -0.329  0.00  0.00    +0.042 A 
ATOM     11  C   UNL     1       4.704  -1.347   0.722  0.00  0.00    +0.125 A 
ATOM     12  C   UNL     1       4.066  -1.616   1.921  0.00  0.00    +0.057 A 
ATOM     13  C   UNL     1       2.724  -1.320   2.071  0.00  0.00    +0.062 A 
ATOM     14 BR   UNL     1       1.853  -1.680   3.711  0.00  0.00    -0.046 Br
ATOM     15  F   UNL     1       6.017  -1.632   0.579  0.00  0.00    -0.205 F 
ENDBRANCH   7   8
ENDBRANCH   6   7
ENDBRANCH   1   6
BRANCH   3  16
ATOM     16  N   UNL     1      -3.674  -0.349  -0.760  0.00  0.00    -0.246 N 
ATOM     17  H   UNL     1      -4.016  -0.733   0.063  0.00  0.00    +0.172 HD
BRANCH  16  18
ATOM     18  C   UNL     1      -4.514  -0.092  -1.783  0.00  0.00    +0.147 C 
ATOM     19  S   UNL     1      -6.183  -0.442  -1.629  0.00  0.00    -0.017 S 
BRANCH  18  20
ATOM     20  N   UNL     1      -4.040   0.441  -2.926  0.00  0.00    -0.322 N 
ATOM     21  H   UNL     1      -3.095   0.639  -3.014  0.00  0.00    +0.148 HD
BRANCH  20  22
ATOM     22  C   UNL     1      -4.953   0.720  -4.038  0.00  0.00    +0.130 C 
BRANCH  22  23
ATOM     23  C   UNL     1      -4.178   1.308  -5.189  0.00  0.00    -0.016 C 
ATOM     24  C   UNL     1      -4.242   0.752  -6.373  0.00  0.00    +0.005 C 
ENDBRANCH  22  23
ENDBRANCH  20  22
ENDBRANCH  18  20
ENDBRANCH  16  18
ENDBRANCH   3  16
TORSDOF 8
