REMARK  Name = ZINC21578703
REMARK  9 active torsions:
REMARK  status: ('A' for Active; 'I' for Inactive)
REMARK    1  A    between atoms: C_1  and  C_2
REMARK    2  A    between atoms: C_5  and  C_30
REMARK    3  A    between atoms: N_8  and  C_10
REMARK    4  A    between atoms: C_10  and  C_11
REMARK    5  A    between atoms: N_13  and  N_14
REMARK    6  A    between atoms: C_17  and  C_21
REMARK    7  A    between atoms: C_17  and  C_22
REMARK    8  A    between atoms: C_22  and  C_23
REMARK    9  A    between atoms: C_23  and  C_24
REMARK                            x       y       z     vdW  Elec       q    Type
REMARK                         _______ _______ _______ _____ _____    ______ ____
ROOT
ATOM      1  N   UNL     1       1.274   1.894   0.000  0.00  0.00    -0.137 N 
ATOM      2  C   UNL     1      -0.018   1.512   0.010  0.00  0.00    +0.263 C 
ATOM      3  O   UNL     1      -0.995   2.231   0.019  0.00  0.00    -0.271 OA
ATOM      4  C   UNL     1       0.002  -0.004   0.002  0.00  0.00    +0.112 C 
ATOM      5  N   UNL     1       1.438  -0.331  -0.013  0.00  0.00    -0.284 N 
ATOM      6  C   UNL     1       2.099   0.841  -0.013  0.00  0.00    +0.326 C 
ATOM      7  O   UNL     1       3.311   0.933  -0.025  0.00  0.00    -0.251 OA
ATOM      8  C   UNL     1      -0.686  -0.545  -1.253  0.00  0.00    +0.041 C 
ATOM      9  H   UNL     1       1.763  -1.382  -0.022  0.00  0.00    +0.151 HD
ENDROOT
BRANCH   1  12
ATOM     10  C   UNL     1       2.204   3.773   1.127  0.00  0.00    +0.213 C 
ATOM     11  O   UNL     1       2.287   3.108   2.138  0.00  0.00    -0.276 OA
ATOM     12  N   UNL     1       1.700   3.228   0.002  0.00  0.00    -0.225 N 
ATOM     13  H   UNL     1       1.624   3.831  -0.915  0.00  0.00    +0.173 HD
BRANCH  10  14
ATOM     14  C   UNL     1       2.662   5.208   1.130  0.00  0.00    +0.020 C 
BRANCH  14  20
ATOM     15  C   UNL     1       3.665   4.644   5.180  0.00  0.00    +0.005 C 
ATOM     16  C   UNL     1       2.668   5.758   4.855  0.00  0.00    -0.031 C 
ATOM     17  C   UNL     1       3.383   7.111   4.890  0.00  0.00    +0.003 C 
ATOM     18  C   UNL     1       4.471   7.133   3.814  0.00  0.00    -0.031 C 
ATOM     19  C   UNL     1       3.836   6.866   2.447  0.00  0.00    -0.075 C 
ATOM     20  N   UNL     1       3.165   5.560   2.465  0.00  0.00    +0.386 N 
ATOM     21  C   UNL     1       2.084   5.531   3.458  0.00  0.00    -0.075 C 
ATOM     22  C   UNL     1       5.152   8.502   3.802  0.00  0.00    +0.005 C 
ATOM     23  H   UNL     1       3.909   4.804   2.757  0.00  0.00    -0.081 HD
ENDBRANCH  14  20
ENDBRANCH  10  14
ENDBRANCH   1  12
BRANCH   4  24
ATOM     24  C   UNL     1      -0.666  -0.558   1.262  0.00  0.00    +0.040 C 
BRANCH  24  25
ATOM     25  C   UNL     1      -0.521  -2.081   1.288  0.00  0.00    +0.038 C 
BRANCH  25  26
ATOM     26  C   UNL     1      -1.179  -2.627   2.529  0.00  0.00    -0.047 A 
ATOM     27  C   UNL     1      -0.446  -2.775   3.692  0.00  0.00    +0.003 A 
ATOM     28  C   UNL     1      -1.051  -3.271   4.832  0.00  0.00    +0.000 A 
ATOM     29  C   UNL     1      -2.386  -3.630   4.806  0.00  0.00    +0.000 A 
ATOM     30  C   UNL     1      -3.117  -3.487   3.641  0.00  0.00    +0.000 A 
ATOM     31  C   UNL     1      -2.514  -2.986   2.503  0.00  0.00    +0.003 A 
ENDBRANCH  25  26
ENDBRANCH  24  25
ENDBRANCH   4  24
TORSDOF 6
