REMARK  Name = ZINC57390592
REMARK  8 active torsions:
REMARK  status: ('A' for Active; 'I' for Inactive)
REMARK    1  A    between atoms: C_1  and  C_2
REMARK    2  A    between atoms: C_8  and  N_10
REMARK    3  A    between atoms: N_10  and  C_11
REMARK    4  A    between atoms: C_11  and  N_13
REMARK    5  A    between atoms: N_13  and  N_14
REMARK    6  A    between atoms: C_15  and  C_17
REMARK    7  A    between atoms: C_17  and  N_18
REMARK    8  A    between atoms: C_19  and  C_21
REMARK                            x       y       z     vdW  Elec       q    Type
REMARK                         _______ _______ _______ _____ _____    ______ ____
ROOT
ATOM      1  N   UNL     1      -1.257   0.843   4.663  0.00  0.00    -0.234 N 
ATOM      2  C   UNL     1      -1.888   1.278   5.772  0.00  0.00    +0.246 C 
ATOM      3  O   UNL     1      -1.275   1.396   6.811  0.00  0.00    -0.273 OA
ATOM      4  H   UNL     1      -1.748   0.748   3.831  0.00  0.00    +0.173 HD
ENDROOT
BRANCH   1   5
ATOM      5  N   UNL     1       0.107   0.528   4.711  0.00  0.00    -0.246 N 
ATOM      6  H   UNL     1       0.598   0.623   5.542  0.00  0.00    +0.172 HD
BRANCH   5   7
ATOM      7  C   UNL     1       0.738   0.093   3.602  0.00  0.00    +0.147 C 
ATOM      8  S   UNL     1       2.405  -0.292   3.661  0.00  0.00    -0.017 S 
BRANCH   7   9
ATOM      9  N   UNL     1       0.056  -0.038   2.447  0.00  0.00    -0.322 N 
ATOM     10  H   UNL     1      -0.888   0.180   2.413  0.00  0.00    +0.148 HD
BRANCH   9  17
ATOM     11  C   UNL     1      -0.019   1.526   0.010  0.00  0.00    +0.009 C 
ATOM     12  C   UNL     1       0.002  -0.004   0.002  0.00  0.00    +0.006 C 
ATOM     13  C   UNL     1       0.718  -0.497  -1.257  0.00  0.00    +0.005 C 
ATOM     14  C   UNL     1       0.739  -2.027  -1.265  0.00  0.00    +0.000 C 
ATOM     15  C   UNL     1       1.479  -2.534  -0.026  0.00  0.00    +0.002 C 
ATOM     16  C   UNL     1       0.763  -2.041   1.233  0.00  0.00    +0.022 C 
ATOM     17  C   UNL     1       0.742  -0.511   1.242  0.00  0.00    +0.075 C 
ENDBRANCH   9  17
ENDBRANCH   7   9
ENDBRANCH   5   7
ENDBRANCH   1   5
BRANCH   2  18
ATOM     18  C   UNL     1      -3.356   1.616   5.720  0.00  0.00    +0.202 C 
BRANCH  18  19
ATOM     19  N   UNL     1      -3.801   2.061   7.043  0.00  0.00    -0.302 N 
ATOM     20  C   UNL     1      -5.086   2.419   7.236  0.00  0.00    +0.253 C 
ATOM     21  O   UNL     1      -5.876   2.372   6.312  0.00  0.00    -0.270 OA
ATOM     22  H   UNL     1      -3.171   2.098   7.779  0.00  0.00    +0.150 HD
BRANCH  20  23
ATOM     23  C   UNL     1      -5.532   2.865   8.562  0.00  0.00    +0.093 A 
ATOM     24  C   UNL     1      -6.777   3.256   8.950  0.00  0.00    +0.068 A 
ATOM     25  C   UNL     1      -7.003   3.652  10.282  0.00  0.00    +0.008 A 
ATOM     26  C   UNL     1      -8.216   4.090  10.874  0.00  0.00    +0.010 A 
ATOM     27  C   UNL     1      -8.263   4.439  12.185  0.00  0.00    +0.001 A 
ATOM     28  C   UNL     1      -7.135   4.383  12.995  0.00  0.00    +0.001 A 
ATOM     29  C   UNL     1      -5.934   3.963  12.459  0.00  0.00    +0.016 A 
ATOM     30  C   UNL     1      -5.871   3.605  11.129  0.00  0.00    +0.021 A 
ATOM     31  S   UNL     1      -4.579   3.019  10.062  0.00  0.00    -0.082 S 
ATOM     32 CL   UNL     1      -8.081   3.269   7.805  0.00  0.00    -0.082 Cl
ENDBRANCH  20  23
ENDBRANCH  18  19
ENDBRANCH   2  18
TORSDOF 7
