REMARK  Name = ZINC11933044
REMARK  5 active torsions:
REMARK  status: ('A' for Active; 'I' for Inactive)
REMARK    1  A    between atoms: C_1  and  O_2
REMARK    2  A    between atoms: O_2  and  C_3
REMARK    3  A    between atoms: C_11  and  N_42
REMARK    4  A    between atoms: C_14  and  N_42
REMARK    5  A    between atoms: C_17  and  O_20
REMARK                            x       y       z     vdW  Elec       q    Type
REMARK                         _______ _______ _______ _____ _____    ______ ____
ROOT
ATOM      1  C   UNL     1      -3.852   3.168  -3.433  0.00  0.00    +0.162 A 
ATOM      2  C   UNL     1      -4.736   2.367  -4.135  0.00  0.00    +0.049 A 
ATOM      3  C   UNL     1      -4.705   0.995  -3.967  0.00  0.00    +0.004 A 
ATOM      4  C   UNL     1      -3.794   0.425  -3.100  0.00  0.00    +0.007 A 
ATOM      5  C   UNL     1      -2.908   1.221  -2.392  0.00  0.00    -0.003 A 
ATOM      6  C   UNL     1      -2.931   2.593  -2.557  0.00  0.00    +0.165 A 
ATOM      7  O   UNL     1      -2.075   3.410  -1.887  0.00  0.00    -0.490 OA
ATOM      8  C   UNL     1      -1.407   2.882  -0.741  0.00  0.00    +0.214 C 
ATOM      9  C   UNL     1      -0.795   1.527  -1.120  0.00  0.00    -0.029 C 
ATOM     10  C   UNL     1      -1.936   0.560  -1.447  0.00  0.00    +0.026 C 
ENDROOT
BRANCH   9  11
ATOM     11  N   UNL     1      -0.015   0.998   0.015  0.00  0.00    +0.385 N 
ATOM     12  H   UNL     1       0.032  -0.025  -0.054  0.00  0.00    -0.085 HD
ATOM     13  H   UNL     1      -0.475   1.261   0.894  0.00  0.00    -0.085 HD
BRANCH  11  14
ATOM     14  C   UNL     1       1.353   1.550  -0.003  0.00  0.00    -0.071 C 
ATOM     15  C   UNL     1       2.234   0.702  -0.922  0.00  0.00    -0.013 C 
ATOM     16  C   UNL     1       3.654   1.270  -0.933  0.00  0.00    +0.030 C 
ATOM     17  C   UNL     1       4.225   1.243   0.486  0.00  0.00    +0.114 C 
ATOM     18  C   UNL     1       3.344   2.091   1.406  0.00  0.00    +0.030 C 
ATOM     19  C   UNL     1       1.923   1.523   1.417  0.00  0.00    -0.013 C 
BRANCH  17  20
ATOM     20  O   UNL     1       4.254  -0.104   0.963  0.00  0.00    -0.392 OA
ATOM     21  H   UNL     1       4.795  -0.699   0.426  0.00  0.00    +0.210 HD
ENDBRANCH  17  20
ENDBRANCH  11  14
ENDBRANCH   9  11
BRANCH   1  23
ATOM     22  C   UNL     1      -4.850   5.039  -4.510  0.00  0.00    +0.277 C 
ATOM     23  O   UNL     1      -3.881   4.518  -3.598  0.00  0.00    -0.491 OA
ENDBRANCH   1  23
TORSDOF 4
