REMARK  Name = ZINC59040336
REMARK  9 active torsions:
REMARK  status: ('A' for Active; 'I' for Inactive)
REMARK    1  A    between atoms: C_1  and  C_2
REMARK    2  A    between atoms: C_2  and  C_3
REMARK    3  A    between atoms: C_3  and  S_4
REMARK    4  A    between atoms: S_4  and  C_5
REMARK    5  A    between atoms: C_10  and  N_14
REMARK    6  A    between atoms: C_15  and  C_17
REMARK    7  A    between atoms: C_17  and  S_18
REMARK    8  A    between atoms: S_18  and  C_19
REMARK    9  A    between atoms: N_24  and  N_25
REMARK                            x       y       z     vdW  Elec       q    Type
REMARK                         _______ _______ _______ _____ _____    ______ ____
ROOT
ATOM      1  N   UNL     1      -9.168  -4.468   0.078  0.00  0.00    -0.285 N 
ATOM      2  C   UNL     1     -10.300  -3.744   0.189  0.00  0.00    +0.227 C 
ATOM      3  O   UNL     1     -10.248  -2.533   0.191  0.00  0.00    -0.275 OA
ATOM      4  H   UNL     1      -9.215  -5.434   0.008  0.00  0.00    +0.155 HD
ENDROOT
BRANCH   1  10
ATOM      5  C   UNL     1      -4.234  -0.645  -0.638  0.00  0.00    +0.136 A 
ATOM      6  N   UNL     1      -4.275  -1.816  -0.044  0.00  0.00    -0.233 NA
ATOM      7  C   UNL     1      -5.410  -2.545   0.044  0.00  0.00    +0.080 A 
ATOM      8  C   UNL     1      -5.588  -3.810   0.651  0.00  0.00    +0.031 A 
ATOM      9  C   UNL     1      -6.814  -4.421   0.654  0.00  0.00    +0.025 A 
ATOM     10  C   UNL     1      -7.924  -3.823   0.063  0.00  0.00    +0.035 A 
ATOM     11  C   UNL     1      -7.783  -2.581  -0.542  0.00  0.00    +0.040 A 
ATOM     12  C   UNL     1      -6.556  -1.967  -0.547  0.00  0.00    +0.042 A 
ATOM     13  S   UNL     1      -5.925  -0.428  -1.173  0.00  0.00    -0.061 S 
BRANCH   5  14
ATOM     14  S   UNL     1      -2.861   0.440  -0.848  0.00  0.00    -0.099 S 
BRANCH  14  15
ATOM     15  C   UNL     1      -1.484  -0.436  -0.056  0.00  0.00    +0.076 C 
BRANCH  15  17
ATOM     16  C   UNL     1       0.949  -0.332   0.501  0.00  0.00    +0.004 C 
ATOM     17  C   UNL     1      -0.212   0.407  -0.167  0.00  0.00    +0.008 C 
ENDBRANCH  15  17
ENDBRANCH  14  15
ENDBRANCH   5  14
ENDBRANCH   1  10
BRANCH   2  18
ATOM     18  C   UNL     1     -11.631  -4.442   0.310  0.00  0.00    +0.173 C 
BRANCH  18  19
ATOM     19  S   UNL     1     -12.952  -3.205   0.442  0.00  0.00    -0.075 S 
BRANCH  19  20
ATOM     20  C   UNL     1     -14.423  -4.165   0.575  0.00  0.00    +0.211 A 
ATOM     21  N   UNL     1     -15.662  -3.676   0.689  0.00  0.00    -0.186 NA
ATOM     22  C   UNL     1     -16.525  -4.668   0.765  0.00  0.00    +0.232 A 
ATOM     23  N   UNL     1     -15.834  -5.826   0.700  0.00  0.00    -0.245 N 
ATOM     24  N   UNL     1     -14.481  -5.476   0.572  0.00  0.00    -0.144 NA
ATOM     25  N   UNL     1     -17.897  -4.545   0.892  0.00  0.00    -0.205 N 
ATOM     26  H   UNL     1     -18.452  -5.339   0.941  0.00  0.00    +0.177 HD
ATOM     27  H   UNL     1     -16.201  -6.723   0.731  0.00  0.00    +0.192 HD
BRANCH  25  28
ATOM     28  N   UNL     1     -18.484  -3.274   0.949  0.00  0.00    -0.189 NA
ATOM     29  C   UNL     1     -19.741  -3.159   1.163  0.00  0.00    +0.037 C 
ATOM     30  C   UNL     1     -20.628  -4.381   1.254  0.00  0.00    +0.052 C 
ATOM     31  C   UNL     1     -21.447  -4.294   2.546  0.00  0.00    +0.006 C 
ATOM     32  C   UNL     1     -22.201  -2.963   2.580  0.00  0.00    +0.001 C 
ATOM     33  C   UNL     1     -21.205  -1.803   2.622  0.00  0.00    +0.006 C 
ATOM     34  C   UNL     1     -20.376  -1.797   1.339  0.00  0.00    +0.052 C 
ENDBRANCH  25  28
ENDBRANCH  19  20
ENDBRANCH  18  19
ENDBRANCH   2  18
TORSDOF 8
