REMARK  Name = ZINC66257393
REMARK  7 active torsions:
REMARK  status: ('A' for Active; 'I' for Inactive)
REMARK    1  A    between atoms: C_7  and  N_26
REMARK    2  A    between atoms: C_9  and  C_11
REMARK    3  A    between atoms: C_11  and  S_12
REMARK    4  A    between atoms: S_12  and  C_13
REMARK    5  A    between atoms: C_16  and  C_18
REMARK    6  A    between atoms: C_18  and  C_19
REMARK    7  A    between atoms: C_19  and  C_20
REMARK                            x       y       z     vdW  Elec       q    Type
REMARK                         _______ _______ _______ _____ _____    ______ ____
ROOT
ATOM      1  C   UNL     1       4.952  -2.612  -0.057  0.00  0.00    +0.155 C 
ENDROOT
BRANCH   1  10
ATOM      2  C   UNL     1      -0.016   1.360   0.009  0.00  0.00    +0.001 A 
ATOM      3  C   UNL     1       1.168   2.091   0.002  0.00  0.00    +0.002 A 
ATOM      4  C   UNL     1       2.380   1.466  -0.013  0.00  0.00    +0.028 A 
ATOM      5  C   UNL     1       2.436   0.065  -0.021  0.00  0.00    +0.076 A 
ATOM      6  C   UNL     1       1.229  -0.676  -0.013  0.00  0.00    +0.040 A 
ATOM      7  C   UNL     1       0.002  -0.004   0.002  0.00  0.00    +0.013 A 
ATOM      8  C   UNL     1       1.313  -2.090  -0.021  0.00  0.00    +0.127 A 
ATOM      9  N   UNL     1       2.518  -2.646  -0.035  0.00  0.00    -0.216 NA
ATOM     10  C   UNL     1       3.618  -1.911  -0.042  0.00  0.00    +0.142 A 
ATOM     11  N   UNL     1       3.600  -0.599  -0.035  0.00  0.00    -0.231 NA
BRANCH   8  12
ATOM     12  N   UNL     1       0.175  -2.867  -0.014  0.00  0.00    -0.343 N 
ATOM     13  H   UNL     1      -0.699  -2.447  -0.003  0.00  0.00    +0.144 HD
ATOM     14  H   UNL     1       0.248  -3.834  -0.019  0.00  0.00    +0.144 HD
ENDBRANCH   8  12
ENDBRANCH   1  10
BRANCH   1  15
ATOM     15  S   UNL     1       5.471  -2.886  -1.773  0.00  0.00    -0.058 S 
BRANCH  15  16
ATOM     16  C   UNL     1       7.025  -3.704  -1.623  0.00  0.00    +0.278 A 
ATOM     17  N   UNL     1       7.628  -4.027  -0.505  0.00  0.00    -0.101 NA
ATOM     18  N   UNL     1       8.742  -4.611  -0.777  0.00  0.00    -0.112 NA
ATOM     19  C   UNL     1       8.893  -4.683  -2.067  0.00  0.00    +0.218 A 
ATOM     20  O   UNL     1       7.811  -4.117  -2.635  0.00  0.00    -0.416 OA
BRANCH  19  21
ATOM     21  C   UNL     1      10.064  -5.293  -2.793  0.00  0.00    +0.098 C 
BRANCH  21  22
ATOM     22  C   UNL     1       9.790  -6.777  -3.047  0.00  0.00    +0.013 C 
BRANCH  22  23
ATOM     23  C   UNL     1      10.979  -7.396  -3.785  0.00  0.00    -0.011 C 
ATOM     24  C   UNL     1      11.103  -6.764  -5.173  0.00  0.00    +0.003 C 
ATOM     25  C   UNL     1      12.292  -7.383  -5.910  0.00  0.00    +0.000 C 
ATOM     26  C   UNL     1      12.073  -8.891  -6.054  0.00  0.00    +0.000 C 
ATOM     27  C   UNL     1      11.949  -9.523  -4.667  0.00  0.00    +0.000 C 
ATOM     28  C   UNL     1      10.760  -8.903  -3.929  0.00  0.00    +0.003 C 
ENDBRANCH  22  23
ENDBRANCH  21  22
ENDBRANCH  19  21
ENDBRANCH  15  16
ENDBRANCH   1  15
TORSDOF 7
