REMARK  Name = ZINC54201516
REMARK  6 active torsions:
REMARK  status: ('A' for Active; 'I' for Inactive)
REMARK    1  A    between atoms: C_1  and  O_2
REMARK    2  A    between atoms: O_2  and  C_3
REMARK    3  A    between atoms: C_6  and  C_9
REMARK    4  A    between atoms: C_12  and  C_30
REMARK    5  A    between atoms: C_20  and  C_21
REMARK    6  A    between atoms: C_26  and  O_27
REMARK                            x       y       z     vdW  Elec       q    Type
REMARK                         _______ _______ _______ _____ _____    ______ ____
ROOT
ATOM      1  C   UNL     1      -4.310  -2.631   0.106  0.00  0.00    +0.136 C 
ATOM      2  C   UNL     1      -4.500  -3.152   1.545  0.00  0.00    +0.087 C 
ATOM      3  C   UNL     1      -4.646  -4.648   1.374  0.00  0.00    +0.069 C 
ATOM      4  N   UNL     1      -4.561  -4.948   0.124  0.00  0.00    -0.182 NA
ATOM      5  N   UNL     1      -4.366  -3.850  -0.717  0.00  0.00    -0.195 N 
ATOM      6  C   UNL     1      -4.246  -3.897  -2.081  0.00  0.00    +0.174 C 
ATOM      7  N   UNL     1      -4.054  -2.894  -2.924  0.00  0.00    -0.152 NA
ATOM      8  C   UNL     1      -3.955  -3.073  -4.222  0.00  0.00    +0.276 C 
ATOM      9  O   UNL     1      -3.778  -2.140  -4.989  0.00  0.00    -0.267 OA
ATOM     10  C   UNL     1      -4.070  -4.470  -4.703  0.00  0.00    +0.080 C 
ATOM     11  C   UNL     1      -4.010  -4.962  -5.967  0.00  0.00    +0.032 C 
ATOM     12  S   UNL     1      -4.303  -5.326  -3.150  0.00  0.00    -0.050 S 
ENDROOT
BRANCH  11  13
ATOM     13  C   UNL     1      -3.991  -6.412  -6.189  0.00  0.00    +0.019 A 
ATOM     14  C   UNL     1      -3.656  -7.281  -5.144  0.00  0.00    +0.031 A 
ATOM     15  C   UNL     1      -3.641  -8.642  -5.361  0.00  0.00    +0.042 A 
ATOM     16  C   UNL     1      -3.956  -9.155  -6.611  0.00  0.00    +0.023 A 
ATOM     17  C   UNL     1      -4.288  -8.309  -7.651  0.00  0.00    +0.047 A 
ATOM     18  C   UNL     1      -4.314  -6.938  -7.451  0.00  0.00    +0.124 A 
ATOM     19 CL   UNL     1      -3.226  -9.719  -4.065  0.00  0.00    -0.084 Cl
BRANCH  18  20
ATOM     20  O   UNL     1      -4.646  -6.107  -8.472  0.00  0.00    -0.506 OA
ATOM     21  H   UNL     1      -3.892  -5.819  -9.005  0.00  0.00    +0.292 HD
ENDBRANCH  18  20
ENDBRANCH  11  13
BRANCH   1  25
ATOM     22  C   UNL     1      -0.514  -0.712  -0.307  0.00  0.00    +0.120 A 
ATOM     23  C   UNL     1      -1.667   0.049  -0.175  0.00  0.00    +0.046 A 
ATOM     24  C   UNL     1      -2.893  -0.574  -0.042  0.00  0.00    +0.009 A 
ATOM     25  C   UNL     1      -2.971  -1.954  -0.040  0.00  0.00    -0.025 A 
ATOM     26  C   UNL     1      -1.824  -2.715  -0.170  0.00  0.00    +0.009 A 
ATOM     27  C   UNL     1      -0.597  -2.096  -0.310  0.00  0.00    +0.046 A 
BRANCH  22  29
ATOM     28  C   UNL     1       0.702   1.328  -0.427  0.00  0.00    +0.277 C 
ATOM     29  O   UNL     1       0.693  -0.101  -0.439  0.00  0.00    -0.495 OA
ENDBRANCH  22  29
ENDBRANCH   1  25
BRANCH   3  30
ATOM     30  C   UNL     1      -4.851  -5.613   2.469  0.00  0.00    -0.002 A 
ATOM     31  C   UNL     1      -4.932  -5.168   3.791  0.00  0.00    +0.010 A 
ATOM     32  C   UNL     1      -5.125  -6.077   4.811  0.00  0.00    +0.001 A 
ATOM     33  C   UNL     1      -5.238  -7.426   4.527  0.00  0.00    +0.000 A 
ATOM     34  C   UNL     1      -5.159  -7.874   3.220  0.00  0.00    +0.001 A 
ATOM     35  C   UNL     1      -4.972  -6.976   2.190  0.00  0.00    +0.010 A 
ENDBRANCH   3  30
TORSDOF 5
