REMARK  Name = ZINC16115147
REMARK  9 active torsions:
REMARK  status: ('A' for Active; 'I' for Inactive)
REMARK    1  A    between atoms: C_1  and  C_2
REMARK    2  A    between atoms: C_2  and  N_3
REMARK    3  A    between atoms: N_3  and  C_4
REMARK    4  A    between atoms: C_4  and  C_5
REMARK    5  A    between atoms: C_6  and  C_8
REMARK    6  A    between atoms: C_8  and  N_19
REMARK    7  A    between atoms: C_9  and  C_10
REMARK    8  A    between atoms: C_14  and  N_16
REMARK    9  A    between atoms: C_20  and  C_22
REMARK                            x       y       z     vdW  Elec       q    Type
REMARK                         _______ _______ _______ _____ _____    ______ ____
ROOT
ATOM      1  C   UNL     1      -1.204   5.969  -0.057  0.00  0.00    +0.097 C 
ATOM      2  C   UNL     1      -0.011   5.341   0.056  0.00  0.00    +0.036 C 
ENDROOT
BRANCH   2   3
ATOM      3  C   UNL     1       0.038   3.906   0.376  0.00  0.00    -0.021 A 
ATOM      4  C   UNL     1      -0.819   3.372   1.344  0.00  0.00    +0.008 A 
ATOM      5  C   UNL     1      -0.772   2.025   1.634  0.00  0.00    +0.003 A 
ATOM      6  C   UNL     1       0.129   1.203   0.977  0.00  0.00    +0.033 A 
ATOM      7  C   UNL     1       0.980   1.724   0.019  0.00  0.00    +0.127 A 
ATOM      8  C   UNL     1       0.941   3.068  -0.287  0.00  0.00    +0.040 A 
BRANCH   7   9
ATOM      9  N   UNL     1       1.934   0.835  -0.682  0.00  0.00    +0.056 N 
ATOM     10  O   UNL     1       1.970  -0.352  -0.414  0.00  0.00    -0.126 OA
ATOM     11  O   UNL     1       2.684   1.292  -1.526  0.00  0.00    -0.126 OA
ENDBRANCH   7   9
ENDBRANCH   2   3
BRANCH   1  12
ATOM     12  N   UNL     1      -1.250   7.356  -0.224  0.00  0.00    -0.277 N 
ATOM     13  C   UNL     1      -2.430   7.969  -0.443  0.00  0.00    +0.248 C 
ATOM     14  O   UNL     1      -3.462   7.327  -0.419  0.00  0.00    -0.270 OA
ATOM     15  H   UNL     1      -0.433   7.877  -0.182  0.00  0.00    +0.155 HD
BRANCH  13  16
ATOM     16  C   UNL     1      -2.470   9.421  -0.712  0.00  0.00    +0.037 A 
ATOM     17  C   UNL     1      -1.281  10.142  -0.847  0.00  0.00    +0.014 A 
ATOM     18  C   UNL     1      -1.324  11.496  -1.104  0.00  0.00    +0.016 A 
ATOM     19  C   UNL     1      -2.543  12.143  -1.216  0.00  0.00    +0.018 A 
ATOM     20  C   UNL     1      -3.725  11.436  -1.079  0.00  0.00    +0.016 A 
ATOM     21  C   UNL     1      -3.695  10.080  -0.828  0.00  0.00    +0.014 A 
ATOM     22 BR   UNL     1      -2.594  14.002  -1.561  0.00  0.00    -0.050 Br
ENDBRANCH  13  16
ENDBRANCH   1  12
BRANCH   1  24
ATOM     23  N   UNL     1      -2.957   4.653  -1.131  0.00  0.00    -0.297 N 
ATOM     24  C   UNL     1      -2.451   5.192  -0.004  0.00  0.00    +0.261 C 
ATOM     25  O   UNL     1      -3.026   5.037   1.057  0.00  0.00    -0.269 OA
BRANCH  23  27
ATOM     26  C   UNL     1      -5.367   4.984  -1.387  0.00  0.00    +0.024 C 
ATOM     27  C   UNL     1      -4.255   3.974  -1.098  0.00  0.00    +0.105 C 
ENDBRANCH  23  27
BRANCH  23  28
ATOM     28  C   UNL     1      -2.210   4.746  -2.387  0.00  0.00    +0.105 C 
ATOM     29  C   UNL     1      -1.381   3.475  -2.583  0.00  0.00    +0.024 C 
ENDBRANCH  23  28
ENDBRANCH   1  24
TORSDOF 7
