REMARK  Name = ZINC48533250
REMARK  10 active torsions:
REMARK  status: ('A' for Active; 'I' for Inactive)
REMARK    1  A    between atoms: C_1  and  C_2
REMARK    2  A    between atoms: C_2  and  O_3
REMARK    3  A    between atoms: O_3  and  C_4
REMARK    4  A    between atoms: C_4  and  C_6
REMARK    5  A    between atoms: N_11  and  S_12
REMARK    6  A    between atoms: S_12  and  C_15
REMARK    7  A    between atoms: C_18  and  C_21
REMARK    8  A    between atoms: C_29  and  C_31
REMARK    9  A    between atoms: C_34  and  O_37
REMARK   10  A    between atoms: O_37  and  C_38
REMARK                            x       y       z     vdW  Elec       q    Type
REMARK                         _______ _______ _______ _____ _____    ______ ____
ROOT
ATOM      1  C   UNL     1       1.798  -2.610  -2.481  0.00  0.00    +0.201 C 
ATOM      2  C   UNL     1       3.283  -2.965  -2.354  0.00  0.00    +0.048 C 
ATOM      3  C   UNL     1       3.285  -4.442  -1.921  0.00  0.00    +0.033 C 
ATOM      4  C   UNL     1       2.041  -4.985  -2.673  0.00  0.00    +0.111 C 
ATOM      5  N   UNL     1       1.066  -3.878  -2.647  0.00  0.00    -0.162 NA
ATOM      6  C   UNL     1       3.986  -2.094  -1.353  0.00  0.00    -0.016 A 
ATOM      7  C   UNL     1       3.758  -1.868  -0.009  0.00  0.00    +0.006 A 
ATOM      8  C   UNL     1       4.568  -1.000   0.699  0.00  0.00    +0.000 A 
ATOM      9  C   UNL     1       5.611  -0.355   0.059  0.00  0.00    +0.002 A 
ATOM     10  C   UNL     1       5.844  -0.577  -1.282  0.00  0.00    +0.023 A 
ATOM     11  C   UNL     1       5.032  -1.452  -2.004  0.00  0.00    +0.031 A 
ATOM     12  N   UNL     1       5.098  -1.811  -3.353  0.00  0.00    -0.336 N 
ATOM     13  C   UNL     1       4.029  -2.768  -3.670  0.00  0.00    +0.113 C 
ATOM     14  H   UNL     1       5.752  -1.478  -3.986  0.00  0.00    +0.147 HD
ENDROOT
BRANCH  13  15
ATOM     15  C   UNL     1       3.107  -2.197  -4.717  0.00  0.00    -0.026 A 
ATOM     16  C   UNL     1       2.542  -3.029  -5.666  0.00  0.00    +0.009 A 
ATOM     17  C   UNL     1       1.696  -2.508  -6.627  0.00  0.00    +0.046 A 
ATOM     18  C   UNL     1       1.414  -1.149  -6.638  0.00  0.00    +0.120 A 
ATOM     19  C   UNL     1       1.982  -0.318  -5.684  0.00  0.00    +0.046 A 
ATOM     20  C   UNL     1       2.823  -0.844  -4.722  0.00  0.00    +0.009 A 
BRANCH  18  21
ATOM     21  O   UNL     1       0.583  -0.635  -7.582  0.00  0.00    -0.495 OA
ATOM     22  C   UNL     1       0.245   0.749  -7.464  0.00  0.00    +0.277 C 
ENDBRANCH  18  21
ENDBRANCH  13  15
BRANCH   5  23
ATOM     23  S   UNL     1      -0.577  -4.033  -2.783  0.00  0.00    +0.062 S 
ATOM     24  O   UNL     1      -0.896  -5.353  -2.363  0.00  0.00    -0.153 OA
ATOM     25  O   UNL     1      -1.146  -2.881  -2.175  0.00  0.00    -0.153 OA
BRANCH  23  26
ATOM     26  C   UNL     1      -0.969  -3.942  -4.498  0.00  0.00    +0.106 A 
ATOM     27  C   UNL     1      -1.364  -2.739  -5.054  0.00  0.00    +0.029 A 
ATOM     28  C   UNL     1      -1.671  -2.668  -6.400  0.00  0.00    +0.005 A 
ATOM     29  C   UNL     1      -1.584  -3.799  -7.190  0.00  0.00    -0.050 A 
ATOM     30  C   UNL     1      -1.189  -5.001  -6.634  0.00  0.00    +0.005 A 
ATOM     31  C   UNL     1      -0.877  -5.072  -5.289  0.00  0.00    +0.029 A 
ATOM     32  C   UNL     1      -1.921  -3.721  -8.657  0.00  0.00    +0.044 C 
ENDBRANCH  23  26
ENDBRANCH   5  23
BRANCH   1  33
ATOM     33  C   UNL     1       1.329  -1.905  -1.234  0.00  0.00    +0.327 C 
ATOM     34  O   UNL     1       0.730  -2.518  -0.383  0.00  0.00    -0.249 OA
BRANCH  33  35
ATOM     35  O   UNL     1       1.577  -0.596  -1.070  0.00  0.00    -0.464 OA
BRANCH  35  37
ATOM     36  C   UNL     1       1.476   1.492   0.143  0.00  0.00    +0.048 C 
ATOM     37  C   UNL     1       1.103   0.008   0.135  0.00  0.00    +0.229 C 
ENDBRANCH  35  37
ENDBRANCH  33  35
ENDBRANCH   1  33
TORSDOF 7
