REMARK  Name = ZINC02394554
REMARK  6 active torsions:
REMARK  status: ('A' for Active; 'I' for Inactive)
REMARK    1  A    between atoms: C_1  and  C_2
REMARK    2  A    between atoms: C_7  and  C_8
REMARK    3  A    between atoms: C_11  and  S_14
REMARK    4  A    between atoms: N_12  and  N_13
REMARK    5  A    between atoms: S_14  and  C_15
REMARK    6  A    between atoms: C_15  and  C_16
REMARK                            x       y       z     vdW  Elec       q    Type
REMARK                         _______ _______ _______ _____ _____    ______ ____
ROOT
ATOM      1  C   UNL     1       1.249  -2.160  -0.021  0.00  0.00    +0.182 A 
ATOM      2  N   UNL     1       0.208  -2.960  -0.015  0.00  0.00    -0.127 NA
ATOM      3  N   UNL     1       0.596  -4.185  -0.026  0.00  0.00    -0.121 NA
ATOM      4  C   UNL     1       1.910  -4.242  -0.038  0.00  0.00    +0.209 A 
ATOM      5  N   UNL     1       2.371  -2.957  -0.042  0.00  0.00    -0.224 N 
ENDROOT
BRANCH   1  12
ATOM      6  C   UNL     1      -1.292  -0.777   0.011  0.00  0.00    +0.044 C 
ATOM      7  C   UNL     1       0.002  -0.004   0.002  0.00  0.00    -0.040 A 
ATOM      8  C   UNL     1      -0.017   1.376   0.010  0.00  0.00    +0.004 A 
ATOM      9  C   UNL     1       1.170   2.087   0.002  0.00  0.00    +0.000 A 
ATOM     10  C   UNL     1       2.383   1.420  -0.013  0.00  0.00    +0.001 A 
ATOM     11  C   UNL     1       2.416   0.041  -0.021  0.00  0.00    +0.012 A 
ATOM     12  C   UNL     1       1.222  -0.682  -0.013  0.00  0.00    +0.024 A 
ENDBRANCH   1  12
BRANCH   5  13
ATOM     13  N   UNL     1       3.674  -2.548  -0.059  0.00  0.00    -0.295 N 
ATOM     14  H   UNL     1       4.033  -2.444   0.878  0.00  0.00    +0.163 HD
ATOM     15  H   UNL     1       4.245  -3.182  -0.597  0.00  0.00    +0.163 HD
ENDBRANCH   5  13
BRANCH   4  16
ATOM     16  S   UNL     1       2.892  -5.705  -0.055  0.00  0.00    -0.080 S 
BRANCH  16  17
ATOM     17  C   UNL     1       1.587  -6.960  -0.049  0.00  0.00    +0.112 C 
BRANCH  17  18
ATOM     18  C   UNL     1       2.210  -8.332  -0.062  0.00  0.00    -0.036 A 
ATOM     19  C   UNL     1       2.479  -8.958  -1.265  0.00  0.00    +0.006 A 
ATOM     20  C   UNL     1       3.055 -10.214  -1.278  0.00  0.00    +0.022 A 
ATOM     21  C   UNL     1       3.353 -10.851  -0.086  0.00  0.00    +0.059 A 
ATOM     22  C   UNL     1       3.078 -10.227   1.119  0.00  0.00    +0.060 A 
ATOM     23  C   UNL     1       2.506  -8.967   1.130  0.00  0.00    +0.026 A 
ATOM     24 CL   UNL     1       3.451 -11.024   2.615  0.00  0.00    -0.082 Cl
ATOM     25 CL   UNL     1       4.070 -12.431  -0.102  0.00  0.00    -0.082 Cl
ENDBRANCH  17  18
ENDBRANCH  16  17
ENDBRANCH   4  16
TORSDOF 5
