REMARK  Name = ZINC27530848
REMARK  8 active torsions:
REMARK  status: ('A' for Active; 'I' for Inactive)
REMARK    1  A    between atoms: C_4  and  C_7
REMARK    2  A    between atoms: C_13  and  C_21
REMARK    3  A    between atoms: C_15  and  C_19
REMARK    4  A    between atoms: C_16  and  N_18
REMARK    5  A    between atoms: C_26  and  O_27
REMARK    6  A    between atoms: O_27  and  C_28
REMARK    7  A    between atoms: C_28  and  C_30
REMARK    8  A    between atoms: C_34  and  N_36
REMARK                            x       y       z     vdW  Elec       q    Type
REMARK                         _______ _______ _______ _____ _____    ______ ____
ROOT
ATOM      1  C   UNL     1       3.519  -0.289   0.001  0.00  0.00    +0.084 C 
ATOM      2  N   UNL     1       4.696   0.277   0.004  0.00  0.00    -0.150 NA
ATOM      3  N   UNL     1       5.729  -0.649  -0.137  0.00  0.00    -0.115 NA
ATOM      4  C   UNL     1       5.291  -1.857  -0.180  0.00  0.00    +0.227 C 
ATOM      5  C   UNL     1       3.767  -1.767  -0.193  0.00  0.00    +0.140 C 
ATOM      6  C   UNL     1       3.289  -2.567   1.025  0.00  0.00    +0.086 C 
ATOM      7  C   UNL     1       4.101  -3.830   1.132  0.00  0.00    +0.095 C 
ATOM      8  C   UNL     1       5.312  -4.007   0.566  0.00  0.00    +0.200 C 
ATOM      9  O   UNL     1       5.919  -3.052  -0.190  0.00  0.00    -0.425 OA
ENDROOT
BRANCH   1  13
ATOM     10  C   UNL     1      -0.236   1.629   0.460  0.00  0.00    +0.000 A 
ATOM     11  C   UNL     1       0.927   2.379   0.481  0.00  0.00    +0.001 A 
ATOM     12  C   UNL     1       2.151   1.763   0.333  0.00  0.00    +0.010 A 
ATOM     13  C   UNL     1       2.216   0.376   0.161  0.00  0.00    -0.001 A 
ATOM     14  C   UNL     1       1.037  -0.374   0.141  0.00  0.00    +0.010 A 
ATOM     15  C   UNL     1      -0.180   0.257   0.290  0.00  0.00    +0.001 A 
ENDBRANCH   1  13
BRANCH   6  16
ATOM     16  C   UNL     1       3.471  -1.741   2.273  0.00  0.00    +0.004 A 
ATOM     17  C   UNL     1       4.730  -1.300   2.632  0.00  0.00    +0.008 A 
ATOM     18  C   UNL     1       4.898  -0.543   3.777  0.00  0.00    +0.001 A 
ATOM     19  C   UNL     1       3.807  -0.226   4.565  0.00  0.00    +0.004 A 
ATOM     20  C   UNL     1       2.546  -0.665   4.210  0.00  0.00    +0.047 A 
ATOM     21  C   UNL     1       2.374  -1.419   3.058  0.00  0.00    +0.136 A 
BRANCH  21  22
ATOM     22  O   UNL     1       1.134  -1.848   2.704  0.00  0.00    -0.422 OA
BRANCH  22  23
ATOM     23  C   UNL     1       0.744  -3.069   3.118  0.00  0.00    +0.345 C 
ATOM     24  O   UNL     1       1.451  -3.709   3.870  0.00  0.00    -0.245 OA
BRANCH  23  25
ATOM     25  C   UNL     1      -0.543  -3.629   2.658  0.00  0.00    +0.062 A 
ATOM     26  C   UNL     1      -1.355  -2.897   1.788  0.00  0.00    +0.015 A 
ATOM     27  C   UNL     1      -2.555  -3.427   1.362  0.00  0.00    +0.003 A 
ATOM     28  C   UNL     1      -2.956  -4.679   1.794  0.00  0.00    +0.033 A 
ATOM     29  C   UNL     1      -2.156  -5.409   2.656  0.00  0.00    +0.127 A 
ATOM     30  C   UNL     1      -0.950  -4.894   3.085  0.00  0.00    +0.047 A 
BRANCH  29  31
ATOM     31  N   UNL     1      -2.593  -6.747   3.114  0.00  0.00    +0.056 N 
ATOM     32  O   UNL     1      -3.647  -7.201   2.734  0.00  0.00    -0.126 OA
ATOM     33  O   UNL     1      -1.895  -7.385   3.866  0.00  0.00    -0.126 OA
ENDBRANCH  29  31
ENDBRANCH  23  25
ENDBRANCH  22  23
ENDBRANCH  21  22
ENDBRANCH   6  16
BRANCH   8  34
ATOM     34  N   UNL     1       5.957  -5.204   0.755  0.00  0.00    -0.328 N 
ATOM     35  H   UNL     1       5.542  -5.900   1.286  0.00  0.00    +0.145 HD
ATOM     36  H   UNL     1       6.829  -5.353   0.356  0.00  0.00    +0.145 HD
ENDBRANCH   8  34
BRANCH   7  37
ATOM     37  C   UNL     1       3.550  -4.916   1.886  0.00  0.00    +0.100 C 
ATOM     38  N   UNL     1       3.114  -5.778   2.484  0.00  0.00    -0.191 NA
ENDBRANCH   7  37
TORSDOF 8
