REMARK  Name = ZINC39711299
REMARK  12 active torsions:
REMARK  status: ('A' for Active; 'I' for Inactive)
REMARK    1  A    between atoms: C_1  and  C_2
REMARK    2  A    between atoms: C_5  and  C_40
REMARK    3  A    between atoms: C_6  and  N_8
REMARK    4  A    between atoms: N_11  and  C_14
REMARK    5  A    between atoms: C_14  and  C_16
REMARK    6  A    between atoms: C_14  and  C_30
REMARK    7  A    between atoms: C_21  and  O_28
REMARK    8  A    between atoms: O_28  and  C_29
REMARK    9  A    between atoms: N_35  and  C_36
REMARK   10  A    between atoms: C_36  and  C_37
REMARK   11  A    between atoms: C_36  and  C_38
REMARK   12  A    between atoms: C_36  and  C_39
REMARK                            x       y       z     vdW  Elec       q    Type
REMARK                         _______ _______ _______ _____ _____    ______ ____
ROOT
ATOM      1  C   UNL     1       0.118  -6.358   4.585  0.00  0.00    -0.009 C 
ENDROOT
BRANCH   1   2
ATOM      2  C   UNL     1       1.431  -6.653   5.315  0.00  0.00    +0.088 C 
ATOM      3  C   UNL     1       1.578  -8.158   5.418  0.00  0.00    -0.006 C 
ATOM      4  C   UNL     1       1.700  -8.690   6.667  0.00  0.00    -0.004 A 
ATOM      5  C   UNL     1       1.846 -10.134   6.856  0.00  0.00    +0.055 A 
ATOM      6  C   UNL     1       1.964 -10.622   8.122  0.00  0.00    +0.121 A 
ATOM      7  C   UNL     1       1.948  -9.770   9.233  0.00  0.00    +0.047 A 
ATOM      8  C   UNL     1       1.815  -8.424   9.120  0.00  0.00    +0.027 A 
ATOM      9  C   UNL     1       1.686  -7.820   7.856  0.00  0.00    +0.041 A 
ATOM     10  N   UNL     1       1.557  -6.497   7.760  0.00  0.00    -0.285 N 
ATOM     11  C   UNL     1       1.430  -5.865   6.606  0.00  0.00    +0.223 C 
ATOM     12  O   UNL     1       1.315  -4.654   6.583  0.00  0.00    -0.275 OA
ATOM     13  H   UNL     1       1.555  -5.973   8.576  0.00  0.00    +0.155 HD
BRANCH   6  14
ATOM     14  O   UNL     1       2.100 -11.961   8.310  0.00  0.00    -0.495 OA
ATOM     15  C   UNL     1       2.220 -12.417   9.659  0.00  0.00    +0.277 C 
ENDBRANCH   6  14
ENDBRANCH   1   2
BRANCH   1  19
ATOM     16  N   UNL     1      -0.099  -2.606   2.747  0.00  0.00    -0.333 N 
ATOM     17  C   UNL     1       1.173  -2.959   3.396  0.00  0.00    +0.086 C 
ATOM     18  C   UNL     1       1.218  -4.480   3.581  0.00  0.00    -0.059 C 
ATOM     19  N   UNL     1       0.022  -4.918   4.312  0.00  0.00    +0.387 N 
ATOM     20  C   UNL     1      -1.179  -4.653   3.511  0.00  0.00    -0.059 C 
ATOM     21  C   UNL     1      -1.343  -3.136   3.326  0.00  0.00    +0.086 C 
ATOM     22  H   UNL     1      -0.039  -4.416   5.185  0.00  0.00    -0.081 HD
BRANCH  16  28
ATOM     23  C   UNL     1      -0.356   1.898   0.797  0.00  0.00    +0.044 C 
ATOM     24  C   UNL     1      -0.249   0.403   0.643  0.00  0.00    -0.049 A 
ATOM     25  C   UNL     1      -0.177  -0.157  -0.620  0.00  0.00    +0.004 A 
ATOM     26  C   UNL     1      -0.079  -1.529  -0.766  0.00  0.00    +0.005 A 
ATOM     27  C   UNL     1      -0.053  -2.344   0.349  0.00  0.00    -0.029 A 
ATOM     28  C   UNL     1      -0.125  -1.784   1.618  0.00  0.00    +0.033 A 
ATOM     29  C   UNL     1      -0.218  -0.405   1.762  0.00  0.00    +0.026 A 
ATOM     30  C   UNL     1       0.053  -3.838   0.188  0.00  0.00    +0.045 C 
ENDBRANCH  16  28
ENDBRANCH   1  19
BRANCH   1  31
ATOM     31  C   UNL     1      -1.060  -6.791   5.460  0.00  0.00    +0.205 C 
ATOM     32  N   UNL     1      -1.006  -6.115   6.763  0.00  0.00    -0.152 NA
ATOM     33  N   UNL     1      -0.900  -6.966   7.649  0.00  0.00    -0.070 NA
ATOM     34  N   UNL     1      -0.865  -8.268   7.150  0.00  0.00    -0.179 N 
ATOM     35  N   UNL     1      -0.962  -8.230   5.781  0.00  0.00    -0.183 NA
ATOM     36  H   UNL     1      -0.784  -9.072   7.686  0.00  0.00    +0.191 HD
BRANCH  35  37
ATOM     37  C   UNL     1      -2.152  -8.956   5.316  0.00  0.00    +0.035 C 
ATOM     38  C   UNL     1      -2.284  -8.800   3.800  0.00  0.00    +0.029 C 
ATOM     39  C   UNL     1      -2.015 -10.439   5.666  0.00  0.00    +0.029 C 
ATOM     40  C   UNL     1      -3.397  -8.384   5.998  0.00  0.00    +0.029 C 
ENDBRANCH  35  37
ENDBRANCH   1  31
TORSDOF 6
