REMARK  Name = ZINC39716681
REMARK  16 active torsions:
REMARK  status: ('A' for Active; 'I' for Inactive)
REMARK    1  A    between atoms: C_1  and  C_2
REMARK    2  A    between atoms: C_2  and  N_3
REMARK    3  A    between atoms: C_7  and  S_33
REMARK    4  A    between atoms: N_12  and  C_13
REMARK    5  A    between atoms: C_13  and  C_15
REMARK    6  A    between atoms: C_18  and  S_21
REMARK    7  A    between atoms: S_21  and  N_24
REMARK    8  A    between atoms: N_24  and  C_25
REMARK    9  A    between atoms: N_24  and  C_29
REMARK   10  A    between atoms: C_25  and  C_26
REMARK   11  A    between atoms: C_26  and  C_27
REMARK   12  A    between atoms: C_26  and  C_28
REMARK   13  A    between atoms: C_29  and  C_30
REMARK   14  A    between atoms: C_30  and  C_31
REMARK   15  A    between atoms: C_30  and  C_32
REMARK   16  A    between atoms: S_33  and  C_34
REMARK                            x       y       z     vdW  Elec       q    Type
REMARK                         _______ _______ _______ _____ _____    ______ ____
ROOT
ATOM      1  C   UNL     1       6.368  -1.150   0.765  0.00  0.00    +0.039 A 
ATOM      2  C   UNL     1       5.543  -0.854   1.850  0.00  0.00    +0.015 A 
ATOM      3  C   UNL     1       6.102  -0.503   3.062  0.00  0.00    +0.029 A 
ATOM      4  C   UNL     1       7.477  -0.445   3.202  0.00  0.00    +0.106 A 
ATOM      5  C   UNL     1       8.300  -0.737   2.130  0.00  0.00    +0.029 A 
ATOM      6  C   UNL     1       7.753  -1.095   0.914  0.00  0.00    +0.015 A 
ENDROOT
BRANCH   4   7
ATOM      7  S   UNL     1       8.183   0.005   4.753  0.00  0.00    +0.061 S 
ATOM      8  O   UNL     1       9.479   0.517   4.476  0.00  0.00    -0.153 OA
ATOM      9  O   UNL     1       7.197   0.760   5.444  0.00  0.00    -0.153 OA
BRANCH   7  10
ATOM     10  N   UNL     1       8.400  -1.392   5.615  0.00  0.00    -0.176 NA
BRANCH  10  11
ATOM     11  C   UNL     1       9.658  -2.134   5.504  0.00  0.00    +0.112 C 
BRANCH  11  12
ATOM     12  C   UNL     1      10.612  -1.689   6.614  0.00  0.00    -0.001 C 
ATOM     13  C   UNL     1      10.045  -2.108   7.972  0.00  0.00    +0.008 C 
ATOM     14  C   UNL     1      11.978  -2.347   6.407  0.00  0.00    +0.008 C 
ENDBRANCH  11  12
ENDBRANCH  10  11
BRANCH  10  15
ATOM     15  C   UNL     1       7.333  -1.886   6.490  0.00  0.00    +0.112 C 
BRANCH  15  16
ATOM     16  C   UNL     1       6.474  -2.896   5.727  0.00  0.00    -0.001 C 
ATOM     17  C   UNL     1       7.313  -4.131   5.394  0.00  0.00    +0.008 C 
ATOM     18  C   UNL     1       5.281  -3.307   6.592  0.00  0.00    +0.008 C 
ENDBRANCH  15  16
ENDBRANCH  10  15
ENDBRANCH   7  10
ENDBRANCH   4   7
BRANCH   1  19
ATOM     19  C   UNL     1       5.774  -1.528  -0.538  0.00  0.00    +0.269 C 
ATOM     20  O   UNL     1       6.497  -1.791  -1.484  0.00  0.00    -0.268 OA
BRANCH  19  30
ATOM     21  N   UNL     1       2.598  -2.022  -2.165  0.00  0.00    -0.321 N 
ATOM     22  C   UNL     1       2.226  -2.385  -3.447  0.00  0.00    +0.058 A 
ATOM     23  C   UNL     1       0.940  -2.545  -3.983  0.00  0.00    +0.028 A 
ATOM     24  C   UNL     1       0.767  -2.916  -5.295  0.00  0.00    +0.017 A 
ATOM     25  C   UNL     1       1.859  -3.144  -6.128  0.00  0.00    +0.009 A 
ATOM     26  C   UNL     1       3.144  -2.992  -5.618  0.00  0.00    +0.032 A 
ATOM     27  C   UNL     1       3.310  -2.621  -4.305  0.00  0.00    +0.040 A 
ATOM     28  S   UNL     1       4.718  -2.320  -3.268  0.00  0.00    -0.052 S 
ATOM     29  C   UNL     1       3.914  -1.919  -1.848  0.00  0.00    +0.167 A 
ATOM     30  N   UNL     1       4.446  -1.580  -0.678  0.00  0.00    -0.152 NA
BRANCH  21  32
ATOM     31  C   UNL     1       1.206  -0.258  -1.198  0.00  0.00    +0.027 C 
ATOM     32  C   UNL     1       1.575  -1.742  -1.154  0.00  0.00    +0.121 C 
ENDBRANCH  21  32
BRANCH  25  33
ATOM     33  S   UNL     1       1.617  -3.621  -7.807  0.00  0.00    -0.129 S 
ATOM     34  C   UNL     1      -0.187  -3.684  -7.989  0.00  0.00    +0.090 C 
ENDBRANCH  25  33
ENDBRANCH  19  30
ENDBRANCH   1  19
TORSDOF 10
