REMARK  Name = ZINC57366420
REMARK  5 active torsions:
REMARK  status: ('A' for Active; 'I' for Inactive)
REMARK    1  A    between atoms: C_1  and  C_2
REMARK    2  A    between atoms: C_5  and  S_7
REMARK    3  A    between atoms: S_7  and  C_8
REMARK    4  A    between atoms: C_11  and  C_17
REMARK    5  A    between atoms: C_13  and  N_14
REMARK                            x       y       z     vdW  Elec       q    Type
REMARK                         _______ _______ _______ _____ _____    ______ ____
ROOT
ATOM      1  C   UNL     1       0.117  -4.778   1.858  0.00  0.00    +0.045 A 
ATOM      2  C   UNL     1       0.216  -5.008   0.491  0.00  0.00    +0.018 A 
ATOM      3  C   UNL     1       0.263  -6.302   0.012  0.00  0.00    +0.013 A 
ATOM      4  C   UNL     1       0.211  -7.369   0.891  0.00  0.00    +0.057 A 
ATOM      5  C   UNL     1       0.113  -7.144   2.252  0.00  0.00    +0.046 A 
ATOM      6  C   UNL     1       0.071  -5.852   2.739  0.00  0.00    +0.140 A 
ENDROOT
BRANCH   4   7
ATOM      7  C   UNL     1       0.262  -8.780   0.364  0.00  0.00    +0.417 C 
ATOM      8  F   UNL     1       0.360  -8.753  -1.032  0.00  0.00    -0.166 F 
ATOM      9  F   UNL     1       1.377  -9.437   0.897  0.00  0.00    -0.166 F 
ATOM     10  F   UNL     1      -0.902  -9.459   0.737  0.00  0.00    -0.166 F 
ENDBRANCH   4   7
BRANCH   6  11
ATOM     11  N   UNL     1      -0.027  -5.612   4.196  0.00  0.00    +0.058 N 
ATOM     12  O   UNL     1      -0.067  -6.547   4.961  0.00  0.00    -0.126 OA
ATOM     13  O   UNL     1      -0.068  -4.481   4.621  0.00  0.00    -0.126 OA
ENDBRANCH   6  11
BRANCH   1  14
ATOM     14  S   UNL     1       0.058  -3.128   2.474  0.00  0.00    -0.061 S 
BRANCH  14  19
ATOM     15  C   UNL     1      -4.157  -0.631   4.351  0.00  0.00    +0.066 C 
ATOM     16  C   UNL     1      -3.505  -1.812   3.679  0.00  0.00    +0.047 A 
ATOM     17  C   UNL     1      -4.227  -2.886   3.279  0.00  0.00    +0.070 A 
ATOM     18  S   UNL     1      -2.942  -3.910   2.581  0.00  0.00    -0.069 S 
ATOM     19  C   UNL     1      -1.642  -2.881   2.866  0.00  0.00    +0.139 A 
ATOM     20  N   UNL     1      -2.205  -1.843   3.450  0.00  0.00    -0.238 NA
ENDBRANCH  14  19
ENDBRANCH   1  14
TORSDOF 4
