REMARK  Name = ZINC13552346
REMARK  7 active torsions:
REMARK  status: ('A' for Active; 'I' for Inactive)
REMARK    1  A    between atoms: C_1  and  C_2
REMARK    2  A    between atoms: C_4  and  C_36
REMARK    3  A    between atoms: C_11  and  C_13
REMARK    4  A    between atoms: C_19  and  C_25
REMARK    5  A    between atoms: C_28  and  O_31
REMARK    6  A    between atoms: O_31  and  C_32
REMARK    7  A    between atoms: C_32  and  C_33
REMARK                            x       y       z     vdW  Elec       q    Type
REMARK                         _______ _______ _______ _____ _____    ______ ____
ROOT
ATOM      1  C   UNL     1       0.253   2.203   0.597  0.00  0.00    +0.066 C 
ATOM      2  C   UNL     1       0.344   0.710   0.413  0.00  0.00    +0.044 A 
ATOM      3  C   UNL     1       0.381   0.160  -0.859  0.00  0.00    +0.046 A 
ATOM      4  C   UNL     1       0.465  -1.218  -0.982  0.00  0.00    +0.044 A 
ATOM      5  N   UNL     1       0.507  -1.962   0.111  0.00  0.00    -0.216 NA
ATOM      6  C   UNL     1       0.470  -1.404   1.311  0.00  0.00    +0.253 A 
ATOM      7  N   UNL     1       0.396  -0.092   1.464  0.00  0.00    -0.216 NA
ATOM      8  N   UNL     1       0.516  -2.219   2.440  0.00  0.00    -0.183 N 
ATOM      9  C   UNL     1       0.482  -1.800   3.725  0.00  0.00    +0.136 A 
ATOM     10  C   UNL     1       0.535  -2.907   4.525  0.00  0.00    +0.028 A 
ATOM     11  C   UNL     1       0.618  -4.032   3.700  0.00  0.00    +0.099 A 
ATOM     12  N   UNL     1       0.601  -3.620   2.446  0.00  0.00    -0.162 NA
ATOM     13  C   UNL     1       0.495  -2.819   6.030  0.00  0.00    +0.063 C 
ATOM     14  C   UNL     1       1.097  -1.474   6.449  0.00  0.00    +0.109 C 
ATOM     15  C   UNL     1       0.589  -0.357   5.582  0.00  0.00    +0.219 C 
ATOM     16  O   UNL     1       0.349   0.718   6.089  0.00  0.00    -0.275 OA
ATOM     17  N   UNL     1       0.393  -0.514   4.255  0.00  0.00    -0.270 N 
ATOM     18  C   UNL     1       0.507  -1.861  -2.344  0.00  0.00    +0.066 C 
ATOM     19  H   UNL     1       0.195   0.247   3.687  0.00  0.00    +0.156 HD
ENDROOT
BRANCH  11  20
ATOM     20  C   UNL     1       0.703  -5.442   4.154  0.00  0.00    +0.002 A 
ATOM     21  C   UNL     1      -0.137  -5.904   5.164  0.00  0.00    +0.010 A 
ATOM     22  C   UNL     1      -0.053  -7.217   5.582  0.00  0.00    +0.001 A 
ATOM     23  C   UNL     1       0.864  -8.073   5.001  0.00  0.00    +0.000 A 
ATOM     24  C   UNL     1       1.701  -7.620   3.997  0.00  0.00    +0.001 A 
ATOM     25  C   UNL     1       1.621  -6.311   3.567  0.00  0.00    +0.010 A 
ENDBRANCH  11  20
BRANCH  13  26
ATOM     26  C   UNL     1       1.299  -3.945   6.626  0.00  0.00    -0.039 A 
ATOM     27  C   UNL     1       2.600  -4.160   6.210  0.00  0.00    +0.008 A 
ATOM     28  C   UNL     1       3.340  -5.192   6.755  0.00  0.00    +0.046 A 
ATOM     29  C   UNL     1       2.776  -6.013   7.721  0.00  0.00    +0.121 A 
ATOM     30  C   UNL     1       1.471  -5.795   8.137  0.00  0.00    +0.046 A 
ATOM     31  C   UNL     1       0.737  -4.758   7.593  0.00  0.00    +0.008 A 
BRANCH  29  32
ATOM     32  O   UNL     1       3.501  -7.029   8.258  0.00  0.00    -0.483 OA
BRANCH  32  33
ATOM     33  C   UNL     1       2.857  -7.833   9.248  0.00  0.00    +0.324 C 
BRANCH  33  34
ATOM     34  C   UNL     1       3.808  -8.901   9.725  0.00  0.00    +0.248 C 
ATOM     35  O   UNL     1       4.927  -8.966   9.263  0.00  0.00    -0.272 OA
ATOM     36  N   UNL     1       3.414  -9.783  10.665  0.00  0.00    -0.327 N 
ATOM     37  H   UNL     1       2.519  -9.730  11.034  0.00  0.00    +0.145 HD
ATOM     38  H   UNL     1       4.026 -10.470  10.972  0.00  0.00    +0.145 HD
ENDBRANCH  33  34
ENDBRANCH  32  33
ENDBRANCH  29  32
ENDBRANCH  13  26
TORSDOF 5
