REMARK  Name = ZINC51606818
REMARK  10 active torsions:
REMARK  status: ('A' for Active; 'I' for Inactive)
REMARK    1  A    between atoms: C_1  and  C_2
REMARK    2  A    between atoms: C_2  and  C_3
REMARK    3  A    between atoms: C_3  and  C_5
REMARK    4  A    between atoms: C_3  and  N_22
REMARK    5  A    between atoms: C_5  and  C_7
REMARK    6  A    between atoms: C_5  and  S_13
REMARK    7  A    between atoms: N_10  and  C_12
REMARK    8  A    between atoms: S_13  and  C_14
REMARK    9  A    between atoms: C_16  and  C_21
REMARK   10  A    between atoms: C_18  and  C_20
REMARK                            x       y       z     vdW  Elec       q    Type
REMARK                         _______ _______ _______ _____ _____    ______ ____
ROOT
ATOM      1  C   UNL     1       0.630  -2.036  -1.347  0.00  0.00    +0.073 C 
ENDROOT
BRANCH   1   2
ATOM      2  C   UNL     1      -0.856  -2.287  -1.368  0.00  0.00    +0.002 A 
ATOM      3  C   UNL     1      -1.766  -1.761  -2.291  0.00  0.00    +0.139 A 
ATOM      4  N   UNL     1      -2.959  -2.203  -1.986  0.00  0.00    -0.180 NA
ATOM      5  N   UNL     1      -2.845  -3.026  -0.858  0.00  0.00    -0.274 N 
ATOM      6  C   UNL     1      -1.544  -3.065  -0.501  0.00  0.00    +0.112 A 
ATOM      7  C   UNL     1      -3.944  -3.725  -0.187  0.00  0.00    +0.172 C 
ENDBRANCH   1   2
BRANCH   1   8
ATOM      8  C   UNL     1       0.893  -0.539  -1.173  0.00  0.00    -0.057 C 
BRANCH   8   9
ATOM      9  N   UNL     1       2.337  -0.283  -1.246  0.00  0.00    +0.381 N 
ATOM     10  H   UNL     1       2.815  -0.855  -0.564  0.00  0.00    -0.090 HD
ATOM     11  H   UNL     1       2.673  -0.511  -2.169  0.00  0.00    -0.090 HD
ATOM     12  H   UNL     1       2.517   0.691  -1.053  0.00  0.00    -0.090 HD
ENDBRANCH   8   9
BRANCH   8  14
ATOM     13  C   UNL     1       0.511   1.435   0.310  0.00  0.00    +0.002 C 
ATOM     14  C   UNL     1       0.362  -0.083   0.187  0.00  0.00    -0.018 C 
ENDBRANCH   8  14
ENDBRANCH   1   8
BRANCH   1  15
ATOM     15  S   UNL     1       1.361  -2.601  -2.908  0.00  0.00    -0.079 S 
BRANCH  15  16
ATOM     16  C   UNL     1       1.202  -4.355  -2.844  0.00  0.00    +0.189 A 
ATOM     17  N   UNL     1       0.734  -4.922  -1.741  0.00  0.00    -0.227 NA
ATOM     18  C   UNL     1       0.602  -6.235  -1.660  0.00  0.00    +0.043 A 
ATOM     19  C   UNL     1       0.960  -7.019  -2.746  0.00  0.00    +0.046 A 
ATOM     20  C   UNL     1       1.445  -6.394  -3.884  0.00  0.00    +0.043 A 
ATOM     21  N   UNL     1       1.548  -5.075  -3.901  0.00  0.00    -0.227 NA
ATOM     22  C   UNL     1       1.847  -7.206  -5.088  0.00  0.00    +0.066 C 
ATOM     23  C   UNL     1       0.070  -6.872  -0.403  0.00  0.00    +0.066 C 
ENDBRANCH  15  16
ENDBRANCH   1  15
TORSDOF 6
