REMARK  Name = ZINC00295616
REMARK  5 active torsions:
REMARK  status: ('A' for Active; 'I' for Inactive)
REMARK    1  A    between atoms: C_1  and  C_2
REMARK    2  A    between atoms: C_9  and  N_13
REMARK    3  A    between atoms: C_10  and  C_11
REMARK    4  A    between atoms: C_14  and  C_15
REMARK    5  A    between atoms: C_19  and  N_21
REMARK                            x       y       z     vdW  Elec       q    Type
REMARK                         _______ _______ _______ _____ _____    ______ ____
ROOT
ATOM      1  C   UNL     1      -0.019   1.526   0.010  0.00  0.00    +0.008 C 
ATOM      2  C   UNL     1       0.002  -0.004   0.002  0.00  0.00    -0.009 C 
ATOM      3  C   UNL     1      -1.433  -0.537   0.021  0.00  0.00    +0.008 C 
ATOM      4  C   UNL     1      -1.433  -2.044  -0.239  0.00  0.00    +0.037 C 
ATOM      5  C   UNL     1      -0.474  -2.714   0.742  0.00  0.00    -0.018 A 
ATOM      6  C   UNL     1       0.475  -1.985   1.381  0.00  0.00    -0.003 A 
ATOM      7  S   UNL     1       1.332  -3.158   2.397  0.00  0.00    -0.073 S 
ATOM      8  C   UNL     1       0.401  -4.613   1.944  0.00  0.00    +0.119 A 
ATOM      9  C   UNL     1      -0.520  -4.089   1.030  0.00  0.00    +0.088 A 
ATOM     10  C   UNL     1       0.737  -0.516   1.249  0.00  0.00    +0.046 C 
ENDROOT
BRANCH   9  11
ATOM     11  C   UNL     1      -1.488  -4.936   0.400  0.00  0.00    +0.102 C 
ATOM     12  N   UNL     1      -2.256  -5.607  -0.099  0.00  0.00    -0.191 NA
ENDBRANCH   9  11
BRANCH   8  13
ATOM     13  N   UNL     1       0.547  -5.885   2.371  0.00  0.00    -0.247 NA
ATOM     14  C   UNL     1       1.478  -6.180   3.240  0.00  0.00    +0.120 C 
BRANCH  14  15
ATOM     15  C   UNL     1       1.637  -7.566   3.706  0.00  0.00    -0.005 A 
ATOM     16  C   UNL     1       0.797  -8.572   3.217  0.00  0.00    +0.009 A 
ATOM     17  C   UNL     1       0.953  -9.869   3.659  0.00  0.00    +0.003 A 
ATOM     18  C   UNL     1       1.937 -10.176   4.583  0.00  0.00    +0.033 A 
ATOM     19  C   UNL     1       2.771  -9.186   5.072  0.00  0.00    +0.127 A 
ATOM     20  C   UNL     1       2.632  -7.885   4.635  0.00  0.00    +0.042 A 
BRANCH  19  21
ATOM     21  N   UNL     1       3.819  -9.525   6.060  0.00  0.00    +0.056 N 
ATOM     22  O   UNL     1       3.945 -10.666   6.440  0.00  0.00    -0.126 OA
ATOM     23  O   UNL     1       4.548  -8.661   6.488  0.00  0.00    -0.126 OA
ENDBRANCH  19  21
ENDBRANCH  14  15
ENDBRANCH   8  13
TORSDOF 4
