REMARK  Name = ZINC36618838
REMARK  7 active torsions:
REMARK  status: ('A' for Active; 'I' for Inactive)
REMARK    1  A    between atoms: C_1  and  N_2
REMARK    2  A    between atoms: N_2  and  C_3
REMARK    3  A    between atoms: N_2  and  C_4
REMARK    4  A    between atoms: C_7  and  C_10
REMARK    5  A    between atoms: C_14  and  C_24
REMARK    6  A    between atoms: C_19  and  N_23
REMARK    7  A    between atoms: C_20  and  C_21
REMARK                            x       y       z     vdW  Elec       q    Type
REMARK                         _______ _______ _______ _____ _____    ______ ____
ROOT
ATOM      1  C   UNL     1       0.036  -2.627  -4.936  0.00  0.00    +0.082 C 
ATOM      2  C   UNL     1       1.296  -2.357  -5.766  0.00  0.00    +0.140 C 
ATOM      3  C   UNL     1       2.413  -3.295  -5.370  0.00  0.00    +0.085 C 
ATOM      4  N   UNL     1       2.661  -4.027  -6.423  0.00  0.00    -0.150 NA
ATOM      5  N   UNL     1       1.815  -3.724  -7.489  0.00  0.00    -0.115 NA
ATOM      6  C   UNL     1       0.960  -2.793  -7.189  0.00  0.00    +0.227 C 
ATOM      7  O   UNL     1      -0.102  -2.279  -7.847  0.00  0.00    -0.425 OA
ATOM      8  C   UNL     1      -1.195  -2.070  -7.069  0.00  0.00    +0.200 C 
ATOM      9  C   UNL     1      -1.175  -2.211  -5.727  0.00  0.00    +0.095 C 
ENDROOT
BRANCH   3  10
ATOM     10  C   UNL     1       3.085  -3.369  -4.063  0.00  0.00    +0.017 A 
ATOM     11  C   UNL     1       2.957  -4.514  -3.270  0.00  0.00    +0.011 A 
ATOM     12  C   UNL     1       3.590  -4.575  -2.047  0.00  0.00    +0.001 A 
ATOM     13  C   UNL     1       4.351  -3.507  -1.602  0.00  0.00    +0.001 A 
ATOM     14  C   UNL     1       4.482  -2.370  -2.379  0.00  0.00    +0.020 A 
ATOM     15  C   UNL     1       3.860  -2.295  -3.609  0.00  0.00    +0.050 A 
ATOM     16 CL   UNL     1       4.032  -0.871  -4.587  0.00  0.00    -0.083 Cl
ENDBRANCH   3  10
BRANCH   1  20
ATOM     17  C   UNL     1       0.211  -0.383  -1.302  0.00  0.00    +0.029 A 
ATOM     18  C   UNL     1       0.126  -1.769  -1.261  0.00  0.00    +0.023 A 
ATOM     19  C   UNL     1       0.069  -2.491  -2.437  0.00  0.00    +0.006 A 
ATOM     20  C   UNL     1       0.097  -1.836  -3.655  0.00  0.00    -0.038 A 
ATOM     21  C   UNL     1       0.182  -0.456  -3.699  0.00  0.00    +0.006 A 
ATOM     22  C   UNL     1       0.233   0.272  -2.527  0.00  0.00    +0.023 A 
BRANCH  17  24
ATOM     23  C   UNL     1       0.352   1.812  -0.160  0.00  0.00    +0.129 C 
ATOM     24  N   UNL     1       0.269   0.350  -0.115  0.00  0.00    -0.336 N 
ATOM     25  C   UNL     1       0.245  -0.343   1.176  0.00  0.00    +0.129 C 
ENDBRANCH  17  24
ENDBRANCH   1  20
BRANCH   8  26
ATOM     26  N   UNL     1      -2.371  -1.701  -7.673  0.00  0.00    -0.328 N 
ATOM     27  H   UNL     1      -2.409  -1.595  -8.636  0.00  0.00    +0.145 HD
ATOM     28  H   UNL     1      -3.164  -1.547  -7.136  0.00  0.00    +0.145 HD
ENDBRANCH   8  26
BRANCH   9  29
ATOM     29  C   UNL     1      -2.385  -1.947  -5.007  0.00  0.00    +0.100 C 
ATOM     30  N   UNL     1      -3.344  -1.737  -4.437  0.00  0.00    -0.191 NA
ENDBRANCH   9  29
TORSDOF 5
