REMARK  Name = ZINC38321118
REMARK  3 active torsions:
REMARK  status: ('A' for Active; 'I' for Inactive)
REMARK    1  A    between atoms: C_3  and  C_7
REMARK    2  A    between atoms: C_15  and  C_17
REMARK    3  A    between atoms: C_18  and  C_19
REMARK                            x       y       z     vdW  Elec       q    Type
REMARK                         _______ _______ _______ _____ _____    ______ ____
ROOT
ATOM      1  C   UNL     1       3.675   2.023  -0.023  0.00  0.00    +0.030 C 
ATOM      2  C   UNL     1       4.822   1.303   0.065  0.00  0.00    +0.082 A 
ATOM      3  C   UNL     1       5.013  -0.156   0.071  0.00  0.00    +0.288 A 
ATOM      4  O   UNL     1       4.066  -0.915  -0.010  0.00  0.00    -0.265 OA
ATOM      5  N   UNL     1       6.266  -0.620   0.169  0.00  0.00    -0.169 N 
ATOM      6  C   UNL     1       7.296   0.275   0.257  0.00  0.00    +0.200 A 
ATOM      7  S   UNL     1       6.511   1.869   0.196  0.00  0.00    -0.044 S 
ATOM      8  N   UNL     1       8.428  -0.364   0.344  0.00  0.00    -0.201 NA
ATOM      9  C   UNL     1       8.194  -1.687   0.317  0.00  0.00    +0.176 A 
ATOM     10  N   UNL     1       6.901  -1.891   0.212  0.00  0.00    -0.142 NA
ENDROOT
BRANCH   1  13
ATOM     11  C   UNL     1       0.101   1.078  -0.634  0.00  0.00    +0.020 A 
ATOM     12  C   UNL     1       1.303   1.750  -0.752  0.00  0.00    +0.011 A 
ATOM     13  C   UNL     1       2.373   1.345   0.061  0.00  0.00    -0.006 A 
ATOM     14  C   UNL     1       2.179   0.284   0.953  0.00  0.00    +0.118 A 
ATOM     15  N   UNL     1       1.013  -0.322   1.026  0.00  0.00    -0.263 NA
ATOM     16  C   UNL     1      -0.009   0.038   0.273  0.00  0.00    +0.111 A 
ENDBRANCH   1  13
BRANCH   9  17
ATOM     17  C   UNL     1       9.223  -2.739   0.393  0.00  0.00    +0.050 C 
ATOM     18  C   UNL     1      10.519  -2.404   0.498  0.00  0.00    +0.011 C 
BRANCH  18  19
ATOM     19  C   UNL     1      11.548  -3.457   0.574  0.00  0.00    -0.025 A 
ATOM     20  C   UNL     1      11.179  -4.804   0.529  0.00  0.00    +0.009 A 
ATOM     21  C   UNL     1      12.147  -5.783   0.600  0.00  0.00    +0.020 A 
ATOM     22  C   UNL     1      13.482  -5.434   0.716  0.00  0.00    +0.041 A 
ATOM     23  C   UNL     1      13.855  -4.101   0.760  0.00  0.00    +0.020 A 
ATOM     24  C   UNL     1      12.898  -3.112   0.684  0.00  0.00    +0.009 A 
ATOM     25 CL   UNL     1      14.694  -6.674   0.806  0.00  0.00    -0.084 Cl
ENDBRANCH  18  19
ENDBRANCH   9  17
TORSDOF 3
