REMARK  Name = ZINC40783227
REMARK  7 active torsions:
REMARK  status: ('A' for Active; 'I' for Inactive)
REMARK    1  A    between atoms: C_4  and  S_7
REMARK    2  A    between atoms: S_7  and  C_8
REMARK    3  A    between atoms: C_9  and  N_26
REMARK    4  A    between atoms: C_10  and  N_14
REMARK    5  A    between atoms: N_14  and  C_15
REMARK    6  A    between atoms: C_18  and  O_21
REMARK    7  A    between atoms: O_21  and  C_22
REMARK                            x       y       z     vdW  Elec       q    Type
REMARK                         _______ _______ _______ _____ _____    ______ ____
ROOT
ATOM      1  C   UNL     1       3.458  -2.514   0.412  0.00  0.00    +0.127 A 
ATOM      2  C   UNL     1       4.442  -3.505   0.383  0.00  0.00    +0.098 A 
ATOM      3  C   UNL     1       4.039  -4.837   0.498  0.00  0.00    +0.148 A 
ATOM      4  N   UNL     1       2.743  -5.109   0.631  0.00  0.00    -0.219 NA
ATOM      5  C   UNL     1       1.847  -4.144   0.655  0.00  0.00    +0.224 A 
ATOM      6  N   UNL     1       2.184  -2.874   0.554  0.00  0.00    -0.227 NA
ENDROOT
BRANCH   2   7
ATOM      7  N   UNL     1       5.798  -3.171   0.240  0.00  0.00    -0.353 N 
ATOM      8  H   UNL     1       6.063  -2.241   0.161  0.00  0.00    +0.142 HD
ATOM      9  H   UNL     1       6.470  -3.870   0.221  0.00  0.00    +0.142 HD
ENDBRANCH   2   7
BRANCH   3  10
ATOM     10  N   UNL     1       4.978  -5.862   0.474  0.00  0.00    -0.298 N 
ATOM     11  H   UNL     1       5.925  -5.653   0.454  0.00  0.00    +0.154 HD
BRANCH  10  12
ATOM     12  C   UNL     1       4.556  -7.197   0.479  0.00  0.00    +0.033 A 
ATOM     13  C   UNL     1       5.326  -8.167   1.108  0.00  0.00    +0.027 A 
ATOM     14  C   UNL     1       4.909  -9.483   1.113  0.00  0.00    +0.048 A 
ATOM     15  C   UNL     1       3.721  -9.837   0.489  0.00  0.00    +0.130 A 
ATOM     16  C   UNL     1       2.952  -8.869  -0.139  0.00  0.00    +0.048 A 
ATOM     17  C   UNL     1       3.364  -7.551  -0.139  0.00  0.00    +0.027 A 
BRANCH  15  18
ATOM     18  O   UNL     1       3.312 -11.134   0.494  0.00  0.00    -0.406 OA
BRANCH  18  19
ATOM     19  C   UNL     1       2.080 -11.428  -0.167  0.00  0.00    +0.575 C 
ATOM     20  F   UNL     1       2.177 -11.068  -1.516  0.00  0.00    -0.133 F 
ATOM     21  F   UNL     1       1.812 -12.797  -0.067  0.00  0.00    -0.133 F 
ATOM     22  F   UNL     1       1.044 -10.704   0.434  0.00  0.00    -0.133 F 
ENDBRANCH  18  19
ENDBRANCH  15  18
ENDBRANCH  10  12
ENDBRANCH   3  10
BRANCH   1  23
ATOM     23  S   UNL     1       3.897  -0.813   0.272  0.00  0.00    -0.068 S 
BRANCH  23  27
ATOM     24  C   UNL     1      -0.015   1.384   0.893  0.00  0.00    +0.000 A 
ATOM     25  C   UNL     1       0.744   1.004   1.985  0.00  0.00    +0.001 A 
ATOM     26  C   UNL     1       1.937   0.334   1.799  0.00  0.00    +0.015 A 
ATOM     27  C   UNL     1       2.375   0.041   0.513  0.00  0.00    +0.014 A 
ATOM     28  C   UNL     1       1.609   0.424  -0.582  0.00  0.00    +0.015 A 
ATOM     29  C   UNL     1       0.418   1.094  -0.388  0.00  0.00    +0.001 A 
ENDBRANCH  23  27
ENDBRANCH   1  23
TORSDOF 7
