REMARK  Name = ZINC23742648
REMARK  8 active torsions:
REMARK  status: ('A' for Active; 'I' for Inactive)
REMARK    1  A    between atoms: C_1  and  N_2
REMARK    2  A    between atoms: N_2  and  C_3
REMARK    3  A    between atoms: C_3  and  C_4
REMARK    4  A    between atoms: N_6  and  C_15
REMARK    5  A    between atoms: C_8  and  C_9
REMARK    6  A    between atoms: C_21  and  C_23
REMARK    7  A    between atoms: C_26  and  N_32
REMARK    8  A    between atoms: C_27  and  N_29
REMARK                            x       y       z     vdW  Elec       q    Type
REMARK                         _______ _______ _______ _____ _____    ______ ____
ROOT
ATOM      1  C   UNL     1      -5.030   4.001   0.686  0.00  0.00    +0.146 C 
ENDROOT
BRANCH   1   2
ATOM      2  C   UNL     1      -5.111   3.989  -0.818  0.00  0.00    +0.016 A 
ATOM      3  C   UNL     1      -4.849   5.032  -1.637  0.00  0.00    +0.120 A 
ATOM      4  N   UNL     1      -5.033   4.613  -2.916  0.00  0.00    -0.239 N 
ATOM      5  N   UNL     1      -5.430   3.270  -2.880  0.00  0.00    -0.166 NA
ATOM      6  C   UNL     1      -5.478   2.891  -1.620  0.00  0.00    +0.098 A 
BRANCH   6   7
ATOM      7  C   UNL     1      -5.854   1.541  -1.130  0.00  0.00    +0.002 A 
ATOM      8  C   UNL     1      -5.141   0.953  -0.087  0.00  0.00    +0.010 A 
ATOM      9  C   UNL     1      -5.498  -0.301   0.368  0.00  0.00    +0.001 A 
ATOM     10  C   UNL     1      -6.554  -0.976  -0.216  0.00  0.00    +0.000 A 
ATOM     11  C   UNL     1      -7.262  -0.399  -1.255  0.00  0.00    +0.001 A 
ATOM     12  C   UNL     1      -6.917   0.856  -1.714  0.00  0.00    +0.010 A 
ENDBRANCH   6   7
BRANCH   4  13
ATOM     13  C   UNL     1      -4.862   5.390  -4.069  0.00  0.00    +0.065 A 
ATOM     14  C   UNL     1      -4.468   6.717  -3.962  0.00  0.00    +0.028 A 
ATOM     15  C   UNL     1      -4.295   7.479  -5.101  0.00  0.00    +0.002 A 
ATOM     16  C   UNL     1      -4.523   6.924  -6.347  0.00  0.00    +0.000 A 
ATOM     17  C   UNL     1      -4.920   5.604  -6.457  0.00  0.00    +0.002 A 
ATOM     18  C   UNL     1      -5.090   4.836  -5.322  0.00  0.00    +0.028 A 
ENDBRANCH   4  13
ENDBRANCH   1   2
BRANCH   1  20
ATOM     19  C   UNL     1      -3.367   5.841   1.224  0.00  0.00    +0.132 C 
ATOM     20  N   UNL     1      -4.750   5.363   1.149  0.00  0.00    -0.296 N 
ATOM     21  C   UNL     1      -5.764   6.175   1.507  0.00  0.00    +0.247 C 
ATOM     22  O   UNL     1      -6.915   5.814   1.354  0.00  0.00    -0.270 OA
BRANCH  21  23
ATOM     23  C   UNL     1      -5.478   7.503   2.083  0.00  0.00    +0.039 A 
ATOM     24  C   UNL     1      -4.262   7.738   2.731  0.00  0.00    +0.015 A 
ATOM     25  C   UNL     1      -4.000   8.976   3.272  0.00  0.00    +0.026 A 
ATOM     26  C   UNL     1      -4.941   9.997   3.165  0.00  0.00    +0.055 A 
ATOM     27  C   UNL     1      -6.150   9.767   2.516  0.00  0.00    +0.147 A 
ATOM     28  C   UNL     1      -6.420   8.530   1.977  0.00  0.00    +0.047 A 
BRANCH  27  29
ATOM     29  N   UNL     1      -7.148  10.855   2.404  0.00  0.00    +0.058 N 
ATOM     30  O   UNL     1      -8.248  10.627   1.934  0.00  0.00    -0.126 OA
ATOM     31  O   UNL     1      -6.868  11.979   2.782  0.00  0.00    -0.126 OA
ENDBRANCH  27  29
BRANCH  26  32
ATOM     32  N   UNL     1      -4.671  11.248   3.708  0.00  0.00    -0.356 N 
ATOM     33  H   UNL     1      -5.414  12.055   3.625  0.00  0.00    +0.142 HD
ATOM     34  H   UNL     1      -3.716  11.430   4.222  0.00  0.00    +0.142 HD
ENDBRANCH  26  32
ENDBRANCH  21  23
ENDBRANCH   1  20
TORSDOF 7
