REMARK  Name = ZINC08792338
REMARK  11 active torsions:
REMARK  status: ('A' for Active; 'I' for Inactive)
REMARK    1  A    between atoms: C_1  and  C_2
REMARK    2  A    between atoms: C_2  and  C_4
REMARK    3  A    between atoms: C_2  and  O_10
REMARK    4  A    between atoms: N_6  and  C_7
REMARK    5  A    between atoms: C_7  and  C_8
REMARK    6  A    between atoms: C_7  and  C_9
REMARK    7  A    between atoms: O_10  and  C_11
REMARK    8  A    between atoms: C_30  and  O_34
REMARK    9  A    between atoms: C_31  and  O_32
REMARK   10  A    between atoms: O_32  and  C_33
REMARK   11  A    between atoms: O_34  and  C_35
REMARK                            x       y       z     vdW  Elec       q    Type
REMARK                         _______ _______ _______ _____ _____    ______ ____
ROOT
ATOM      1  C   UNL     1      -0.031  -0.600   2.304  0.00  0.00    +0.122 A 
ATOM      2  C   UNL     1      -1.403  -0.375   2.284  0.00  0.00    +0.048 A 
ATOM      3  C   UNL     1      -2.146  -0.497   3.439  0.00  0.00    +0.030 A 
ATOM      4  C   UNL     1      -1.532  -0.845   4.635  0.00  0.00    +0.058 A 
ATOM      5  C   UNL     1      -0.142  -1.073   4.657  0.00  0.00    +0.012 A 
ATOM      6  C   UNL     1       0.597  -0.953   3.484  0.00  0.00    +0.056 A 
ATOM      7  C   UNL     1       0.204  -1.419   6.044  0.00  0.00    +0.012 A 
ATOM      8  C   UNL     1       1.337  -1.755   6.781  0.00  0.00    +0.028 A 
ATOM      9  C   UNL     1       1.192  -2.017   8.134  0.00  0.00    +0.084 A 
ATOM     10  N   UNL     1       0.024  -1.960   8.754  0.00  0.00    -0.359 N 
ATOM     11  C   UNL     1      -1.083  -1.645   8.097  0.00  0.00    +0.072 A 
ATOM     12  C   UNL     1      -1.002  -1.371   6.739  0.00  0.00    +0.082 A 
ATOM     13  N   UNL     1      -2.039  -1.031   5.922  0.00  0.00    -0.274 N 
ATOM     14  C   UNL     1      -3.282  -0.938   6.447  0.00  0.00    +0.268 A 
ATOM     15  O   UNL     1      -4.219  -0.632   5.734  0.00  0.00    -0.267 OA
ATOM     16  C   UNL     1      -3.505  -1.206   7.876  0.00  0.00    +0.094 A 
ATOM     17  C   UNL     1      -2.421  -1.562   8.714  0.00  0.00    +0.016 A 
ATOM     18  C   UNL     1      -2.631  -1.816  10.059  0.00  0.00    +0.014 A 
ATOM     19  C   UNL     1      -3.905  -1.724  10.588  0.00  0.00    +0.050 A 
ATOM     20  C   UNL     1      -4.978  -1.379   9.778  0.00  0.00    +0.162 A 
ATOM     21  C   UNL     1      -4.788  -1.116   8.426  0.00  0.00    +0.174 A 
ATOM     22  H   UNL     1      -0.022  -2.153   9.704  0.00  0.00    +0.165 HD
ENDROOT
BRANCH  21  23
ATOM     23  O   UNL     1      -5.844  -0.778   7.642  0.00  0.00    -0.491 OA
ATOM     24  C   UNL     1      -6.548  -1.846   7.005  0.00  0.00    +0.277 C 
ENDBRANCH  21  23
BRANCH  20  25
ATOM     25  O   UNL     1      -6.225  -1.293  10.313  0.00  0.00    -0.491 OA
ATOM     26  C   UNL     1      -6.353  -1.571  11.709  0.00  0.00    +0.277 C 
ENDBRANCH  20  25
BRANCH   1  27
ATOM     27  O   UNL     1       0.693  -0.477   1.160  0.00  0.00    -0.480 OA
BRANCH  27  29
ATOM     28  C   UNL     1      -0.293   1.273  -0.184  0.00  0.00    +0.062 C 
ATOM     29  C   UNL     1      -0.034  -0.229  -0.045  0.00  0.00    +0.255 C 
BRANCH  29  30
ATOM     30  C   UNL     1       0.769  -0.712  -1.225  0.00  0.00    +0.254 C 
ATOM     31  O   UNL     1       1.893  -1.135  -1.061  0.00  0.00    -0.272 OA
ATOM     32  N   UNL     1       0.237  -0.673  -2.463  0.00  0.00    -0.310 N 
ATOM     33  H   UNL     1      -0.662  -0.334  -2.594  0.00  0.00    +0.149 HD
BRANCH  32  34
ATOM     34  C   UNL     1       1.018  -1.142  -3.611  0.00  0.00    +0.067 C 
ATOM     35  C   UNL     1       0.069  -1.582  -4.727  0.00  0.00    +0.027 C 
ATOM     36  C   UNL     1       1.911  -0.008  -4.118  0.00  0.00    +0.027 C 
ENDBRANCH  32  34
ENDBRANCH  29  30
ENDBRANCH  27  29
ENDBRANCH   1  27
TORSDOF 6
