REMARK  Name = ZINC13568280
REMARK  14 active torsions:
REMARK  status: ('A' for Active; 'I' for Inactive)
REMARK    1  A    between atoms: C_1  and  C_2
REMARK    2  A    between atoms: C_9  and  C_15
REMARK    3  A    between atoms: C_15  and  N_16
REMARK    4  A    between atoms: N_16  and  C_17
REMARK    5  A    between atoms: N_16  and  C_24
REMARK    6  A    between atoms: C_17  and  C_18
REMARK    7  A    between atoms: C_18  and  C_19
REMARK    8  A    between atoms: C_18  and  C_20
REMARK    9  A    between atoms: C_18  and  C_21
REMARK   10  A    between atoms: C_21  and  N_64
REMARK   11  A    between atoms: C_22  and  N_64
REMARK   12  A    between atoms: C_23  and  N_64
REMARK   13  A    between atoms: C_24  and  N_26
REMARK   14  A    between atoms: N_26  and  C_27
REMARK                            x       y       z     vdW  Elec       q    Type
REMARK                         _______ _______ _______ _____ _____    ______ ____
ROOT
ATOM      1  N   UNL     1      -3.580   0.285   0.928  0.00  0.00    -0.308 N 
ENDROOT
BRANCH   1   2
ATOM      2  C   UNL     1      -2.872   1.409   1.154  0.00  0.00    +0.137 C 
ATOM      3  S   UNL     1      -3.618   2.753   1.909  0.00  0.00    -0.018 S 
BRANCH   2   4
ATOM      4  N   UNL     1      -1.578   1.476   0.785  0.00  0.00    -0.297 N 
ATOM      5  H   UNL     1      -1.177   0.748   0.286  0.00  0.00    +0.154 HD
BRANCH   4   6
ATOM      6  C   UNL     1      -0.813   2.599   1.118  0.00  0.00    +0.033 A 
ATOM      7  C   UNL     1       0.082   3.130   0.198  0.00  0.00    +0.023 A 
ATOM      8  C   UNL     1       0.832   4.241   0.527  0.00  0.00    +0.002 A 
ATOM      9  C   UNL     1       0.701   4.820   1.777  0.00  0.00    +0.000 A 
ATOM     10  C   UNL     1      -0.185   4.291   2.697  0.00  0.00    +0.002 A 
ATOM     11  C   UNL     1      -0.942   3.183   2.372  0.00  0.00    +0.023 A 
ENDBRANCH   4   6
ENDBRANCH   2   4
ENDBRANCH   1   2
BRANCH   1  12
ATOM     12  C   UNL     1      -4.987   0.212   1.329  0.00  0.00    +0.145 C 
BRANCH  12  21
ATOM     13  C   UNL     1      -9.093   5.454  -2.022  0.00  0.00    +0.044 C 
ATOM     14  C   UNL     1      -8.517   4.062  -1.989  0.00  0.00    -0.050 A 
ATOM     15  C   UNL     1      -8.787   3.180  -3.026  0.00  0.00    +0.005 A 
ATOM     16  C   UNL     1      -8.271   1.903  -3.015  0.00  0.00    +0.029 A 
ATOM     17  C   UNL     1      -7.469   1.490  -1.956  0.00  0.00    +0.077 A 
ATOM     18  C   UNL     1      -7.197   2.387  -0.906  0.00  0.00    +0.001 A 
ATOM     19  C   UNL     1      -7.732   3.679  -0.938  0.00  0.00    +0.013 A 
ATOM     20  C   UNL     1      -6.358   1.944   0.209  0.00  0.00    +0.019 A 
ATOM     21  C   UNL     1      -5.858   0.687   0.194  0.00  0.00    +0.016 A 
ATOM     22  C   UNL     1      -6.153  -0.186  -0.878  0.00  0.00    +0.184 A 
ATOM     23  N   UNL     1      -6.939   0.219  -1.918  0.00  0.00    -0.192 N 
ATOM     24  N   UNL     1      -7.017  -0.885  -2.780  0.00  0.00    -0.039 NA
ATOM     25  N   UNL     1      -6.319  -1.828  -2.245  0.00  0.00    -0.022 NA
ATOM     26  N   UNL     1      -5.806  -1.440  -1.133  0.00  0.00    -0.108 NA
ENDBRANCH  12  21
ENDBRANCH   1  12
BRANCH   1  27
ATOM     27  C   UNL     1      -2.942  -0.865   0.282  0.00  0.00    +0.111 C 
BRANCH  27  28
ATOM     28  C   UNL     1      -2.326  -1.772   1.349  0.00  0.00    -0.034 C 
ATOM     29  C   UNL     1      -1.280  -0.988   2.143  0.00  0.00    +0.010 C 
ATOM     30  C   UNL     1      -3.423  -2.263   2.296  0.00  0.00    +0.010 C 
BRANCH  28  31
ATOM     31  C   UNL     1      -1.660  -2.973   0.675  0.00  0.00    -0.072 C 
BRANCH  31  34
ATOM     32  C   UNL     1      -1.055  -5.250   1.231  0.00  0.00    -0.097 C 
ATOM     33  C   UNL     1       0.242  -3.404   2.110  0.00  0.00    -0.097 C 
ATOM     34  N   UNL     1      -1.110  -3.858   1.723  0.00  0.00    +0.376 N 
ATOM     35  H   UNL     1      -1.723  -3.819   2.547  0.00  0.00    -0.083 HD
ENDBRANCH  31  34
ENDBRANCH  28  31
ENDBRANCH  27  28
ENDBRANCH   1  27
TORSDOF 9
