REMARK  Name = ZINC39464154
REMARK  4 active torsions:
REMARK  status: ('A' for Active; 'I' for Inactive)
REMARK    1  A    between atoms: C_1  and  S_2
REMARK    2  A    between atoms: S_2  and  C_3
REMARK    3  A    between atoms: P_17  and  C_20
REMARK    4  A    between atoms: C_20  and  C_21
REMARK                            x       y       z     vdW  Elec       q    Type
REMARK                         _______ _______ _______ _____ _____    ______ ____
ROOT
ATOM      1  C   UNL     1       0.848  -0.411  -1.489  0.00  0.00    +0.021 A 
ATOM      2  C   UNL     1       1.315   0.596  -2.322  0.00  0.00    +0.021 A 
ATOM      3  C   UNL     1       1.981   0.281  -3.496  0.00  0.00    -0.022 A 
ATOM      4  C   UNL     1       2.180  -1.041  -3.836  0.00  0.00    -0.040 A 
ATOM      5  C   UNL     1       1.714  -2.050  -3.006  0.00  0.00    +0.019 A 
ATOM      6  C   UNL     1       1.056  -1.741  -1.833  0.00  0.00    +0.027 A 
ATOM      7  I   UNL     1       0.367  -3.272  -0.580  0.00  0.00    -0.043 I 
ATOM      8  C   UNL     1       2.901  -1.427  -5.102  0.00  0.00    +0.052 C 
ATOM      9  C   UNL     1       2.915  -0.242  -6.068  0.00  0.00    +0.108 C 
ATOM     10  N   UNL     1       3.428   0.940  -5.360  0.00  0.00    -0.226 NA
ATOM     11  C   UNL     1       2.466   1.412  -4.364  0.00  0.00    +0.129 C 
ATOM     12  C   UNL     1       3.083   2.496  -3.475  0.00  0.00    +0.194 C 
ATOM     13  O   UNL     1       3.437   3.624  -4.299  0.00  0.00    -0.314 OA
ATOM     14  P   UNL     1       4.307   3.351  -5.646  0.00  0.00    +0.289 P 
ATOM     15  O   UNL     1       5.742   3.219  -5.309  0.00  0.00    -0.271 OA
ATOM     16  N   UNL     1       3.733   1.931  -6.267  0.00  0.00    -0.179 NA
ATOM     17  H   UNL     1       3.616   1.802  -7.221  0.00  0.00    +0.151 HD
ENDROOT
BRANCH   1  19
ATOM     18  C   UNL     1      -0.022   1.810   0.012  0.00  0.00    +0.090 C 
ATOM     19  S   UNL     1       0.002  -0.004   0.002  0.00  0.00    -0.128 S 
ENDBRANCH   1  19
BRANCH  14  20
ATOM     20  C   UNL     1       4.064   4.708  -6.838  0.00  0.00    +0.150 C 
BRANCH  20  21
ATOM     21  C   UNL     1       4.510   6.008  -6.218  0.00  0.00    -0.037 A 
ATOM     22  C   UNL     1       3.610   6.777  -5.504  0.00  0.00    +0.004 A 
ATOM     23  C   UNL     1       4.018   7.969  -4.935  0.00  0.00    +0.000 A 
ATOM     24  C   UNL     1       5.326   8.391  -5.080  0.00  0.00    +0.000 A 
ATOM     25  C   UNL     1       6.226   7.622  -5.794  0.00  0.00    +0.000 A 
ATOM     26  C   UNL     1       5.819   6.428  -6.359  0.00  0.00    +0.004 A 
ENDBRANCH  20  21
ENDBRANCH  14  20
TORSDOF 3
