REMARK  Name = ZINC27697124
REMARK  11 active torsions:
REMARK  status: ('A' for Active; 'I' for Inactive)
REMARK    1  A    between atoms: C_4  and  C_7
REMARK    2  A    between atoms: C_7  and  N_8
REMARK    3  A    between atoms: N_8  and  C_9
REMARK    4  A    between atoms: N_8  and  C_36
REMARK    5  A    between atoms: C_9  and  C_10
REMARK    6  A    between atoms: C_10  and  C_12
REMARK    7  A    between atoms: C_10  and  O_35
REMARK    8  A    between atoms: C_12  and  N_13
REMARK    9  A    between atoms: C_21  and  C_22
REMARK   10  A    between atoms: C_22  and  C_23
REMARK   11  A    between atoms: C_26  and  C_29
REMARK                            x       y       z     vdW  Elec       q    Type
REMARK                         _______ _______ _______ _____ _____    ______ ____
ROOT
ATOM      1  N   UNL     1       2.314   3.718   0.276  0.00  0.00    -0.325 N 
ATOM      2  C   UNL     1       1.416   2.670   0.272  0.00  0.00    +0.069 A 
ATOM      3  C   UNL     1       1.540   1.291   0.162  0.00  0.00    +0.028 A 
ATOM      4  C   UNL     1       0.412   0.500   0.196  0.00  0.00    +0.002 A 
ATOM      5  C   UNL     1      -0.845   1.072   0.333  0.00  0.00    +0.002 A 
ATOM      6  C   UNL     1      -0.985   2.426   0.449  0.00  0.00    +0.030 A 
ATOM      7  C   UNL     1       0.144   3.248   0.417  0.00  0.00    +0.089 A 
ATOM      8  N   UNL     1       0.327   4.591   0.500  0.00  0.00    -0.232 NA
ATOM      9  C   UNL     1       1.597   4.865   0.417  0.00  0.00    +0.115 A 
ENDROOT
BRANCH   1  10
ATOM     10  C   UNL     1       3.770   3.615   0.151  0.00  0.00    +0.153 C 
BRANCH  10  11
ATOM     11  C   UNL     1       4.162   3.683  -1.326  0.00  0.00    +0.118 C 
BRANCH  11  12
ATOM     12  O   UNL     1       3.642   2.541  -2.010  0.00  0.00    -0.392 OA
ATOM     13  H   UNL     1       2.557   2.359  -2.031  0.00  0.00    +0.210 HD
ENDBRANCH  11  12
BRANCH  11  14
ATOM     14  C   UNL     1       5.687   3.701  -1.450  0.00  0.00    -0.045 C 
BRANCH  14  15
ATOM     15  N   UNL     1       6.064   3.646  -2.868  0.00  0.00    +0.386 N 
ATOM     16  H   UNL     1       5.419   2.904  -3.361  0.00  0.00    -0.081 HD
BRANCH  15  17
ATOM     17  C   UNL     1       5.843   4.942  -3.522  0.00  0.00    -0.068 C 
ATOM     18  C   UNL     1       6.048   6.068  -2.506  0.00  0.00    -0.015 C 
ATOM     19  C   UNL     1       5.817   7.418  -3.188  0.00  0.00    -0.002 C 
ATOM     20  C   UNL     1       4.388   7.477  -3.733  0.00  0.00    -0.000 C 
ATOM     21  C   UNL     1       4.183   6.352  -4.748  0.00  0.00    -0.002 C 
ATOM     22  C   UNL     1       4.414   5.001  -4.067  0.00  0.00    -0.015 C 
ENDBRANCH  15  17
BRANCH  15  23
ATOM     23  C   UNL     1       7.457   3.208  -3.026  0.00  0.00    -0.043 C 
BRANCH  23  27
ATOM     24  C   UNL     1       8.112   1.964  -7.059  0.00  0.00    +0.000 A 
ATOM     25  C   UNL     1       8.447   3.247  -6.669  0.00  0.00    +0.000 A 
ATOM     26  C   UNL     1       8.235   3.649  -5.364  0.00  0.00    +0.002 A 
ATOM     27  C   UNL     1       7.688   2.769  -4.449  0.00  0.00    -0.064 A 
ATOM     28  C   UNL     1       7.358   1.484  -4.838  0.00  0.00    +0.002 A 
ATOM     29  C   UNL     1       7.565   1.083  -6.145  0.00  0.00    +0.000 A 
ENDBRANCH  23  27
ENDBRANCH  15  23
ENDBRANCH  14  15
ENDBRANCH  11  14
ENDBRANCH  10  11
ENDBRANCH   1  10
BRANCH   9  30
ATOM     30  C   UNL     1       2.186   6.251   0.470  0.00  0.00    +0.109 C 
BRANCH  30  31
ATOM     31  C   UNL     1       2.497   6.611   1.900  0.00  0.00    -0.040 A 
ATOM     32  C   UNL     1       1.541   7.243   2.675  0.00  0.00    +0.004 A 
ATOM     33  C   UNL     1       1.819   7.570   3.987  0.00  0.00    +0.009 A 
ATOM     34  C   UNL     1       3.068   7.272   4.527  0.00  0.00    -0.018 A 
ATOM     35  C   UNL     1       4.029   6.639   3.740  0.00  0.00    +0.009 A 
ATOM     36  C   UNL     1       3.739   6.312   2.431  0.00  0.00    +0.004 A 
BRANCH  34  37
ATOM     37  C   UNL     1       3.375   7.626   5.935  0.00  0.00    -0.018 A 
ATOM     38  C   UNL     1       4.623   7.323   6.477  0.00  0.00    +0.008 A 
ATOM     39  C   UNL     1       4.904   7.660   7.785  0.00  0.00    +0.001 A 
ATOM     40  C   UNL     1       3.947   8.287   8.562  0.00  0.00    +0.000 A 
ATOM     41  C   UNL     1       2.705   8.586   8.031  0.00  0.00    +0.001 A 
ATOM     42  C   UNL     1       2.414   8.258   6.722  0.00  0.00    +0.008 A 
ENDBRANCH  34  37
ENDBRANCH  30  31
ENDBRANCH   9  30
TORSDOF 11
