REMARK  Name = ZINC59154196
REMARK  6 active torsions:
REMARK  status: ('A' for Active; 'I' for Inactive)
REMARK    1  A    between atoms: C_1  and  C_2
REMARK    2  A    between atoms: N_12  and  N_13
REMARK    3  A    between atoms: C_14  and  C_16
REMARK    4  A    between atoms: C_16  and  C_18
REMARK    5  A    between atoms: C_16  and  O_19
REMARK    6  A    between atoms: O_19  and  C_20
REMARK                            x       y       z     vdW  Elec       q    Type
REMARK                         _______ _______ _______ _____ _____    ______ ____
ROOT
ATOM      1  N   UNL     1      -0.205  -4.063   4.407  0.00  0.00    -0.203 N 
ATOM      2  C   UNL     1      -0.148  -5.322   4.886  0.00  0.00    +0.273 C 
ATOM      3  O   UNL     1      -0.307  -6.262   4.138  0.00  0.00    -0.270 OA
ATOM      4  H   UNL     1      -0.077  -3.310   5.006  0.00  0.00    +0.177 HD
ENDROOT
BRANCH   1  16
ATOM      5  C   UNL     1      -0.888   1.393  -0.038  0.00  0.00    +0.045 C 
ATOM      6  C   UNL     1      -0.920  -0.114  -0.015  0.00  0.00    -0.029 A 
ATOM      7  C   UNL     1      -1.149  -0.816  -1.181  0.00  0.00    +0.005 A 
ATOM      8  C   UNL     1      -1.181  -2.200  -1.176  0.00  0.00    +0.001 A 
ATOM      9  C   UNL     1      -0.982  -2.893   0.003  0.00  0.00    +0.012 A 
ATOM     10  C   UNL     1      -0.750  -2.194   1.182  0.00  0.00    +0.028 A 
ATOM     11  C   UNL     1      -0.712  -0.794   1.180  0.00  0.00    +0.046 A 
ATOM     12  N   UNL     1      -0.460  -0.339   2.470  0.00  0.00    -0.279 N 
ATOM     13  C   UNL     1      -0.322  -1.360   3.333  0.00  0.00    +0.269 C 
ATOM     14  O   UNL     1      -0.098  -1.264   4.525  0.00  0.00    -0.268 OA
ATOM     15  C   UNL     1      -0.504  -2.618   2.580  0.00  0.00    +0.153 C 
ATOM     16  N   UNL     1      -0.449  -3.842   3.045  0.00  0.00    -0.174 NA
ATOM     17  H   UNL     1      -0.392   0.597   2.715  0.00  0.00    +0.155 HD
ENDBRANCH   1  16
BRANCH   2  18
ATOM     18  C   UNL     1       0.114  -5.560   6.351  0.00  0.00    +0.257 C 
ATOM     19  C   UNL     1      -1.051  -5.007   7.174  0.00  0.00    +0.062 C 
BRANCH  18  20
ATOM     20  O   UNL     1       0.243  -6.963   6.590  0.00  0.00    -0.478 OA
BRANCH  20  21
ATOM     21  C   UNL     1       0.968  -7.339   7.677  0.00  0.00    +0.140 A 
ATOM     22  C   UNL     1       1.447  -6.381   8.558  0.00  0.00    +0.048 A 
ATOM     23  C   UNL     1       2.183  -6.766   9.662  0.00  0.00    +0.023 A 
ATOM     24  C   UNL     1       2.442  -8.106   9.889  0.00  0.00    +0.043 A 
ATOM     25  C   UNL     1       1.966  -9.064   9.012  0.00  0.00    +0.043 A 
ATOM     26  C   UNL     1       1.224  -8.684   7.909  0.00  0.00    +0.084 A 
ATOM     27 CL   UNL     1       0.620  -9.886   6.812  0.00  0.00    -0.080 Cl
ATOM     28 CL   UNL     1       3.368  -8.586  11.278  0.00  0.00    -0.083 Cl
ENDBRANCH  20  21
ENDBRANCH  18  20
ENDBRANCH   2  18
TORSDOF 4
