REMARK  Name = ZINC36116221
REMARK  14 active torsions:
REMARK  status: ('A' for Active; 'I' for Inactive)
REMARK    1  A    between atoms: C_1  and  C_2
REMARK    2  A    between atoms: C_2  and  C_3
REMARK    3  A    between atoms: N_9  and  C_10
REMARK    4  A    between atoms: C_10  and  C_11
REMARK    5  A    between atoms: C_11  and  C_12
REMARK    6  A    between atoms: C_12  and  N_13
REMARK    7  A    between atoms: C_14  and  C_16
REMARK    8  A    between atoms: C_16  and  N_17
REMARK    9  A    between atoms: N_17  and  C_18
REMARK   10  A    between atoms: N_17  and  S_27
REMARK   11  A    between atoms: C_21  and  O_24
REMARK   12  A    between atoms: O_24  and  C_25
REMARK   13  A    between atoms: C_25  and  C_26
REMARK   14  A    between atoms: S_27  and  C_30
REMARK                            x       y       z     vdW  Elec       q    Type
REMARK                         _______ _______ _______ _____ _____    ______ ____
ROOT
ATOM      1  N   UNL     1      -4.283   6.198  -6.282  0.00  0.00    -0.194 N 
ENDROOT
BRANCH   1   2
ATOM      2  C   UNL     1      -3.166   6.793  -6.879  0.00  0.00    +0.052 A 
ATOM      3  C   UNL     1      -2.995   8.169  -6.817  0.00  0.00    +0.028 A 
ATOM      4  C   UNL     1      -1.892   8.755  -7.406  0.00  0.00    +0.047 A 
ATOM      5  C   UNL     1      -0.955   7.969  -8.060  0.00  0.00    +0.121 A 
ATOM      6  C   UNL     1      -1.125   6.593  -8.123  0.00  0.00    +0.047 A 
ATOM      7  C   UNL     1      -2.225   6.005  -7.529  0.00  0.00    +0.028 A 
BRANCH   5   8
ATOM      8  O   UNL     1       0.131   8.546  -8.640  0.00  0.00    -0.492 OA
BRANCH   8   9
ATOM      9  C   UNL     1       1.056   7.676  -9.296  0.00  0.00    +0.225 C 
ATOM     10  C   UNL     1       2.203   8.501  -9.883  0.00  0.00    +0.048 C 
ENDBRANCH   8   9
ENDBRANCH   5   8
ENDBRANCH   1   2
BRANCH   1  11
ATOM     11  S   UNL     1      -5.682   7.065  -6.095  0.00  0.00    +0.075 S 
ATOM     12  O   UNL     1      -5.637   8.119  -7.047  0.00  0.00    -0.150 OA
ATOM     13  O   UNL     1      -6.743   6.121  -6.053  0.00  0.00    -0.150 OA
BRANCH  11  14
ATOM     14  C   UNL     1      -5.617   7.821  -4.504  0.00  0.00    +0.109 A 
ATOM     15  C   UNL     1      -6.000   7.107  -3.384  0.00  0.00    +0.030 A 
ATOM     16  C   UNL     1      -5.949   7.699  -2.136  0.00  0.00    +0.022 A 
ATOM     17  C   UNL     1      -5.516   9.006  -2.008  0.00  0.00    +0.041 A 
ATOM     18  C   UNL     1      -5.133   9.720  -3.130  0.00  0.00    +0.022 A 
ATOM     19  C   UNL     1      -5.178   9.126  -4.376  0.00  0.00    +0.030 A 
ATOM     20 CL   UNL     1      -5.453   9.751  -0.441  0.00  0.00    -0.084 Cl
ENDBRANCH  11  14
ENDBRANCH   1  11
BRANCH   1  21
ATOM     21  C   UNL     1      -4.216   4.809  -5.822  0.00  0.00    +0.227 C 
BRANCH  21  23
ATOM     22  N   UNL     1      -3.474   3.585  -3.805  0.00  0.00    -0.314 N 
ATOM     23  C   UNL     1      -3.632   4.766  -4.434  0.00  0.00    +0.232 C 
ATOM     24  O   UNL     1      -3.304   5.796  -3.883  0.00  0.00    -0.274 OA
ATOM     25  H   UNL     1      -3.736   2.762  -4.246  0.00  0.00    +0.149 HD
BRANCH  22  26
ATOM     26  C   UNL     1      -2.906   3.544  -2.455  0.00  0.00    +0.102 C 
BRANCH  26  27
ATOM     27  C   UNL     1      -2.835   2.093  -1.975  0.00  0.00    +0.000 C 
BRANCH  27  28
ATOM     28  C   UNL     1      -2.242   2.050  -0.566  0.00  0.00    -0.077 C 
BRANCH  28  34
ATOM     29  C   UNL     1      -1.502   0.606   1.199  0.00  0.00    -0.069 C 
ATOM     30  C   UNL     1      -1.357  -0.850   1.645  0.00  0.00    -0.015 C 
ATOM     31  C   UNL     1      -2.746  -1.484   1.760  0.00  0.00    -0.003 C 
ATOM     32  C   UNL     1      -3.467  -1.359   0.415  0.00  0.00    -0.019 C 
ATOM     33  C   UNL     1      -3.534   0.117   0.014  0.00  0.00    -0.078 C 
ATOM     34  N   UNL     1      -2.175   0.657  -0.105  0.00  0.00    +0.382 N 
ATOM     35  H   UNL     1      -1.653   0.109  -0.773  0.00  0.00    -0.081 HD
BRANCH  29  37
ATOM     36  C   UNL     1       0.554   1.263   2.458  0.00  0.00    +0.002 C 
ATOM     37  C   UNL     1      -0.116   1.244   1.082  0.00  0.00    -0.019 C 
ENDBRANCH  29  37
ENDBRANCH  28  34
ENDBRANCH  27  28
ENDBRANCH  26  27
ENDBRANCH  22  26
ENDBRANCH  21  23
ENDBRANCH   1  21
TORSDOF 12
