REMARK  Name = ZINC09207024
REMARK  11 active torsions:
REMARK  status: ('A' for Active; 'I' for Inactive)
REMARK    1  A    between atoms: C_1  and  C_2
REMARK    2  A    between atoms: C_3  and  C_31
REMARK    3  A    between atoms: C_4  and  C_30
REMARK    4  A    between atoms: C_7  and  C_8
REMARK    5  A    between atoms: C_8  and  C_10
REMARK    6  A    between atoms: C_10  and  C_12
REMARK    7  A    between atoms: C_10  and  S_13
REMARK    8  A    between atoms: S_13  and  C_14
REMARK    9  A    between atoms: C_17  and  C_25
REMARK   10  A    between atoms: N_18  and  C_19
REMARK   11  A    between atoms: C_31  and  C_33
REMARK                            x       y       z     vdW  Elec       q    Type
REMARK                         _______ _______ _______ _____ _____    ______ ____
ROOT
ATOM      1  S   UNL     1      -2.097   8.691   3.698  0.00  0.00    -0.074 S 
ENDROOT
BRANCH   1   2
ATOM      2  C   UNL     1      -1.476  10.208   3.051  0.00  0.00    +0.197 A 
ATOM      3  N   UNL     1      -0.487  10.344   2.196  0.00  0.00    -0.122 NA
ATOM      4  N   UNL     1      -0.295  11.587   1.933  0.00  0.00    -0.125 NA
ATOM      5  C   UNL     1      -1.146  12.327   2.611  0.00  0.00    +0.205 A 
ATOM      6  N   UNL     1      -1.930  11.465   3.350  0.00  0.00    -0.268 N 
BRANCH   6   7
ATOM      7  C   UNL     1      -2.973  11.805   4.223  0.00  0.00    +0.051 A 
ATOM      8  C   UNL     1      -4.122  12.409   3.731  0.00  0.00    +0.026 A 
ATOM      9  C   UNL     1      -5.150  12.738   4.593  0.00  0.00    +0.002 A 
ATOM     10  C   UNL     1      -5.031  12.475   5.945  0.00  0.00    +0.000 A 
ATOM     11  C   UNL     1      -3.886  11.877   6.439  0.00  0.00    +0.002 A 
ATOM     12  C   UNL     1      -2.856  11.542   5.581  0.00  0.00    +0.026 A 
ENDBRANCH   6   7
BRANCH   5  13
ATOM     13  C   UNL     1      -1.242  13.794   2.587  0.00  0.00    +0.172 A 
ATOM     14  C   UNL     1      -0.300  14.650   2.098  0.00  0.00    +0.053 A 
ATOM     15  C   UNL     1      -0.806  15.952   2.274  0.00  0.00    +0.042 A 
ATOM     16  C   UNL     1      -2.013  15.832   2.862  0.00  0.00    +0.196 A 
ATOM     17  O   UNL     1      -2.273  14.528   3.050  0.00  0.00    -0.460 OA
ENDBRANCH   5  13
ENDBRANCH   1   2
BRANCH   1  18
ATOM     18  C   UNL     1      -1.011   7.519   2.848  0.00  0.00    +0.124 C 
ATOM     19  C   UNL     1       0.430   7.724   3.319  0.00  0.00    +0.028 C 
BRANCH  18  20
ATOM     20  C   UNL     1      -1.447   6.111   3.163  0.00  0.00    +0.192 C 
ATOM     21  O   UNL     1      -2.056   5.879   4.188  0.00  0.00    -0.289 OA
BRANCH  20  28
ATOM     22  C   UNL     1      -2.236   3.136   3.591  0.00  0.00    +0.047 C 
ATOM     23  C   UNL     1      -1.484   3.734   2.430  0.00  0.00    -0.012 A 
ATOM     24  C   UNL     1      -0.989   3.043   1.301  0.00  0.00    +0.041 A 
ATOM     25  C   UNL     1      -0.361   3.979   0.492  0.00  0.00    +0.024 A 
ATOM     26  N   UNL     1      -0.464   5.183   1.071  0.00  0.00    -0.355 N 
ATOM     27  H   UNL     1      -0.033   6.068   0.580  0.00  0.00    +0.166 HD
ATOM     28  C   UNL     1      -1.147   5.059   2.265  0.00  0.00    +0.087 A 
ATOM     29  C   UNL     1       0.321   3.691  -0.821  0.00  0.00    +0.064 C 
BRANCH  24  30
ATOM     30  C   UNL     1      -1.110   1.605   1.037  0.00  0.00    +0.162 C 
ATOM     31  O   UNL     1      -0.243   0.844   1.412  0.00  0.00    -0.292 OA
ATOM     32  C   UNL     1      -2.312   1.073   0.300  0.00  0.00    +0.091 C 
ENDBRANCH  24  30
ENDBRANCH  20  28
ENDBRANCH  18  20
ENDBRANCH   1  18
TORSDOF 7
