REMARK  Name = ZINC58993639
REMARK  8 active torsions:
REMARK  status: ('A' for Active; 'I' for Inactive)
REMARK    1  A    between atoms: C_1  and  C_2
REMARK    2  A    between atoms: C_4  and  N_9
REMARK    3  A    between atoms: C_10  and  C_12
REMARK    4  A    between atoms: C_12  and  S_13
REMARK    5  A    between atoms: S_13  and  C_14
REMARK    6  A    between atoms: N_19  and  N_20
REMARK    7  A    between atoms: C_21  and  C_22
REMARK    8  A    between atoms: C_25  and  N_28
REMARK                            x       y       z     vdW  Elec       q    Type
REMARK                         _______ _______ _______ _____ _____    ______ ____
ROOT
ATOM      1  C   UNL     1       0.537  -7.345  -5.022  0.00  0.00    +0.211 A 
ATOM      2  N   UNL     1       0.658  -8.650  -5.285  0.00  0.00    -0.186 NA
ATOM      3  C   UNL     1       0.727  -8.835  -6.587  0.00  0.00    +0.232 A 
ATOM      4  N   UNL     1       0.650  -7.627  -7.184  0.00  0.00    -0.245 N 
ATOM      5  N   UNL     1       0.522  -6.682  -6.154  0.00  0.00    -0.144 NA
ATOM      6  N   UNL     1       0.857 -10.053  -7.229  0.00  0.00    -0.205 N 
ATOM      7  H   UNL     1       0.900 -10.089  -8.197  0.00  0.00    +0.177 HD
ATOM      8  H   UNL     1       0.674  -7.448  -8.137  0.00  0.00    +0.192 HD
ENDROOT
BRANCH   6   9
ATOM      9  N   UNL     1       0.926 -11.236  -6.481  0.00  0.00    -0.188 NA
ATOM     10  C   UNL     1       1.047 -12.379  -7.083  0.00  0.00    +0.138 C 
BRANCH  10  11
ATOM     11  C   UNL     1       1.119 -13.624  -6.296  0.00  0.00    -0.005 A 
ATOM     12  C   UNL     1       1.052 -13.577  -4.901  0.00  0.00    +0.012 A 
ATOM     13  C   UNL     1       1.120 -14.745  -4.171  0.00  0.00    +0.033 A 
ATOM     14  C   UNL     1       1.256 -15.961  -4.817  0.00  0.00    +0.126 A 
ATOM     15  C   UNL     1       1.324 -16.015  -6.198  0.00  0.00    +0.033 A 
ATOM     16  C   UNL     1       1.250 -14.856  -6.941  0.00  0.00    +0.012 A 
BRANCH  14  17
ATOM     17  N   UNL     1       1.329 -17.211  -4.026  0.00  0.00    +0.056 N 
ATOM     18  O   UNL     1       1.271 -17.167  -2.820  0.00  0.00    -0.126 OA
ATOM     19  O   UNL     1       1.448 -18.276  -4.587  0.00  0.00    -0.126 OA
ENDBRANCH  14  17
ENDBRANCH  10  11
ENDBRANCH   6   9
BRANCH   1  20
ATOM     20  S   UNL     1       0.411  -6.631  -3.416  0.00  0.00    -0.075 S 
BRANCH  20  21
ATOM     21  C   UNL     1       0.265  -4.851  -3.737  0.00  0.00    +0.173 C 
BRANCH  21  23
ATOM     22  N   UNL     1       0.028  -2.771  -2.420  0.00  0.00    -0.285 N 
ATOM     23  C   UNL     1       0.148  -4.113  -2.428  0.00  0.00    +0.227 C 
ATOM     24  O   UNL     1       0.162  -4.727  -1.382  0.00  0.00    -0.275 OA
ATOM     25  H   UNL     1      -0.060  -2.287  -3.256  0.00  0.00    +0.155 HD
BRANCH  22  29
ATOM     26  C   UNL     1       1.619  -2.350   2.213  0.00  0.00    +0.045 C 
ATOM     27  C   UNL     1       0.793  -1.849   1.057  0.00  0.00    -0.035 A 
ATOM     28  C   UNL     1       0.792  -2.538  -0.141  0.00  0.00    +0.027 A 
ATOM     29  C   UNL     1       0.030  -2.075  -1.206  0.00  0.00    +0.034 A 
ATOM     30  C   UNL     1      -0.729  -0.921  -1.063  0.00  0.00    +0.024 A 
ATOM     31  C   UNL     1      -0.724  -0.236   0.136  0.00  0.00    +0.017 A 
ATOM     32  C   UNL     1       0.032  -0.703   1.197  0.00  0.00    +0.021 A 
ATOM     33 BR   UNL     1       0.029   0.233   2.841  0.00  0.00    -0.050 Br
ENDBRANCH  22  29
ENDBRANCH  21  23
ENDBRANCH  20  21
ENDBRANCH   1  20
TORSDOF 7
