REMARK  Name = ZINC66161289
REMARK  5 active torsions:
REMARK  status: ('A' for Active; 'I' for Inactive)
REMARK    1  A    between atoms: C_1  and  C_2
REMARK    2  A    between atoms: C_4  and  C_22
REMARK    3  A    between atoms: C_7  and  N_8
REMARK    4  A    between atoms: C_14  and  N_17
REMARK    5  A    between atoms: C_29  and  C_31
REMARK                            x       y       z     vdW  Elec       q    Type
REMARK                         _______ _______ _______ _____ _____    ______ ____
ROOT
ATOM      1  C   UNL     1       1.835   1.562  -0.781  0.00  0.00    +0.045 C 
ATOM      2  C   UNL     1       1.267   0.179  -0.599  0.00  0.00    -0.028 A 
ATOM      3  C   UNL     1       1.114  -0.651  -1.687  0.00  0.00    +0.018 A 
ATOM      4  C   UNL     1       0.588  -1.934  -1.516  0.00  0.00    +0.037 A 
ATOM      5  C   UNL     1       0.218  -2.371  -0.241  0.00  0.00    +0.015 A 
ATOM      6  C   UNL     1       0.373  -1.536   0.842  0.00  0.00    +0.024 A 
ATOM      7  C   UNL     1       0.903  -0.261   0.670  0.00  0.00    +0.038 A 
ENDROOT
BRANCH   7   8
ATOM      8  N   UNL     1       1.065   0.580   1.770  0.00  0.00    -0.269 N 
ATOM      9  C   UNL     1       0.252   0.455   2.838  0.00  0.00    +0.306 C 
ATOM     10  O   UNL     1      -0.575  -0.435   2.873  0.00  0.00    -0.252 OA
ATOM     11  N   UNL     1       0.356   1.318   3.869  0.00  0.00    -0.287 N 
ATOM     12  C   UNL     1       1.302   2.440   3.954  0.00  0.00    +0.108 C 
ATOM     13  C   UNL     1       1.075   3.129   5.316  0.00  0.00    +0.005 C 
ATOM     14  C   UNL     1       0.402   2.014   6.161  0.00  0.00    -0.049 C 
ATOM     15  C   UNL     1      -0.465   1.298   5.093  0.00  0.00    +0.094 C 
ATOM     16  H   UNL     1       1.762   1.254   1.768  0.00  0.00    +0.156 HD
BRANCH  14  17
ATOM     17  N   UNL     1      -0.439   2.591   7.219  0.00  0.00    +0.383 N 
ATOM     18  C   UNL     1      -1.003   1.511   8.069  0.00  0.00    -0.078 C 
ATOM     19  C   UNL     1      -1.352   2.245   9.389  0.00  0.00    -0.020 C 
ATOM     20  C   UNL     1      -0.189   3.252   9.542  0.00  0.00    -0.020 C 
ATOM     21  C   UNL     1       0.381   3.428   8.122  0.00  0.00    -0.078 C 
ATOM     22  H   UNL     1      -1.181   3.140   6.814  0.00  0.00    -0.081 HD
ENDBRANCH  14  17
ENDBRANCH   7   8
BRANCH   4  23
ATOM     23  C   UNL     1       0.422  -2.826  -2.680  0.00  0.00    +0.247 C 
ATOM     24  O   UNL     1       0.214  -2.356  -3.782  0.00  0.00    -0.270 OA
ATOM     25  N   UNL     1       0.502  -4.162  -2.522  0.00  0.00    -0.295 N 
ATOM     26  C   UNL     1       0.870  -4.742  -1.223  0.00  0.00    +0.108 C 
ATOM     27  C   UNL     1       2.051  -5.696  -1.426  0.00  0.00    +0.019 C 
ATOM     28  C   UNL     1       1.689  -6.729  -2.495  0.00  0.00    +0.003 C 
ATOM     29  C   UNL     1       1.410  -6.018  -3.821  0.00  0.00    +0.022 C 
ATOM     30  C   UNL     1       0.216  -5.067  -3.644  0.00  0.00    +0.073 C 
ATOM     31  C   UNL     1       0.014  -4.251  -4.922  0.00  0.00    +0.028 C 
ENDBRANCH   4  23
TORSDOF 3
