REMARK  Name = ZINC35860523
REMARK  7 active torsions:
REMARK  status: ('A' for Active; 'I' for Inactive)
REMARK    1  A    between atoms: C_1  and  C_2
REMARK    2  A    between atoms: C_2  and  C_3
REMARK    3  A    between atoms: C_11  and  O_23
REMARK    4  A    between atoms: C_14  and  C_16
REMARK    5  A    between atoms: O_23  and  C_24
REMARK    6  A    between atoms: C_24  and  C_25
REMARK    7  A    between atoms: C_27  and  C_30
REMARK                            x       y       z     vdW  Elec       q    Type
REMARK                         _______ _______ _______ _____ _____    ______ ____
ROOT
ATOM      1  C   UNL     1      -4.532   1.073  -0.374  0.00  0.00    +0.216 C 
ATOM      2  O   UNL     1      -5.468   1.646   0.143  0.00  0.00    -0.276 OA
ATOM      3  N   UNL     1      -4.468  -0.273  -0.347  0.00  0.00    -0.290 N 
ATOM      4  C   UNL     1      -3.398  -1.002  -1.047  0.00  0.00    +0.113 C 
ATOM      5  C   UNL     1      -2.557  -1.726   0.004  0.00  0.00    +0.054 C 
ATOM      6  C   UNL     1      -3.437  -2.461   0.981  0.00  0.00    -0.040 A 
ATOM      7  C   UNL     1      -2.861  -3.491   1.717  0.00  0.00    +0.007 A 
ATOM      8  C   UNL     1      -3.604  -4.199   2.635  0.00  0.00    +0.046 A 
ATOM      9  C   UNL     1      -4.941  -3.883   2.831  0.00  0.00    +0.121 A 
ATOM     10  C   UNL     1      -5.517  -2.861   2.095  0.00  0.00    +0.051 A 
ATOM     11  C   UNL     1      -4.766  -2.153   1.167  0.00  0.00    -0.016 A 
ATOM     12  C   UNL     1      -5.457  -1.069   0.387  0.00  0.00    +0.137 C 
ENDROOT
BRANCH  12  13
ATOM     13  C   UNL     1      -6.217  -0.176   1.334  0.00  0.00    -0.022 A 
ATOM     14  C   UNL     1      -5.530   0.637   2.216  0.00  0.00    +0.008 A 
ATOM     15  C   UNL     1      -6.226   1.456   3.085  0.00  0.00    +0.038 A 
ATOM     16  C   UNL     1      -7.610   1.462   3.072  0.00  0.00    +0.123 A 
ATOM     17  C   UNL     1      -8.296   0.647   2.188  0.00  0.00    +0.038 A 
ATOM     18  C   UNL     1      -7.599  -0.167   1.316  0.00  0.00    +0.008 A 
ATOM     19  F   UNL     1      -8.291   2.263   3.922  0.00  0.00    -0.205 F 
ENDBRANCH  12  13
BRANCH   1  21
ATOM     20  C   UNL     1      -3.754   3.360  -0.935  0.00  0.00    +0.013 C 
ATOM     21  C   UNL     1      -3.441   1.866  -1.046  0.00  0.00    +0.092 C 
ENDBRANCH   1  21
BRANCH   9  22
ATOM     22  O   UNL     1      -5.682  -4.573   3.738  0.00  0.00    -0.485 OA
BRANCH  22  23
ATOM     23  C   UNL     1      -5.019  -5.614   4.458  0.00  0.00    +0.291 C 
BRANCH  23  24
ATOM     24  C   UNL     1      -5.991  -6.262   5.411  0.00  0.00    +0.116 A 
ATOM     25  N   UNL     1      -6.772  -7.285   5.192  0.00  0.00    -0.236 NA
ATOM     26  C   UNL     1      -7.563  -7.703   6.185  0.00  0.00    +0.133 A 
ATOM     27  C   UNL     1      -7.476  -7.004   7.359  0.00  0.00    +0.080 A 
ATOM     28  S   UNL     1      -6.316  -5.842   7.003  0.00  0.00    -0.076 S 
BRANCH  26  29
ATOM     29  C   UNL     1      -8.475  -8.849   6.025  0.00  0.00    +0.266 C 
ATOM     30  O   UNL     1      -9.460  -8.945   6.733  0.00  0.00    -0.268 OA
ATOM     31  N   UNL     1      -8.218  -9.790   5.096  0.00  0.00    -0.295 N 
ATOM     32  C   UNL     1      -9.122 -10.932   4.955  0.00  0.00    +0.119 C 
ATOM     33  C   UNL     1      -9.815 -10.870   3.589  0.00  0.00    +0.088 C 
ATOM     34  S   UNL     1      -8.541 -10.836   2.292  0.00  0.00    -0.158 S 
ATOM     35  C   UNL     1      -7.483  -9.443   2.788  0.00  0.00    +0.088 C 
ATOM     36  C   UNL     1      -7.042  -9.654   4.235  0.00  0.00    +0.119 C 
ENDBRANCH  26  29
ENDBRANCH  23  24
ENDBRANCH  22  23
ENDBRANCH   9  22
TORSDOF 6
