REMARK  Name = ZINC26440810
REMARK  7 active torsions:
REMARK  status: ('A' for Active; 'I' for Inactive)
REMARK    1  A    between atoms: C_1  and  C_2
REMARK    2  A    between atoms: C_5  and  C_8
REMARK    3  A    between atoms: C_11  and  C_25
REMARK    4  A    between atoms: N_17  and  C_19
REMARK    5  A    between atoms: C_25  and  N_26
REMARK    6  A    between atoms: N_26  and  C_27
REMARK    7  A    between atoms: C_27  and  C_28
REMARK                            x       y       z     vdW  Elec       q    Type
REMARK                         _______ _______ _______ _____ _____    ______ ____
ROOT
ATOM      1  C   UNL     1       0.060  -4.255  -0.021  0.00  0.00    +0.102 A 
ATOM      2  C   UNL     1       0.748  -5.121   0.940  0.00  0.00    +0.045 A 
ATOM      3  C   UNL     1       1.543  -4.874   2.078  0.00  0.00    +0.020 A 
ATOM      4  C   UNL     1       2.048  -5.929   2.773  0.00  0.00    +0.001 A 
ATOM      5  C   UNL     1       1.774  -7.242   2.352  0.00  0.00    +0.252 A 
ATOM      6  O   UNL     1       2.230  -8.183   2.980  0.00  0.00    -0.268 OA
ATOM      7  N   UNL     1       1.015  -7.474   1.265  0.00  0.00    -0.307 N 
ATOM      8  H   UNL     1       0.837  -8.387   0.989  0.00  0.00    +0.170 HD
ATOM      9  C   UNL     1       0.492  -6.434   0.544  0.00  0.00    +0.145 A 
ATOM     10  N   UNL     1      -0.288  -6.374  -0.567  0.00  0.00    -0.215 N 
ATOM     11  N   UNL     1      -0.541  -5.037  -0.888  0.00  0.00    -0.164 NA
ENDROOT
BRANCH   1  16
ATOM     12  C   UNL     1      -0.018   1.503   0.010  0.00  0.00    +0.044 C 
ATOM     13  C   UNL     1       0.002  -0.004   0.002  0.00  0.00    -0.050 A 
ATOM     14  C   UNL     1       0.006  -0.686  -1.201  0.00  0.00    +0.004 A 
ATOM     15  C   UNL     1       0.024  -2.066  -1.215  0.00  0.00    +0.010 A 
ATOM     16  C   UNL     1       0.040  -2.772  -0.013  0.00  0.00    +0.003 A 
ATOM     17  C   UNL     1       0.037  -2.079   1.196  0.00  0.00    +0.010 A 
ATOM     18  C   UNL     1       0.023  -0.699   1.198  0.00  0.00    +0.004 A 
ENDBRANCH   1  16
BRANCH  10  19
ATOM     19  C   UNL     1      -0.768  -7.481  -1.278  0.00  0.00    +0.068 A 
ATOM     20  C   UNL     1       0.010  -8.626  -1.390  0.00  0.00    +0.028 A 
ATOM     21  C   UNL     1      -0.466  -9.716  -2.093  0.00  0.00    +0.002 A 
ATOM     22  C   UNL     1      -1.716  -9.668  -2.684  0.00  0.00    +0.000 A 
ATOM     23  C   UNL     1      -2.492  -8.528  -2.574  0.00  0.00    +0.002 A 
ATOM     24  C   UNL     1      -2.024  -7.438  -1.868  0.00  0.00    +0.028 A 
ENDBRANCH  10  19
BRANCH   4  25
ATOM     25  C   UNL     1       2.900  -5.690   3.993  0.00  0.00    -0.041 C 
BRANCH  25  26
ATOM     26  N   UNL     1       2.061  -5.750   5.197  0.00  0.00    +0.384 N 
ATOM     27  H   UNL     1       1.344  -5.041   5.143  0.00  0.00    -0.085 HD
ATOM     28  H   UNL     1       1.629  -6.660   5.261  0.00  0.00    -0.085 HD
BRANCH  26  29
ATOM     29  C   UNL     1       2.891  -5.517   6.386  0.00  0.00    -0.046 C 
BRANCH  29  30
ATOM     30  C   UNL     1       2.030  -5.579   7.621  0.00  0.00    -0.064 A 
ATOM     31  C   UNL     1       1.423  -4.432   8.098  0.00  0.00    +0.002 A 
ATOM     32  C   UNL     1       0.633  -4.489   9.231  0.00  0.00    +0.000 A 
ATOM     33  C   UNL     1       0.449  -5.692   9.886  0.00  0.00    +0.000 A 
ATOM     34  C   UNL     1       1.055  -6.839   9.408  0.00  0.00    +0.000 A 
ATOM     35  C   UNL     1       1.841  -6.783   8.273  0.00  0.00    +0.002 A 
ENDBRANCH  29  30
ENDBRANCH  26  29
ENDBRANCH  25  26
ENDBRANCH   4  25
TORSDOF 6
