REMARK  Name = ZINC39677324
REMARK  9 active torsions:
REMARK  status: ('A' for Active; 'I' for Inactive)
REMARK    1  A    between atoms: C_1  and  C_2
REMARK    2  A    between atoms: C_6  and  C_7
REMARK    3  A    between atoms: C_7  and  N_8
REMARK    4  A    between atoms: C_9  and  C_11
REMARK    5  A    between atoms: C_22  and  C_24
REMARK    6  A    between atoms: C_24  and  C_25
REMARK    7  A    between atoms: C_25  and  C_26
REMARK    8  A    between atoms: C_29  and  O_32
REMARK    9  A    between atoms: O_32  and  C_33
REMARK                            x       y       z     vdW  Elec       q    Type
REMARK                         _______ _______ _______ _____ _____    ______ ____
ROOT
ATOM      1  C   UNL     1      -3.007   0.580   4.784  0.00  0.00    +0.100 C 
ATOM      2  C   UNL     1      -3.718   1.716   4.016  0.00  0.00    +0.121 C 
ATOM      3  N   UNL     1      -4.572   2.377   5.030  0.00  0.00    -0.300 N 
ATOM      4  C   UNL     1      -3.741   2.392   6.258  0.00  0.00    +0.115 C 
ATOM      5  C   UNL     1      -3.024   1.028   6.256  0.00  0.00    -0.004 C 
ATOM      6  C   UNL     1      -1.599   1.181   6.778  0.00  0.00    -0.010 C 
ATOM      7  C   UNL     1      -1.641   1.569   8.258  0.00  0.00    -0.082 C 
ATOM      8  N   UNL     1      -2.353   0.534   9.018  0.00  0.00    +0.379 N 
ATOM      9  C   UNL     1      -3.749   0.459   8.572  0.00  0.00    -0.082 C 
ATOM     10  C   UNL     1      -3.796   0.023   7.105  0.00  0.00    -0.010 C 
ATOM     11  C   UNL     1      -5.822   2.857   4.873  0.00  0.00    +0.216 C 
ATOM     12  O   UNL     1      -6.394   3.376   5.807  0.00  0.00    -0.276 OA
ATOM     13  H   UNL     1      -1.905  -0.357   8.870  0.00  0.00    -0.086 HD
ATOM     14  H   UNL     1      -2.326   0.762  10.000  0.00  0.00    -0.086 HD
ENDROOT
BRANCH   1  16
ATOM     15  N   UNL     1      -0.981  -0.776   4.365  0.00  0.00    -0.310 N 
ATOM     16  C   UNL     1      -1.589   0.425   4.299  0.00  0.00    +0.218 C 
ATOM     17  O   UNL     1      -0.995   1.381   3.848  0.00  0.00    -0.275 OA
ATOM     18  H   UNL     1      -1.457  -1.541   4.726  0.00  0.00    +0.149 HD
BRANCH  15  19
ATOM     19  C   UNL     1       0.398  -0.926   3.894  0.00  0.00    +0.147 C 
BRANCH  19  25
ATOM     20  C   UNL     1       0.102  -3.211   1.862  0.00  0.00    +0.044 C 
ATOM     21  C   UNL     1       0.733  -3.398   3.217  0.00  0.00    -0.039 A 
ATOM     22  C   UNL     1       1.218  -4.635   3.601  0.00  0.00    +0.011 A 
ATOM     23  C   UNL     1       1.780  -4.769   4.827  0.00  0.00    +0.046 A 
ATOM     24  S   UNL     1       1.633  -3.115   5.484  0.00  0.00    -0.100 S 
ATOM     25  C   UNL     1       0.838  -2.356   4.077  0.00  0.00    +0.010 A 
ENDBRANCH  19  25
ENDBRANCH  15  19
ENDBRANCH   1  16
BRANCH  11  26
ATOM     26  C   UNL     1      -6.508   2.748   3.535  0.00  0.00    +0.100 C 
BRANCH  26  27
ATOM     27  C   UNL     1      -7.905   3.363   3.627  0.00  0.00    +0.044 C 
BRANCH  27  28
ATOM     28  C   UNL     1      -8.591   3.254   2.290  0.00  0.00    -0.047 A 
ATOM     29  C   UNL     1      -8.452   4.266   1.358  0.00  0.00    +0.007 A 
ATOM     30  C   UNL     1      -9.080   4.169   0.131  0.00  0.00    +0.046 A 
ATOM     31  C   UNL     1      -9.850   3.054  -0.165  0.00  0.00    +0.120 A 
ATOM     32  C   UNL     1      -9.988   2.039   0.771  0.00  0.00    +0.046 A 
ATOM     33  C   UNL     1      -9.354   2.139   1.994  0.00  0.00    +0.007 A 
BRANCH  31  34
ATOM     34  O   UNL     1     -10.470   2.955  -1.371  0.00  0.00    -0.495 OA
ATOM     35  C   UNL     1     -11.246   1.780  -1.608  0.00  0.00    +0.277 C 
ENDBRANCH  31  34
ENDBRANCH  27  28
ENDBRANCH  26  27
ENDBRANCH  11  26
TORSDOF 7
