REMARK  Name = ZINC23282275
REMARK  3 active torsions:
REMARK  status: ('A' for Active; 'I' for Inactive)
REMARK    1  A    between atoms: C_3  and  N_8
REMARK    2  A    between atoms: N_8  and  C_9
REMARK    3  A    between atoms: C_9  and  C_10
REMARK                            x       y       z     vdW  Elec       q    Type
REMARK                         _______ _______ _______ _____ _____    ______ ____
ROOT
ATOM      1  C   UNL     1      -0.742   1.585  -1.213  0.00  0.00    +0.052 A 
ATOM      2  C   UNL     1      -1.578   0.771  -1.882  0.00  0.00    +0.204 A 
ATOM      3  O   UNL     1      -2.255   1.160  -2.967  0.00  0.00    -0.462 OA
ATOM      4  C   UNL     1      -2.142   2.401  -3.484  0.00  0.00    +0.138 A 
ATOM      5  C   UNL     1      -2.856   2.772  -4.617  0.00  0.00    +0.048 A 
ATOM      6  C   UNL     1      -2.724   4.046  -5.126  0.00  0.00    +0.023 A 
ATOM      7  C   UNL     1      -1.883   4.968  -4.519  0.00  0.00    +0.042 A 
ATOM      8  C   UNL     1      -1.167   4.620  -3.393  0.00  0.00    +0.035 A 
ATOM      9  C   UNL     1      -1.292   3.334  -2.870  0.00  0.00    +0.066 A 
ATOM     10  C   UNL     1      -0.545   2.916  -1.668  0.00  0.00    +0.197 A 
ATOM     11  O   UNL     1       0.209   3.680  -1.090  0.00  0.00    -0.287 OA
ATOM     12 CL   UNL     1      -1.732   6.567  -5.179  0.00  0.00    -0.084 Cl
ENDROOT
BRANCH   1  13
ATOM     13  C   UNL     1      -0.013   1.086   0.008  0.00  0.00    +0.143 C 
BRANCH  13  14
ATOM     14  N   UNL     1      -0.698   1.558   1.213  0.00  0.00    -0.339 N 
ATOM     15  H   UNL     1      -1.602   2.179   1.124  0.00  0.00    +0.146 HD
BRANCH  14  18
ATOM     16  C   UNL     1      -0.364   1.333   4.867  0.00  0.00    +0.005 A 
ATOM     17  C   UNL     1      -0.854   1.668   3.619  0.00  0.00    +0.023 A 
ATOM     18  C   UNL     1      -0.205   1.221   2.475  0.00  0.00    +0.030 A 
ATOM     19  C   UNL     1       0.933   0.432   2.589  0.00  0.00    +0.061 A 
ATOM     20  C   UNL     1       1.422   0.104   3.841  0.00  0.00    +0.125 A 
ATOM     21  C   UNL     1       0.772   0.553   4.979  0.00  0.00    +0.038 A 
ATOM     22  F   UNL     1       2.532  -0.659   3.953  0.00  0.00    -0.205 F 
ENDBRANCH  14  18
ENDBRANCH  13  14
ENDBRANCH   1  13
TORSDOF 3
