REMARK  Name = ZINC64066640
REMARK  7 active torsions:
REMARK  status: ('A' for Active; 'I' for Inactive)
REMARK    1  A    between atoms: C_6  and  C_11
REMARK    2  A    between atoms: C_11  and  N_12
REMARK    3  A    between atoms: C_13  and  C_15
REMARK    4  A    between atoms: C_15  and  C_16
REMARK    5  A    between atoms: C_16  and  C_17
REMARK    6  A    between atoms: C_21  and  C_24
REMARK    7  A    between atoms: C_24  and  C_28
REMARK                            x       y       z     vdW  Elec       q    Type
REMARK                         _______ _______ _______ _____ _____    ______ ____
ROOT
ATOM      1  C   UNL     1       9.276  -3.584  -3.895  0.00  0.00    +0.202 C 
ATOM      2  N   UNL     1       9.787  -4.312  -5.086  0.00  0.00    -0.227 NA
ATOM      3  N   UNL     1      11.045  -3.601  -5.372  0.00  0.00    -0.226 NA
ATOM      4  C   UNL     1      10.732  -2.191  -5.045  0.00  0.00    +0.212 C 
ATOM      5  O   UNL     1       9.623  -2.208  -4.130  0.00  0.00    -0.341 OA
ATOM      6  H   UNL     1       9.145  -4.236  -5.860  0.00  0.00    +0.143 HD
ATOM      7  H   UNL     1      11.796  -3.948  -4.795  0.00  0.00    +0.143 HD
ENDROOT
BRANCH   4   8
ATOM      8  C   UNL     1      11.943  -1.527  -4.388  0.00  0.00    +0.036 C 
ATOM      9  C   UNL     1      12.060  -1.812  -2.881  0.00  0.00    +0.015 C 
ATOM     10  C   UNL     1      12.487  -0.343  -2.716  0.00  0.00    +0.002 C 
ATOM     11  C   UNL     1      11.709  -0.054  -4.011  0.00  0.00    +0.015 C 
BRANCH   8  12
ATOM     12  C   UNL     1      13.223  -1.759  -5.149  0.00  0.00    -0.037 A 
ATOM     13  C   UNL     1      14.311  -2.327  -4.514  0.00  0.00    +0.006 A 
ATOM     14  C   UNL     1      15.485  -2.541  -5.212  0.00  0.00    +0.020 A 
ATOM     15  C   UNL     1      15.570  -2.186  -6.546  0.00  0.00    +0.041 A 
ATOM     16  C   UNL     1      14.481  -1.617  -7.181  0.00  0.00    +0.020 A 
ATOM     17  C   UNL     1      13.306  -1.409  -6.484  0.00  0.00    +0.006 A 
ATOM     18 CL   UNL     1      17.044  -2.454  -7.423  0.00  0.00    -0.084 Cl
ENDBRANCH   8  12
ENDBRANCH   4   8
BRANCH   1  19
ATOM     19  C   UNL     1       7.758  -3.740  -3.786  0.00  0.00    +0.058 C 
BRANCH  19  20
ATOM     20  C   UNL     1       7.260  -3.025  -2.528  0.00  0.00    +0.099 C 
BRANCH  20  22
ATOM     21  N   UNL     1       5.103  -2.626  -1.385  0.00  0.00    -0.313 N 
ATOM     22  C   UNL     1       5.765  -3.178  -2.421  0.00  0.00    +0.213 C 
ATOM     23  O   UNL     1       5.157  -3.798  -3.268  0.00  0.00    -0.276 OA
ATOM     24  H   UNL     1       5.590  -2.130  -0.708  0.00  0.00    +0.149 HD
BRANCH  21  25
ATOM     25  C   UNL     1       3.650  -2.775  -1.281  0.00  0.00    +0.132 C 
BRANCH  25  31
ATOM     26  C   UNL     1      -0.024   1.325   0.004  0.00  0.00    +0.001 A 
ATOM     27  C   UNL     1       1.155   2.084  -0.012  0.00  0.00    +0.002 A 
ATOM     28  C   UNL     1       2.383   1.524  -0.024  0.00  0.00    +0.026 A 
ATOM     29  C   UNL     1       2.527   0.110  -0.021  0.00  0.00    +0.043 A 
ATOM     30  N   UNL     1       3.589  -0.659  -0.032  0.00  0.00    -0.376 N 
ATOM     31  C   UNL     1       3.152  -2.060  -0.023  0.00  0.00    +0.120 C 
ATOM     32  C   UNL     1       1.641  -2.023  -0.006  0.00  0.00    +0.009 C 
ATOM     33  C   UNL     1       1.298  -0.715  -0.005  0.00  0.00    -0.004 A 
ATOM     34  C   UNL     1       0.001  -0.027   0.007  0.00  0.00    +0.010 A 
ATOM     35  H   UNL     1       4.510  -0.353  -0.043  0.00  0.00    +0.160 HD
ENDBRANCH  25  31
ENDBRANCH  21  25
ENDBRANCH  20  22
ENDBRANCH  19  20
ENDBRANCH   1  19
TORSDOF 7
