REMARK  Name = ZINC15969352
REMARK  7 active torsions:
REMARK  status: ('A' for Active; 'I' for Inactive)
REMARK    1  A    between atoms: C_1  and  C_2
REMARK    2  A    between atoms: C_2  and  C_3
REMARK    3  A    between atoms: C_2  and  C_4
REMARK    4  A    between atoms: C_4  and  C_6
REMARK    5  A    between atoms: C_4  and  N_15
REMARK    6  A    between atoms: N_8  and  C_9
REMARK    7  A    between atoms: C_16  and  C_18
REMARK                            x       y       z     vdW  Elec       q    Type
REMARK                         _______ _______ _______ _____ _____    ______ ____
ROOT
ATOM      1  C   UNL     1      -1.741   5.215   0.626  0.00  0.00    +0.167 C 
ATOM      2  C   UNL     1      -1.550   5.746  -0.802  0.00  0.00    +0.069 C 
ATOM      3  C   UNL     1      -2.052   7.164  -0.901  0.00  0.00    -0.015 A 
ATOM      4  C   UNL     1      -1.785   8.118  -1.963  0.00  0.00    +0.003 A 
ATOM      5  C   UNL     1      -1.018   8.040  -3.130  0.00  0.00    +0.010 A 
ATOM      6  C   UNL     1      -0.986   9.158  -3.926  0.00  0.00    +0.001 A 
ATOM      7  C   UNL     1      -1.675  10.315  -3.598  0.00  0.00    +0.002 A 
ATOM      8  C   UNL     1      -2.441  10.418  -2.450  0.00  0.00    +0.026 A 
ATOM      9  C   UNL     1      -2.492   9.298  -1.623  0.00  0.00    +0.047 A 
ATOM     10  N   UNL     1      -3.134   9.060  -0.442  0.00  0.00    -0.356 N 
ATOM     11  H   UNL     1      -3.699   9.696   0.024  0.00  0.00    +0.166 HD
ATOM     12  C   UNL     1      -2.859   7.789  -0.015  0.00  0.00    +0.046 A 
ATOM     13  C   UNL     1      -3.354   7.133   1.251  0.00  0.00    +0.155 C 
ATOM     14  N   UNL     1      -3.039   5.691   1.113  0.00  0.00    -0.273 N 
ATOM     15  C   UNL     1      -4.122   4.985   1.465  0.00  0.00    +0.248 C 
ATOM     16  O   UNL     1      -4.139   3.789   1.681  0.00  0.00    -0.270 OA
ATOM     17  C   UNL     1      -5.283   5.877   1.550  0.00  0.00    +0.042 A 
ATOM     18  C   UNL     1      -4.836   7.205   1.395  0.00  0.00    -0.009 A 
ATOM     19  C   UNL     1      -5.712   8.267   1.413  0.00  0.00    +0.006 A 
ATOM     20  C   UNL     1      -7.059   7.973   1.607  0.00  0.00    +0.000 A 
ATOM     21  C   UNL     1      -7.504   6.678   1.777  0.00  0.00    +0.001 A 
ATOM     22  C   UNL     1      -6.636   5.597   1.756  0.00  0.00    +0.013 A 
ENDROOT
BRANCH   1  24
ATOM     23  N   UNL     1      -0.684   3.046   1.169  0.00  0.00    -0.302 N 
ATOM     24  C   UNL     1      -1.720   3.708   0.618  0.00  0.00    +0.235 C 
ATOM     25  O   UNL     1      -2.636   3.092   0.116  0.00  0.00    -0.274 OA
ATOM     26  H   UNL     1       0.048   3.538   1.571  0.00  0.00    +0.150 HD
BRANCH  23  27
ATOM     27  C   UNL     1      -0.664   1.581   1.161  0.00  0.00    +0.161 C 
BRANCH  27  28
ATOM     28  C   UNL     1       0.190   1.084   2.299  0.00  0.00    +0.234 C 
ATOM     29  O   UNL     1       0.729   1.875   3.043  0.00  0.00    -0.274 OA
ATOM     30  N   UNL     1       0.355  -0.240   2.489  0.00  0.00    -0.311 N 
ATOM     31  H   UNL     1      -0.076  -0.873   1.894  0.00  0.00    +0.149 HD
BRANCH  30  32
ATOM     32  C   UNL     1       1.185  -0.724   3.595  0.00  0.00    +0.073 C 
ATOM     33  C   UNL     1       2.651  -0.753   3.157  0.00  0.00    +0.022 C 
ATOM     34  C   UNL     1       3.518  -1.257   4.312  0.00  0.00    +0.002 C 
ATOM     35  C   UNL     1       3.075  -2.668   4.704  0.00  0.00    +0.000 C 
ATOM     36  C   UNL     1       1.609  -2.639   5.142  0.00  0.00    +0.002 C 
ATOM     37  C   UNL     1       0.742  -2.135   3.987  0.00  0.00    +0.022 C 
ENDBRANCH  30  32
ENDBRANCH  27  28
BRANCH  27  39
ATOM     38  C   UNL     1       1.341   1.616  -0.329  0.00  0.00    +0.009 C 
ATOM     39  C   UNL     1      -0.085   1.086  -0.166  0.00  0.00    +0.012 C 
ATOM     40  C   UNL     1      -0.953   1.590  -1.321  0.00  0.00    +0.009 C 
ENDBRANCH  27  39
ENDBRANCH  23  27
ENDBRANCH   1  24
TORSDOF 5
