REMARK  Name = ZINC64218958
REMARK  8 active torsions:
REMARK  status: ('A' for Active; 'I' for Inactive)
REMARK    1  A    between atoms: C_4  and  C_7
REMARK    2  A    between atoms: C_7  and  O_8
REMARK    3  A    between atoms: O_8  and  C_9
REMARK    4  A    between atoms: N_11  and  C_12
REMARK    5  A    between atoms: C_12  and  C_14
REMARK    6  A    between atoms: C_12  and  C_24
REMARK    7  A    between atoms: C_14  and  C_15
REMARK    8  A    between atoms: N_26  and  C_27
REMARK                            x       y       z     vdW  Elec       q    Type
REMARK                         _______ _______ _______ _____ _____    ______ ____
ROOT
ATOM      1  C   UNL     1       7.037  -2.572   2.877  0.00  0.00    +0.166 C 
ENDROOT
BRANCH   1   4
ATOM      2  C   UNL     1       5.303  -1.606   1.464  0.00  0.00    +0.401 C 
ATOM      3  O   UNL     1       5.933  -1.970   0.491  0.00  0.00    -0.226 OA
ATOM      4  N   UNL     1       5.769  -1.859   2.703  0.00  0.00    -0.269 N 
ATOM      5  H   UNL     1       5.266  -1.568   3.480  0.00  0.00    +0.153 HD
BRANCH   2   6
ATOM      6  O   UNL     1       4.138  -0.951   1.305  0.00  0.00    -0.446 OA
BRANCH   6   7
ATOM      7  C   UNL     1       3.703  -0.717  -0.036  0.00  0.00    +0.269 C 
BRANCH   7  11
ATOM      8  C   UNL     1      -0.018   1.381   0.015  0.00  0.00    +0.000 A 
ATOM      9  C   UNL     1       1.172   2.084  -0.001  0.00  0.00    +0.000 A 
ATOM     10  C   UNL     1       2.376   1.405  -0.018  0.00  0.00    +0.007 A 
ATOM     11  C   UNL     1       2.390   0.023  -0.018  0.00  0.00    -0.010 A 
ATOM     12  C   UNL     1       1.200  -0.680  -0.001  0.00  0.00    +0.007 A 
ATOM     13  C   UNL     1      -0.004  -0.001   0.015  0.00  0.00    +0.000 A 
ENDBRANCH   7  11
ENDBRANCH   6   7
ENDBRANCH   2   6
ENDBRANCH   1   4
BRANCH   1  14
ATOM     14  C   UNL     1       7.049  -3.256   4.219  0.00  0.00    +0.238 C 
ATOM     15  O   UNL     1       6.092  -3.158   4.958  0.00  0.00    -0.273 OA
ATOM     16  N   UNL     1       8.122  -3.978   4.599  0.00  0.00    -0.284 N 
ATOM     17  H   UNL     1       8.859  -4.112   3.982  0.00  0.00    +0.155 HD
BRANCH  16  18
ATOM     18  C   UNL     1       8.174  -4.533   5.884  0.00  0.00    +0.037 A 
ATOM     19  C   UNL     1       9.385  -4.612   6.558  0.00  0.00    +0.027 A 
ATOM     20  C   UNL     1       9.437  -5.160   7.825  0.00  0.00    +0.051 A 
ATOM     21  C   UNL     1       8.281  -5.633   8.427  0.00  0.00    +0.162 A 
ATOM     22  C   UNL     1       7.066  -5.554   7.755  0.00  0.00    +0.164 A 
ATOM     23  C   UNL     1       7.014  -5.000   6.485  0.00  0.00    +0.072 A 
ATOM     24  O   UNL     1       5.920  -6.006   8.333  0.00  0.00    -0.485 OA
ATOM     25  C   UNL     1       6.067  -6.887   9.452  0.00  0.00    +0.270 C 
ATOM     26  C   UNL     1       7.121  -6.293  10.396  0.00  0.00    +0.270 C 
ATOM     27  O   UNL     1       8.352  -6.174   9.675  0.00  0.00    -0.485 OA
ENDBRANCH  16  18
ENDBRANCH   1  14
BRANCH   1  28
ATOM     28  C   UNL     1       8.197  -1.576   2.802  0.00  0.00    +0.065 C 
BRANCH  28  29
ATOM     29  C   UNL     1       8.260  -0.982   1.418  0.00  0.00    -0.039 C 
ATOM     30  C   UNL     1       7.713   0.185   1.009  0.00  0.00    -0.001 A 
ATOM     31  C   UNL     1       6.925   1.211   1.703  0.00  0.00    +0.010 A 
ATOM     32  C   UNL     1       6.506   2.296   1.011  0.00  0.00    +0.001 A 
ATOM     33  C   UNL     1       6.806   2.464  -0.347  0.00  0.00    +0.002 A 
ATOM     34  C   UNL     1       7.525   1.565  -1.053  0.00  0.00    +0.026 A 
ATOM     35  C   UNL     1       8.016   0.387  -0.426  0.00  0.00    +0.043 A 
ATOM     36  N   UNL     1       8.723  -0.617  -0.886  0.00  0.00    -0.380 N 
ATOM     37  C   UNL     1       8.953  -1.567   0.208  0.00  0.00    +0.144 C 
ATOM     38  H   UNL     1       9.043  -0.713  -1.796  0.00  0.00    +0.160 HD
ENDBRANCH  28  29
ENDBRANCH   1  28
TORSDOF 8
