REMARK  Name = ZINC36386986
REMARK  9 active torsions:
REMARK  status: ('A' for Active; 'I' for Inactive)
REMARK    1  A    between atoms: C_1  and  C_2
REMARK    2  A    between atoms: C_5  and  C_33
REMARK    3  A    between atoms: C_6  and  N_8
REMARK    4  A    between atoms: C_12  and  S_13
REMARK    5  A    between atoms: S_13  and  C_14
REMARK    6  A    between atoms: C_14  and  C_15
REMARK    7  A    between atoms: N_17  and  C_18
REMARK    8  A    between atoms: C_22  and  S_24
REMARK    9  A    between atoms: S_24  and  N_27
REMARK                            x       y       z     vdW  Elec       q    Type
REMARK                         _______ _______ _______ _____ _____    ______ ____
ROOT
ATOM      1  C   UNL     1       4.797  -5.395   2.557  0.00  0.00    +0.227 C 
ATOM      2  O   UNL     1       5.119  -4.949   1.477  0.00  0.00    -0.275 OA
ATOM      3  N   UNL     1       5.632  -6.219   3.222  0.00  0.00    -0.285 N 
ATOM      4  H   UNL     1       5.405  -6.523   4.115  0.00  0.00    +0.155 HD
ENDROOT
BRANCH   3   5
ATOM      5  C   UNL     1       6.827  -6.635   2.624  0.00  0.00    +0.035 A 
ATOM      6  C   UNL     1       7.311  -7.916   2.856  0.00  0.00    +0.023 A 
ATOM      7  C   UNL     1       8.490  -8.324   2.265  0.00  0.00    +0.004 A 
ATOM      8  C   UNL     1       9.189  -7.459   1.443  0.00  0.00    +0.029 A 
ATOM      9  C   UNL     1       8.710  -6.183   1.210  0.00  0.00    +0.114 A 
ATOM     10  C   UNL     1       7.527  -5.771   1.794  0.00  0.00    +0.052 A 
BRANCH   9  11
ATOM     11  S   UNL     1       9.604  -5.085   0.163  0.00  0.00    +0.100 S 
ATOM     12  O   UNL     1       9.230  -3.767   0.542  0.00  0.00    -0.146 OA
ATOM     13  O   UNL     1      10.955  -5.525   0.171  0.00  0.00    -0.146 OA
BRANCH  11  14
ATOM     14  N   UNL     1       9.042  -5.311  -1.379  0.00  0.00    -0.118 NA
ATOM     15  C   UNL     1       9.535  -4.621  -2.355  0.00  0.00    +0.117 C 
ATOM     16  C   UNL     1       9.106  -4.729  -3.801  0.00  0.00    +0.074 C 
ATOM     17  C   UNL     1       9.662  -3.447  -4.462  0.00  0.00    +0.026 C 
ATOM     18  C   UNL     1      10.851  -3.099  -3.541  0.00  0.00    +0.103 C 
ATOM     19  N   UNL     1      10.520  -3.680  -2.234  0.00  0.00    -0.331 N 
ATOM     20  H   UNL     1      10.944  -3.431  -1.398  0.00  0.00    +0.147 HD
ENDBRANCH  11  14
ENDBRANCH   9  11
ENDBRANCH   3   5
BRANCH   1  21
ATOM     21  C   UNL     1       3.464  -5.030   3.157  0.00  0.00    +0.173 C 
BRANCH  21  22
ATOM     22  S   UNL     1       2.579  -3.916   2.031  0.00  0.00    -0.078 S 
BRANCH  22  27
ATOM     23  N   UNL     1       0.056  -2.788   2.402  0.00  0.00    -0.294 N 
ATOM     24  C   UNL     1      -0.942  -2.810   3.353  0.00  0.00    +0.113 A 
ATOM     25  C   UNL     1      -0.515  -3.603   4.350  0.00  0.00    +0.131 A 
ATOM     26  N   UNL     1       0.708  -4.063   4.033  0.00  0.00    -0.230 NA
ATOM     27  C   UNL     1       1.062  -3.586   2.863  0.00  0.00    +0.174 A 
BRANCH  23  33
ATOM     28  C   UNL     1      -0.013   1.500  -0.006  0.00  0.00    +0.044 C 
ATOM     29  C   UNL     1       0.004  -0.007  -0.006  0.00  0.00    -0.048 A 
ATOM     30  C   UNL     1       0.000  -0.697  -1.204  0.00  0.00    +0.004 A 
ATOM     31  C   UNL     1       0.015  -2.080  -1.209  0.00  0.00    +0.005 A 
ATOM     32  C   UNL     1       0.034  -2.776  -0.015  0.00  0.00    -0.027 A 
ATOM     33  C   UNL     1       0.038  -2.085   1.189  0.00  0.00    +0.052 A 
ATOM     34  C   UNL     1       0.028  -0.697   1.190  0.00  0.00    +0.029 A 
ATOM     35  C   UNL     1       0.049  -4.282  -0.021  0.00  0.00    +0.046 C 
ENDBRANCH  23  33
ENDBRANCH  22  27
ENDBRANCH  21  22
ENDBRANCH   1  21
TORSDOF 7
