REMARK  Name = ZINC38671191
REMARK  12 active torsions:
REMARK  status: ('A' for Active; 'I' for Inactive)
REMARK    1  A    between atoms: C_1  and  C_2
REMARK    2  A    between atoms: C_2  and  C_3
REMARK    3  A    between atoms: C_2  and  C_4
REMARK    4  A    between atoms: C_4  and  O_5
REMARK    5  A    between atoms: O_5  and  C_6
REMARK    6  A    between atoms: C_9  and  S_12
REMARK    7  A    between atoms: S_12  and  N_15
REMARK    8  A    between atoms: N_15  and  C_16
REMARK    9  A    between atoms: C_16  and  C_17
REMARK   10  A    between atoms: C_17  and  C_19
REMARK   11  A    between atoms: C_17  and  N_30
REMARK   12  A    between atoms: N_28  and  C_29
REMARK                            x       y       z     vdW  Elec       q    Type
REMARK                         _______ _______ _______ _____ _____    ______ ____
ROOT
ATOM      1  C   UNL     1      -7.501  -5.772  -3.686  0.00  0.00    -0.022 C 
ENDROOT
BRANCH   1   2
ATOM      2  C   UNL     1      -6.715  -6.516  -4.736  0.00  0.00    -0.059 A 
ATOM      3  C   UNL     1      -5.844  -5.828  -5.561  0.00  0.00    +0.004 A 
ATOM      4  C   UNL     1      -5.126  -6.509  -6.523  0.00  0.00    +0.023 A 
ATOM      5  C   UNL     1      -5.277  -7.884  -6.661  0.00  0.00    +0.033 A 
ATOM      6  C   UNL     1      -6.148  -8.573  -5.831  0.00  0.00    -0.026 A 
ATOM      7  C   UNL     1      -6.863  -7.883  -4.867  0.00  0.00    +0.007 A 
ATOM      8  C   UNL     1      -6.329 -10.064  -5.945  0.00  0.00    +0.038 C 
ATOM      9  C   UNL     1      -5.879 -10.554  -7.321  0.00  0.00    +0.024 C 
ATOM     10  C   UNL     1      -4.468 -10.021  -7.601  0.00  0.00    +0.105 C 
ATOM     11  N   UNL     1      -4.543  -8.555  -7.646  0.00  0.00    -0.333 N 
ATOM     12  C   UNL     1      -3.860  -7.806  -8.704  0.00  0.00    +0.129 C 
ENDBRANCH   1   2
BRANCH   1  13
ATOM     13  N   UNL     1      -7.968  -4.493  -4.238  0.00  0.00    +0.385 N 
ATOM     14  C   UNL     1      -8.754  -3.782  -3.223  0.00  0.00    -0.078 C 
ATOM     15  C   UNL     1      -9.174  -2.413  -3.765  0.00  0.00    -0.019 C 
ATOM     16  C   UNL     1     -10.021  -2.608  -5.026  0.00  0.00    -0.004 C 
ATOM     17  C   UNL     1      -9.217  -3.415  -6.049  0.00  0.00    -0.019 C 
ATOM     18  C   UNL     1      -8.796  -4.746  -5.423  0.00  0.00    -0.078 C 
ATOM     19  H   UNL     1      -7.172  -3.931  -4.499  0.00  0.00    -0.081 HD
ENDBRANCH   1  13
BRANCH   1  20
ATOM     20  C   UNL     1      -6.609  -5.509  -2.472  0.00  0.00    +0.095 C 
BRANCH  20  21
ATOM     21  N   UNL     1      -6.198  -6.785  -1.881  0.00  0.00    -0.191 NA
ATOM     22  H   UNL     1      -6.654  -7.604  -2.131  0.00  0.00    +0.148 HD
BRANCH  21  23
ATOM     23  S   UNL     1      -4.954  -6.830  -0.789  0.00  0.00    +0.058 S 
ATOM     24  O   UNL     1      -3.883  -6.093  -1.362  0.00  0.00    -0.153 OA
ATOM     25  O   UNL     1      -4.816  -8.185  -0.386  0.00  0.00    -0.153 OA
BRANCH  23  29
ATOM     26  C   UNL     1      -6.301  -4.523   2.868  0.00  0.00    +0.121 A 
ATOM     27  C   UNL     1      -6.544  -5.886   2.778  0.00  0.00    +0.047 A 
ATOM     28  C   UNL     1      -6.133  -6.587   1.661  0.00  0.00    +0.032 A 
ATOM     29  C   UNL     1      -5.478  -5.932   0.634  0.00  0.00    +0.105 A 
ATOM     30  C   UNL     1      -5.234  -4.574   0.722  0.00  0.00    +0.032 A 
ATOM     31  C   UNL     1      -5.649  -3.867   1.834  0.00  0.00    +0.047 A 
BRANCH  26  32
ATOM     32  O   UNL     1      -6.705  -3.830   3.965  0.00  0.00    -0.492 OA
BRANCH  32  33
ATOM     33  C   UNL     1      -7.370  -4.571   4.991  0.00  0.00    +0.232 C 
BRANCH  33  35
ATOM     34  C   UNL     1      -8.566  -4.395   7.177  0.00  0.00    +0.010 C 
ATOM     35  C   UNL     1      -7.747  -3.630   6.137  0.00  0.00    +0.020 C 
ATOM     36  C   UNL     1      -6.474  -3.086   6.790  0.00  0.00    +0.010 C 
ENDBRANCH  33  35
ENDBRANCH  32  33
ENDBRANCH  26  32
ENDBRANCH  23  29
ENDBRANCH  21  23
ENDBRANCH  20  21
ENDBRANCH   1  20
TORSDOF 9
