REMARK  Name = ZINC05341607
REMARK  7 active torsions:
REMARK  status: ('A' for Active; 'I' for Inactive)
REMARK    1  A    between atoms: C_4  and  C_7
REMARK    2  A    between atoms: C_7  and  C_8
REMARK    3  A    between atoms: C_8  and  N_9
REMARK    4  A    between atoms: C_10  and  C_27
REMARK    5  A    between atoms: C_13  and  C_20
REMARK    6  A    between atoms: C_25  and  O_26
REMARK    7  A    between atoms: C_31  and  O_33
REMARK                            x       y       z     vdW  Elec       q    Type
REMARK                         _______ _______ _______ _____ _____    ______ ____
ROOT
ATOM      1  N   UNL     1       5.450  -1.678   1.382  0.00  0.00    -0.285 N 
ATOM      2  C   UNL     1       5.620  -3.137   1.367  0.00  0.00    +0.141 C 
ATOM      3  C   UNL     1       7.103  -3.384   1.352  0.00  0.00    +0.035 A 
ATOM      4  C   UNL     1       8.143  -4.319   1.335  0.00  0.00    +0.102 A 
ATOM      5  N   UNL     1       9.278  -3.648   1.331  0.00  0.00    -0.173 NA
ATOM      6  N   UNL     1       9.058  -2.381   1.345  0.00  0.00    -0.272 N 
ATOM      7  H   UNL     1       9.744  -1.696   1.344  0.00  0.00    +0.189 HD
ATOM      8  C   UNL     1       7.713  -2.144   1.358  0.00  0.00    +0.126 A 
ATOM      9  C   UNL     1       6.670  -1.112   1.371  0.00  0.00    +0.265 C 
ATOM     10  O   UNL     1       6.879   0.086   1.375  0.00  0.00    -0.268 OA
ENDROOT
BRANCH   4  11
ATOM     11  C   UNL     1       7.996  -5.796   1.323  0.00  0.00    +0.044 A 
ATOM     12  C   UNL     1       6.729  -6.373   1.323  0.00  0.00    +0.014 A 
ATOM     13  C   UNL     1       6.597  -7.747   1.312  0.00  0.00    +0.001 A 
ATOM     14  C   UNL     1       7.721  -8.554   1.301  0.00  0.00    +0.004 A 
ATOM     15  C   UNL     1       8.983  -7.992   1.300  0.00  0.00    +0.046 A 
ATOM     16  C   UNL     1       9.130  -6.614   1.306  0.00  0.00    +0.126 A 
BRANCH  16  17
ATOM     17  O   UNL     1      10.370  -6.060   1.300  0.00  0.00    -0.506 OA
ATOM     18  H   UNL     1      10.737  -5.908   2.182  0.00  0.00    +0.292 HD
ENDBRANCH  16  17
ENDBRANCH   4  11
BRANCH   2  19
ATOM     19  C   UNL     1       5.004  -3.744   2.602  0.00  0.00    -0.019 A 
ATOM     20  C   UNL     1       5.138  -3.109   3.823  0.00  0.00    +0.006 A 
ATOM     21  C   UNL     1       4.574  -3.663   4.958  0.00  0.00    +0.004 A 
ATOM     22  C   UNL     1       3.877  -4.853   4.874  0.00  0.00    +0.045 A 
ATOM     23  C   UNL     1       3.741  -5.491   3.650  0.00  0.00    +0.117 A 
ATOM     24  C   UNL     1       4.302  -4.930   2.511  0.00  0.00    +0.051 A 
BRANCH  23  25
ATOM     25  O   UNL     1       3.055  -6.661   3.565  0.00  0.00    -0.507 OA
ATOM     26  H   UNL     1       2.111  -6.551   3.389  0.00  0.00    +0.292 HD
ENDBRANCH  23  25
ENDBRANCH   2  19
BRANCH   1  27
ATOM     27  C   UNL     1       4.171  -0.963   1.399  0.00  0.00    +0.114 C 
BRANCH  27  28
ATOM     28  C   UNL     1       3.711  -0.707  -0.038  0.00  0.00    +0.054 C 
BRANCH  28  32
ATOM     29  C   UNL     1      -0.017   1.378   0.010  0.00  0.00    +0.000 A 
ATOM     30  C   UNL     1       1.171   2.086   0.002  0.00  0.00    +0.000 A 
ATOM     31  C   UNL     1       2.377   1.411  -0.013  0.00  0.00    +0.004 A 
ATOM     32  C   UNL     1       2.396   0.029  -0.020  0.00  0.00    -0.046 A 
ATOM     33  C   UNL     1       1.208  -0.679  -0.012  0.00  0.00    +0.004 A 
ATOM     34  C   UNL     1       0.002  -0.004   0.002  0.00  0.00    +0.000 A 
ENDBRANCH  28  32
ENDBRANCH  27  28
ENDBRANCH   1  27
TORSDOF 7
