REMARK  Name = ZINC12389153
REMARK  4 active torsions:
REMARK  status: ('A' for Active; 'I' for Inactive)
REMARK    1  A    between atoms: C_4  and  C_26
REMARK    2  A    between atoms: C_5  and  C_7
REMARK    3  A    between atoms: C_7  and  N_8
REMARK    4  A    between atoms: C_20  and  O_25
REMARK                            x       y       z     vdW  Elec       q    Type
REMARK                         _______ _______ _______ _____ _____    ______ ____
ROOT
ATOM      1  N   UNL     1      -1.298  -2.098  -2.450  0.00  0.00    -0.280 N 
ATOM      2  C   UNL     1      -0.978  -0.837  -2.785  0.00  0.00    +0.136 C 
ATOM      3  S   UNL     1      -1.823  -0.091  -4.074  0.00  0.00    -0.019 S 
ATOM      4  N   UNL     1      -0.024  -0.138  -2.152  0.00  0.00    -0.320 N 
ATOM      5  C   UNL     1       0.746  -0.717  -1.049  0.00  0.00    +0.041 C 
ATOM      6  C   UNL     1       0.064  -0.391   0.280  0.00  0.00    +0.026 C 
ATOM      7  C   UNL     1      -0.001   1.127   0.462  0.00  0.00    +0.002 C 
ATOM      8  C   UNL     1       1.417   1.701   0.460  0.00  0.00    +0.000 C 
ATOM      9  C   UNL     1       2.098   1.377  -0.871  0.00  0.00    +0.002 C 
ATOM     10  C   UNL     1       2.163  -0.141  -1.054  0.00  0.00    +0.026 C 
ATOM     11  C   UNL     1       0.810  -2.235  -1.234  0.00  0.00    +0.063 C 
ATOM     12  C   UNL     1      -0.623  -2.769  -1.340  0.00  0.00    +0.139 C 
ATOM     13  C   UNL     1      -0.578  -4.279  -1.573  0.00  0.00    +0.055 C 
ATOM     14  C   UNL     1       0.122  -4.949  -0.386  0.00  0.00    +0.004 C 
ATOM     15  C   UNL     1       1.544  -4.404  -0.249  0.00  0.00    +0.001 C 
ATOM     16  C   UNL     1       1.500  -2.888  -0.037  0.00  0.00    +0.010 C 
ATOM     17  H   UNL     1       0.160   0.773  -2.431  0.00  0.00    +0.148 HD
ENDROOT
BRANCH  12  18
ATOM     18  O   UNL     1      -1.324  -2.496  -0.125  0.00  0.00    -0.371 OA
ATOM     19  H   UNL     1      -2.239  -2.807  -0.121  0.00  0.00    +0.212 HD
ENDBRANCH  12  18
BRANCH   1  20
ATOM     20  C   UNL     1      -2.334  -2.807  -3.204  0.00  0.00    +0.145 C 
BRANCH  20  25
ATOM     21  C   UNL     1      -5.040  -1.293  -1.050  0.00  0.00    +0.000 A 
ATOM     22  C   UNL     1      -6.164  -1.948  -1.518  0.00  0.00    +0.001 A 
ATOM     23  C   UNL     1      -6.048  -2.881  -2.531  0.00  0.00    +0.013 A 
ATOM     24  C   UNL     1      -4.809  -3.159  -3.077  0.00  0.00    +0.059 A 
ATOM     25  C   UNL     1      -3.685  -2.504  -2.609  0.00  0.00    -0.018 A 
ATOM     26  C   UNL     1      -3.800  -1.575  -1.592  0.00  0.00    +0.006 A 
BRANCH  24  27
ATOM     27  C   UNL     1      -4.683  -4.176  -4.181  0.00  0.00    +0.418 C 
ATOM     28  F   UNL     1      -5.952  -4.659  -4.518  0.00  0.00    -0.166 F 
ATOM     29  F   UNL     1      -4.099  -3.578  -5.303  0.00  0.00    -0.166 F 
ATOM     30  F   UNL     1      -3.881  -5.238  -3.748  0.00  0.00    -0.166 F 
ENDBRANCH  24  27
ENDBRANCH  20  25
ENDBRANCH   1  20
TORSDOF 4
