REMARK  Name = ZINC63709737
REMARK  5 active torsions:
REMARK  status: ('A' for Active; 'I' for Inactive)
REMARK    1  A    between atoms: C_5  and  C_7
REMARK    2  A    between atoms: C_7  and  N_8
REMARK    3  A    between atoms: C_9  and  S_19
REMARK    4  A    between atoms: S_19  and  C_20
REMARK    5  A    between atoms: C_20  and  C_21
REMARK                            x       y       z     vdW  Elec       q    Type
REMARK                         _______ _______ _______ _____ _____    ______ ____
ROOT
ATOM      1  N   UNL     1       1.606  -2.677   1.306  0.00  0.00    -0.265 N 
ATOM      2  C   UNL     1       3.022  -2.787   1.648  0.00  0.00    +0.222 C 
ATOM      3  N   UNL     1       3.269  -2.510   3.070  0.00  0.00    -0.316 N 
ATOM      4  C   UNL     1       2.327  -3.018   3.986  0.00  0.00    +0.048 A 
ATOM      5  C   UNL     1       2.497  -3.327   5.319  0.00  0.00    +0.031 A 
ATOM      6  C   UNL     1       1.446  -3.804   6.032  0.00  0.00    +0.048 A 
ATOM      7  S   UNL     1       0.177  -3.857   4.927  0.00  0.00    -0.090 S 
ATOM      8  C   UNL     1       1.026  -3.251   3.507  0.00  0.00    +0.095 A 
ATOM      9  C   UNL     1       0.631  -3.013   2.188  0.00  0.00    +0.257 C 
ATOM     10  O   UNL     1      -0.534  -3.107   1.846  0.00  0.00    -0.269 OA
ATOM     11  H   UNL     1       4.043  -2.005   3.363  0.00  0.00    +0.149 HD
ENDROOT
BRANCH   1  12
ATOM     12  C   UNL     1       1.229  -2.186  -0.022  0.00  0.00    +0.147 C 
BRANCH  12  17
ATOM     13  C   UNL     1      -0.645   1.078   0.276  0.00  0.00    +0.000 A 
ATOM     14  C   UNL     1       0.385   1.997   0.193  0.00  0.00    +0.001 A 
ATOM     15  C   UNL     1       1.688   1.563   0.039  0.00  0.00    +0.020 A 
ATOM     16  C   UNL     1       1.962   0.208  -0.030  0.00  0.00    +0.046 A 
ATOM     17  C   UNL     1       0.931  -0.711   0.054  0.00  0.00    -0.012 A 
ATOM     18  C   UNL     1      -0.372  -0.275   0.207  0.00  0.00    +0.006 A 
ATOM     19 CL   UNL     1       3.598  -0.338  -0.223  0.00  0.00    -0.083 Cl
ENDBRANCH  12  17
ENDBRANCH   1  12
BRANCH   2  20
ATOM     20  S   UNL     1       3.592  -4.466   1.268  0.00  0.00    -0.115 S 
BRANCH  20  21
ATOM     21  C   UNL     1       2.548  -5.529   2.303  0.00  0.00    +0.119 C 
BRANCH  21  22
ATOM     22  C   UNL     1       2.929  -6.993   2.077  0.00  0.00    +0.184 C 
ATOM     23  N   UNL     1       4.355  -7.193   2.362  0.00  0.00    -0.363 N 
ATOM     24  C   UNL     1       4.917  -7.613   1.266  0.00  0.00    +0.060 A 
ATOM     25  C   UNL     1       6.300  -7.980   0.929  0.00  0.00    +0.027 A 
ATOM     26  C   UNL     1       6.594  -8.390  -0.321  0.00  0.00    +0.002 A 
ATOM     27  C   UNL     1       5.624  -8.485  -1.335  0.00  0.00    +0.002 A 
ATOM     28  C   UNL     1       4.328  -8.173  -1.133  0.00  0.00    +0.027 A 
ATOM     29  C   UNL     1       3.891  -7.714   0.193  0.00  0.00    +0.060 A 
ATOM     30  N   UNL     1       2.734  -7.353   0.667  0.00  0.00    -0.363 N 
ATOM     31  H   UNL     1       4.797  -7.040   3.212  0.00  0.00    +0.162 HD
ATOM     32  H   UNL     1       1.896  -7.327   0.179  0.00  0.00    +0.162 HD
ENDBRANCH  21  22
ENDBRANCH  20  21
ENDBRANCH   2  20
TORSDOF 5
