REMARK  Name = ZINC24540757
REMARK  12 active torsions:
REMARK  status: ('A' for Active; 'I' for Inactive)
REMARK    1  A    between atoms: C_1  and  C_2
REMARK    2  A    between atoms: C_2  and  C_4
REMARK    3  A    between atoms: C_2  and  N_12
REMARK    4  A    between atoms: C_4  and  C_5
REMARK    5  A    between atoms: C_5  and  C_6
REMARK    6  A    between atoms: C_13  and  C_15
REMARK    7  A    between atoms: C_15  and  C_20
REMARK    8  A    between atoms: C_20  and  C_21
REMARK    9  A    between atoms: N_23  and  C_24
REMARK   10  A    between atoms: C_24  and  C_25
REMARK   11  A    between atoms: C_24  and  C_26
REMARK   12  A    between atoms: C_24  and  C_27
REMARK                            x       y       z     vdW  Elec       q    Type
REMARK                         _______ _______ _______ _____ _____    ______ ____
ROOT
ATOM      1  N   UNL     1       5.371  -3.029  -0.932  0.00  0.00    -0.312 N 
ATOM      2  C   UNL     1       6.394  -3.688  -0.354  0.00  0.00    +0.220 C 
ATOM      3  O   UNL     1       7.513  -3.220  -0.385  0.00  0.00    -0.275 OA
ATOM      4  H   UNL     1       4.374  -3.491  -0.977  0.00  0.00    +0.149 HD
ENDROOT
BRANCH   2   5
ATOM      5  C   UNL     1       6.149  -5.008   0.331  0.00  0.00    +0.055 C 
ATOM      6  C   UNL     1       5.153  -4.833   1.504  0.00  0.00    +0.016 C 
ATOM      7  C   UNL     1       6.054  -4.287   2.640  0.00  0.00    +0.001 C 
ATOM      8  C   UNL     1       7.381  -5.057   2.472  0.00  0.00    +0.001 C 
ATOM      9  C   UNL     1       7.441  -5.515   1.005  0.00  0.00    +0.016 C 
BRANCH   5  10
ATOM     10  C   UNL     1       5.626  -6.040  -0.669  0.00  0.00    +0.112 C 
BRANCH  10  11
ATOM     11  C   UNL     1       6.681  -6.310  -1.711  0.00  0.00    +0.214 C 
ATOM     12  O   UNL     1       7.704  -5.658  -1.721  0.00  0.00    -0.276 OA
ATOM     13  N   UNL     1       6.489  -7.276  -2.631  0.00  0.00    -0.311 N 
ATOM     14  H   UNL     1       5.561  -7.867  -2.622  0.00  0.00    +0.149 HD
BRANCH  13  15
ATOM     15  C   UNL     1       7.514  -7.538  -3.644  0.00  0.00    +0.026 C 
ATOM     16  C   UNL     1       8.820  -7.939  -2.955  0.00  0.00    +0.031 C 
ATOM     17  C   UNL     1       7.051  -8.674  -4.558  0.00  0.00    +0.031 C 
ATOM     18  C   UNL     1       7.744  -6.275  -4.476  0.00  0.00    +0.031 C 
ENDBRANCH  13  15
ENDBRANCH  10  11
ENDBRANCH   5  10
ENDBRANCH   2   5
BRANCH   1  20
ATOM     19  C   UNL     1       6.115  -1.830  -2.929  0.00  0.00    +0.028 C 
ATOM     20  C   UNL     1       5.587  -1.696  -1.500  0.00  0.00    +0.070 C 
BRANCH  20  21
ATOM     21  C   UNL     1       4.264  -0.927  -1.515  0.00  0.00    +0.026 C 
BRANCH  21  22
ATOM     22  C   UNL     1       3.798  -0.684  -0.078  0.00  0.00    +0.037 C 
BRANCH  22  23
ATOM     23  C   UNL     1       2.495   0.072  -0.093  0.00  0.00    -0.047 A 
ATOM     24  C   UNL     1       1.297  -0.616  -0.120  0.00  0.00    +0.003 A 
ATOM     25  C   UNL     1       0.101   0.077  -0.134  0.00  0.00    +0.000 A 
ATOM     26  C   UNL     1       0.104   1.460  -0.122  0.00  0.00    +0.000 A 
ATOM     27  C   UNL     1       1.302   2.148  -0.095  0.00  0.00    +0.000 A 
ATOM     28  C   UNL     1       2.498   1.454  -0.081  0.00  0.00    +0.003 A 
ENDBRANCH  22  23
ENDBRANCH  21  22
ENDBRANCH  20  21
ENDBRANCH   1  20
TORSDOF 8
