REMARK  Name = ZINC52004610
REMARK  5 active torsions:
REMARK  status: ('A' for Active; 'I' for Inactive)
REMARK    1  A    between atoms: C_4  and  N_20
REMARK    2  A    between atoms: C_6  and  S_7
REMARK    3  A    between atoms: S_7  and  N_10
REMARK    4  A    between atoms: N_10  and  C_11
REMARK    5  A    between atoms: C_17  and  O_19
REMARK                            x       y       z     vdW  Elec       q    Type
REMARK                         _______ _______ _______ _____ _____    ______ ____
ROOT
ATOM      1  S   UNL     1      -1.512  -0.905   0.012  0.00  0.00    +0.059 S 
ATOM      2  O   UNL     1      -1.218  -2.186   0.553  0.00  0.00    -0.153 OA
ATOM      3  O   UNL     1      -2.492  -0.046   0.578  0.00  0.00    -0.153 OA
ENDROOT
BRANCH   1   9
ATOM      4  C   UNL     1      -0.017   1.378   0.010  0.00  0.00    +0.030 A 
ATOM      5  C   UNL     1       1.171   2.086   0.002  0.00  0.00    +0.024 A 
ATOM      6  C   UNL     1       2.378   1.410  -0.013  0.00  0.00    +0.071 A 
ATOM      7  C   UNL     1       2.396   0.027  -0.021  0.00  0.00    +0.146 A 
ATOM      8  C   UNL     1       1.208  -0.680  -0.013  0.00  0.00    +0.062 A 
ATOM      9  C   UNL     1       0.002  -0.004   0.002  0.00  0.00    +0.108 A 
ATOM     10 CL   UNL     1       3.870   2.298  -0.023  0.00  0.00    -0.081 Cl
BRANCH   7  11
ATOM     11  N   UNL     1       3.687  -0.696  -0.037  0.00  0.00    +0.058 N 
ATOM     12  O   UNL     1       3.703  -1.905  -0.044  0.00  0.00    -0.126 OA
ATOM     13  O   UNL     1       4.726  -0.078  -0.044  0.00  0.00    -0.126 OA
ENDBRANCH   7  11
ENDBRANCH   1   9
BRANCH   1  14
ATOM     14  N   UNL     1      -1.948  -1.147  -1.567  0.00  0.00    -0.184 NA
ATOM     15  H   UNL     1      -2.756  -0.738  -1.915  0.00  0.00    +0.148 HD
BRANCH  14  16
ATOM     16  C   UNL     1      -1.115  -1.980  -2.438  0.00  0.00    +0.105 C 
ATOM     17  C   UNL     1      -1.659  -3.409  -2.450  0.00  0.00    +0.023 C 
ATOM     18  C   UNL     1      -0.788  -4.279  -3.360  0.00  0.00    +0.002 C 
ATOM     19  C   UNL     1      -0.811  -3.712  -4.781  0.00  0.00    +0.003 C 
ATOM     20  C   UNL     1      -0.267  -2.282  -4.769  0.00  0.00    +0.033 C 
ATOM     21  C   UNL     1      -1.138  -1.413  -3.859  0.00  0.00    +0.133 C 
BRANCH  21  22
ATOM     22  O   UNL     1      -0.630  -0.077  -3.848  0.00  0.00    -0.390 OA
ATOM     23  H   UNL     1      -0.615   0.345  -4.717  0.00  0.00    +0.210 HD
ENDBRANCH  21  22
ENDBRANCH  14  16
ENDBRANCH   1  14
TORSDOF 5
