REMARK  Name = ZINC39761893
REMARK  10 active torsions:
REMARK  status: ('A' for Active; 'I' for Inactive)
REMARK    1  A    between atoms: C_1  and  C_2
REMARK    2  A    between atoms: C_2  and  C_3
REMARK    3  A    between atoms: C_8  and  N_9
REMARK    4  A    between atoms: C_10  and  C_12
REMARK    5  A    between atoms: C_12  and  S_13
REMARK    6  A    between atoms: S_13  and  C_14
REMARK    7  A    between atoms: C_17  and  C_20
REMARK    8  A    between atoms: N_18  and  C_19
REMARK    9  A    between atoms: C_23  and  C_27
REMARK   10  A    between atoms: C_24  and  C_26
REMARK                            x       y       z     vdW  Elec       q    Type
REMARK                         _______ _______ _______ _____ _____    ______ ____
ROOT
ATOM      1  S   UNL     1      -2.580  -0.752  -6.266  0.00  0.00    -0.077 S 
ENDROOT
BRANCH   1   2
ATOM      2  C   UNL     1      -1.625  -0.341  -7.688  0.00  0.00    +0.192 A 
ATOM      3  N   UNL     1      -0.393   0.117  -7.695  0.00  0.00    -0.122 NA
ATOM      4  N   UNL     1      -0.001   0.311  -8.903  0.00  0.00    -0.128 NA
ATOM      5  C   UNL     1      -0.958  -0.012  -9.742  0.00  0.00    +0.165 A 
ATOM      6  N   UNL     1      -2.025  -0.445  -8.990  0.00  0.00    -0.305 N 
ATOM      7  C   UNL     1      -3.322  -0.916  -9.483  0.00  0.00    +0.153 C 
BRANCH   5   8
ATOM      8  C   UNL     1      -0.897   0.069 -11.217  0.00  0.00    +0.020 A 
ATOM      9  C   UNL     1      -2.074   0.104 -11.966  0.00  0.00    +0.012 A 
ATOM     10  C   UNL     1      -2.011   0.180 -13.342  0.00  0.00    +0.004 A 
ATOM     11  C   UNL     1      -0.783   0.221 -13.980  0.00  0.00    -0.047 A 
ATOM     12  C   UNL     1       0.387   0.186 -13.243  0.00  0.00    -0.047 A 
ATOM     13  C   UNL     1       0.338   0.116 -11.866  0.00  0.00    +0.015 A 
ATOM     14  C   UNL     1       1.719   0.230 -13.946  0.00  0.00    +0.044 C 
ATOM     15  C   UNL     1      -0.722   0.304 -15.483  0.00  0.00    +0.044 C 
ENDBRANCH   5   8
ENDBRANCH   1   2
BRANCH   1  16
ATOM     16  C   UNL     1      -1.475  -0.386  -4.875  0.00  0.00    +0.173 C 
BRANCH  16  18
ATOM     17  N   UNL     1      -1.546  -0.501  -2.405  0.00  0.00    -0.285 N 
ATOM     18  C   UNL     1      -2.178  -0.697  -3.579  0.00  0.00    +0.227 C 
ATOM     19  O   UNL     1      -3.313  -1.124  -3.592  0.00  0.00    -0.275 OA
ATOM     20  H   UNL     1      -0.660  -0.108  -2.391  0.00  0.00    +0.155 HD
BRANCH  17  26
ATOM     21  C   UNL     1      -1.410  -1.354  -0.149  0.00  0.00    -0.026 A 
ATOM     22  C   UNL     1      -2.027  -1.708   1.035  0.00  0.00    +0.005 A 
ATOM     23  C   UNL     1      -3.397  -1.583   1.167  0.00  0.00    +0.000 A 
ATOM     24  C   UNL     1      -4.155  -1.102   0.115  0.00  0.00    +0.002 A 
ATOM     25  C   UNL     1      -3.545  -0.746  -1.071  0.00  0.00    +0.023 A 
ATOM     26  C   UNL     1      -2.168  -0.866  -1.206  0.00  0.00    +0.037 A 
BRANCH  21  28
ATOM     27  C   UNL     1       0.752  -0.155   0.037  0.00  0.00    +0.009 C 
ATOM     28  C   UNL     1       0.084  -1.491  -0.293  0.00  0.00    +0.033 C 
ENDBRANCH  21  28
ENDBRANCH  17  26
ENDBRANCH  16  18
ENDBRANCH   1  16
TORSDOF 6
