REMARK  Name = ZINC35157505
REMARK  14 active torsions:
REMARK  status: ('A' for Active; 'I' for Inactive)
REMARK    1  A    between atoms: C_1  and  C_2
REMARK    2  A    between atoms: C_2  and  C_3
REMARK    3  A    between atoms: C_3  and  C_5
REMARK    4  A    between atoms: C_3  and  S_23
REMARK    5  A    between atoms: N_7  and  C_8
REMARK    6  A    between atoms: C_8  and  C_9
REMARK    7  A    between atoms: C_9  and  C_10
REMARK    8  A    between atoms: C_10  and  C_11
REMARK    9  A    between atoms: C_10  and  C_17
REMARK   10  A    between atoms: S_23  and  C_24
REMARK   11  A    between atoms: C_26  and  C_39
REMARK   12  A    between atoms: C_27  and  C_32
REMARK   13  A    between atoms: N_30  and  C_31
REMARK   14  A    between atoms: C_32  and  C_33
REMARK                            x       y       z     vdW  Elec       q    Type
REMARK                         _______ _______ _______ _____ _____    ______ ____
ROOT
ATOM      1  C   UNL     1       1.444  -1.411  -3.128  0.00  0.00    +0.140 C 
ENDROOT
BRANCH   1   2
ATOM      2  C   UNL     1       0.728  -2.627  -2.597  0.00  0.00    +0.226 C 
ATOM      3  O   UNL     1      -0.395  -2.883  -2.975  0.00  0.00    -0.275 OA
ATOM      4  N   UNL     1       1.337  -3.429  -1.701  0.00  0.00    -0.314 N 
ATOM      5  H   UNL     1       2.235  -3.224  -1.398  0.00  0.00    +0.149 HD
BRANCH   4   6
ATOM      6  C   UNL     1       0.641  -4.610  -1.184  0.00  0.00    +0.105 C 
BRANCH   6   7
ATOM      7  C   UNL     1       1.546  -5.341  -0.191  0.00  0.00    +0.031 C 
BRANCH   7   8
ATOM      8  C   UNL     1       0.820  -6.575   0.349  0.00  0.00    +0.050 C 
BRANCH   8   9
ATOM      9  C   UNL     1       1.754  -7.362   1.232  0.00  0.00    -0.040 A 
ATOM     10  C   UNL     1       1.938  -8.714   1.011  0.00  0.00    +0.004 A 
ATOM     11  C   UNL     1       2.795  -9.436   1.821  0.00  0.00    +0.000 A 
ATOM     12  C   UNL     1       3.468  -8.805   2.851  0.00  0.00    +0.000 A 
ATOM     13  C   UNL     1       3.284  -7.453   3.071  0.00  0.00    +0.000 A 
ATOM     14  C   UNL     1       2.430  -6.730   2.258  0.00  0.00    +0.004 A 
ENDBRANCH   8   9
BRANCH   8  15
ATOM     15  C   UNL     1      -0.381  -6.141   1.149  0.00  0.00    -0.040 A 
ATOM     16  C   UNL     1      -0.241  -5.199   2.151  0.00  0.00    +0.004 A 
ATOM     17  C   UNL     1      -1.343  -4.801   2.884  0.00  0.00    +0.000 A 
ATOM     18  C   UNL     1      -2.585  -5.345   2.616  0.00  0.00    +0.000 A 
ATOM     19  C   UNL     1      -2.726  -6.286   1.613  0.00  0.00    +0.000 A 
ATOM     20  C   UNL     1      -1.625  -6.681   0.876  0.00  0.00    +0.004 A 
ENDBRANCH   8  15
ENDBRANCH   7   8
ENDBRANCH   6   7
ENDBRANCH   4   6
ENDBRANCH   1   2
BRANCH   1  22
ATOM     21  C   UNL     1       2.170   0.919  -2.594  0.00  0.00    +0.005 C 
ATOM     22  C   UNL     1       1.350  -0.277  -2.106  0.00  0.00    +0.020 C 
ENDBRANCH   1  22
BRANCH   1  23
ATOM     23  S   UNL     1       0.673  -0.888  -4.684  0.00  0.00    -0.075 S 
BRANCH  23  24
ATOM     24  C   UNL     1       1.079  -2.177  -5.815  0.00  0.00    +0.172 A 
ATOM     25  N   UNL     1       1.882  -3.149  -5.429  0.00  0.00    -0.228 NA
ATOM     26  C   UNL     1       2.214  -4.141  -6.252  0.00  0.00    +0.050 A 
ATOM     27  C   UNL     1       1.721  -4.169  -7.525  0.00  0.00    +0.042 A 
ATOM     28  C   UNL     1       0.864  -3.137  -7.945  0.00  0.00    +0.258 A 
ATOM     29  O   UNL     1       0.406  -3.131  -9.076  0.00  0.00    -0.267 OA
ATOM     30  N   UNL     1       0.553  -2.155  -7.072  0.00  0.00    -0.291 N 
ATOM     31  C   UNL     1      -0.342  -1.068  -7.475  0.00  0.00    +0.154 C 
ATOM     32  C   UNL     1       3.135  -5.235  -5.778  0.00  0.00    +0.066 C 
BRANCH  27  33
ATOM     33  C   UNL     1       2.091  -5.287  -8.465  0.00  0.00    +0.077 C 
BRANCH  33  34
ATOM     34  C   UNL     1       1.028  -6.354  -8.418  0.00  0.00    -0.043 A 
ATOM     35  C   UNL     1       1.128  -7.390  -7.508  0.00  0.00    +0.004 A 
ATOM     36  C   UNL     1       0.153  -8.369  -7.465  0.00  0.00    +0.000 A 
ATOM     37  C   UNL     1      -0.922  -8.312  -8.333  0.00  0.00    +0.000 A 
ATOM     38  C   UNL     1      -1.022  -7.276  -9.243  0.00  0.00    +0.000 A 
ATOM     39  C   UNL     1      -0.049  -6.295  -9.283  0.00  0.00    +0.004 A 
ENDBRANCH  33  34
ENDBRANCH  27  33
ENDBRANCH  23  24
ENDBRANCH   1  23
TORSDOF 11
