REMARK  Name = ZINC01776645
REMARK  10 active torsions:
REMARK  status: ('A' for Active; 'I' for Inactive)
REMARK    1  A    between atoms: C_1  and  C_2
REMARK    2  A    between atoms: C_2  and  O_3
REMARK    3  A    between atoms: O_3  and  C_4
REMARK    4  A    between atoms: C_4  and  C_6
REMARK    5  A    between atoms: C_10  and  N_11
REMARK    6  A    between atoms: C_12  and  C_14
REMARK    7  A    between atoms: C_15  and  C_16
REMARK    8  A    between atoms: C_19  and  C_22
REMARK    9  A    between atoms: C_22  and  C_23
REMARK   10  A    between atoms: C_22  and  C_24
REMARK                            x       y       z     vdW  Elec       q    Type
REMARK                         _______ _______ _______ _____ _____    ______ ____
ROOT
ATOM      1  N   UNL     1      -1.312   3.406   0.027  0.00  0.00    -0.276 N 
ATOM      2  C   UNL     1      -1.293   2.059   0.019  0.00  0.00    +0.241 C 
ATOM      3  O   UNL     1      -2.339   1.436   0.021  0.00  0.00    -0.270 OA
ATOM      4  H   UNL     1      -0.478   3.903   0.025  0.00  0.00    +0.156 HD
ENDROOT
BRANCH   1   9
ATOM      5  C   UNL     1      -2.742   5.454   0.050  0.00  0.00    +0.091 A 
ATOM      6  C   UNL     1      -4.122   5.910   0.055  0.00  0.00    -0.021 A 
ATOM      7  C   UNL     1      -5.051   4.930   0.054  0.00  0.00    -0.004 A 
ATOM      8  S   UNL     1      -4.122   3.423   0.041  0.00  0.00    -0.077 S 
ATOM      9  C   UNL     1      -2.520   4.082   0.036  0.00  0.00    +0.087 A 
ATOM     10  C   UNL     1      -6.540   5.097   0.064  0.00  0.00    +0.043 C 
ATOM     11  C   UNL     1      -6.861   6.548   0.452  0.00  0.00    +0.005 C 
ATOM     12  C   UNL     1      -5.987   7.487  -0.384  0.00  0.00    +0.005 C 
ATOM     13  C   UNL     1      -4.529   7.378   0.064  0.00  0.00    +0.037 C 
BRANCH   5  14
ATOM     14  C   UNL     1      -1.628   6.404   0.057  0.00  0.00    +0.342 C 
ATOM     15  O   UNL     1      -1.168   6.809  -0.994  0.00  0.00    -0.245 OA
BRANCH  14  16
ATOM     16  O   UNL     1      -1.111   6.829   1.228  0.00  0.00    -0.461 OA
BRANCH  16  18
ATOM     17  C   UNL     1       0.441   8.136   2.575  0.00  0.00    +0.048 C 
ATOM     18  C   UNL     1      -0.008   7.771   1.158  0.00  0.00    +0.229 C 
ENDBRANCH  16  18
ENDBRANCH  14  16
ENDBRANCH   5  14
ENDBRANCH   1   9
BRANCH   2  19
ATOM     19  C   UNL     1      -0.016   1.344   0.009  0.00  0.00    +0.068 C 
ATOM     20  C   UNL     1       0.002  -0.004   0.002  0.00  0.00    +0.013 C 
BRANCH  20  21
ATOM     21  C   UNL     1       1.287  -0.723  -0.014  0.00  0.00    -0.025 A 
ATOM     22  C   UNL     1       2.490  -0.011  -0.028  0.00  0.00    +0.008 A 
ATOM     23  C   UNL     1       3.689  -0.691  -0.037  0.00  0.00    +0.004 A 
ATOM     24  C   UNL     1       3.704  -2.075  -0.045  0.00  0.00    -0.045 A 
ATOM     25  C   UNL     1       2.517  -2.787  -0.037  0.00  0.00    +0.004 A 
ATOM     26  C   UNL     1       1.310  -2.121  -0.022  0.00  0.00    +0.008 A 
BRANCH  24  27
ATOM     27  C   UNL     1       5.019  -2.811  -0.062  0.00  0.00    +0.013 C 
ATOM     28  C   UNL     1       5.804  -2.423  -1.317  0.00  0.00    +0.012 C 
ATOM     29  C   UNL     1       5.829  -2.437   1.181  0.00  0.00    +0.012 C 
ENDBRANCH  24  27
ENDBRANCH  20  21
ENDBRANCH   2  19
TORSDOF 7
