REMARK  Name = ZINC04140470
REMARK  6 active torsions:
REMARK  status: ('A' for Active; 'I' for Inactive)
REMARK    1  A    between atoms: C_1  and  C_2
REMARK    2  A    between atoms: C_5  and  C_29
REMARK    3  A    between atoms: C_15  and  C_18
REMARK    4  A    between atoms: C_21  and  O_27
REMARK    5  A    between atoms: C_22  and  N_24
REMARK    6  A    between atoms: O_27  and  C_28
REMARK                            x       y       z     vdW  Elec       q    Type
REMARK                         _______ _______ _______ _____ _____    ______ ____
ROOT
ATOM      1  C   UNL     1       2.905  -0.871  -0.050  0.00  0.00    +0.044 C 
ATOM      2  C   UNL     1       1.726   0.064   0.024  0.00  0.00    -0.045 A 
ATOM      3  C   UNL     1       0.448  -0.451   0.098  0.00  0.00    +0.004 A 
ATOM      4  C   UNL     1      -0.640   0.401   0.165  0.00  0.00    +0.005 A 
ATOM      5  C   UNL     1      -0.442   1.766   0.157  0.00  0.00    -0.029 A 
ATOM      6  C   UNL     1       0.848   2.289   0.081  0.00  0.00    +0.035 A 
ATOM      7  C   UNL     1       1.935   1.437   0.016  0.00  0.00    -0.016 A 
ATOM      8  C   UNL     1       3.357   1.926  -0.062  0.00  0.00    +0.049 C 
ATOM      9  C   UNL     1       3.934   1.486  -1.398  0.00  0.00    -0.023 C 
ATOM     10  C   UNL     1       3.848   2.452  -2.277  0.00  0.00    -0.030 C 
ATOM     11  C   UNL     1       3.200   3.677  -1.660  0.00  0.00    +0.033 C 
ATOM     12  C   UNL     1       3.418   3.465  -0.141  0.00  0.00    +0.029 C 
ATOM     13  C   UNL     1       2.276   4.087   0.647  0.00  0.00    +0.105 C 
ATOM     14  N   UNL     1       0.993   3.676   0.075  0.00  0.00    -0.336 N 
ATOM     15  C   UNL     1      -1.626   2.695   0.222  0.00  0.00    +0.045 C 
ATOM     16  H   UNL     1       0.876   4.048  -0.855  0.00  0.00    +0.147 HD
ENDROOT
BRANCH  13  17
ATOM     17  C   UNL     1       2.353   3.631   2.082  0.00  0.00    -0.025 A 
ATOM     18  C   UNL     1       3.578   3.313   2.640  0.00  0.00    +0.009 A 
ATOM     19  C   UNL     1       3.651   2.895   3.955  0.00  0.00    +0.048 A 
ATOM     20  C   UNL     1       2.495   2.795   4.715  0.00  0.00    +0.150 A 
ATOM     21  C   UNL     1       1.268   3.114   4.153  0.00  0.00    +0.168 A 
ATOM     22  C   UNL     1       1.200   3.537   2.839  0.00  0.00    +0.042 A 
BRANCH  21  23
ATOM     23  N   UNL     1       0.032   3.008   4.961  0.00  0.00    +0.060 N 
ATOM     24  O   UNL     1      -1.045   3.289   4.466  0.00  0.00    -0.126 OA
ATOM     25  O   UNL     1       0.093   2.641   6.120  0.00  0.00    -0.126 OA
ENDBRANCH  21  23
BRANCH  20  26
ATOM     26  O   UNL     1       2.564   2.383   6.009  0.00  0.00    -0.493 OA
ATOM     27  C   UNL     1       3.861   2.071   6.521  0.00  0.00    +0.277 C 
ENDBRANCH  20  26
ENDBRANCH  13  17
TORSDOF 3
