REMARK  Name = ZINC00259310
REMARK  5 active torsions:
REMARK  status: ('A' for Active; 'I' for Inactive)
REMARK    1  A    between atoms: C_4  and  C_7
REMARK    2  A    between atoms: C_7  and  C_8
REMARK    3  A    between atoms: N_10  and  N_11
REMARK    4  A    between atoms: C_12  and  C_13
REMARK    5  A    between atoms: C_18  and  O_19
REMARK                            x       y       z     vdW  Elec       q    Type
REMARK                         _______ _______ _______ _____ _____    ______ ____
ROOT
ATOM      1  C   UNL     1      -2.419  -4.128   0.004  0.00  0.00    +0.237 C 
ATOM      2  O   UNL     1      -1.358  -4.717  -0.010  0.00  0.00    -0.274 OA
ATOM      3  N   UNL     1      -2.441  -2.781   0.011  0.00  0.00    -0.207 N 
ATOM      4  H   UNL     1      -3.289  -2.310   0.022  0.00  0.00    +0.177 HD
ENDROOT
BRANCH   3   5
ATOM      5  N   UNL     1      -1.240  -2.060   0.003  0.00  0.00    -0.188 NA
ATOM      6  C   UNL     1      -1.262  -0.762   0.011  0.00  0.00    +0.142 C 
BRANCH   6   7
ATOM      7  C   UNL     1       0.002  -0.004   0.002  0.00  0.00    +0.037 A 
ATOM      8  C   UNL     1      -0.017   1.393   0.010  0.00  0.00    +0.028 A 
ATOM      9  C   UNL     1       1.170   2.096   0.002  0.00  0.00    +0.019 A 
ATOM     10  C   UNL     1       2.381   1.423  -0.013  0.00  0.00    +0.019 A 
ATOM     11  C   UNL     1       2.412   0.041  -0.021  0.00  0.00    +0.047 A 
ATOM     12  C   UNL     1       1.229  -0.680  -0.013  0.00  0.00    +0.126 A 
ATOM     13 BR   UNL     1       1.144   3.987   0.012  0.00  0.00    -0.050 Br
BRANCH  12  14
ATOM     14  O   UNL     1       1.260  -2.038  -0.021  0.00  0.00    -0.506 OA
ATOM     15  H   UNL     1       1.260  -2.427  -0.906  0.00  0.00    +0.292 HD
ENDBRANCH  12  14
ENDBRANCH   6   7
ENDBRANCH   3   5
BRANCH   1  16
ATOM     16  C   UNL     1      -3.711  -4.904   0.013  0.00  0.00    +0.132 C 
BRANCH  16  20
ATOM     17  C   UNL     1      -2.861  -9.090  -0.018  0.00  0.00    +0.000 A 
ATOM     18  C   UNL     1      -2.986  -8.419   1.184  0.00  0.00    +0.000 A 
ATOM     19  C   UNL     1      -3.261  -7.064   1.194  0.00  0.00    +0.004 A 
ATOM     20  C   UNL     1      -3.411  -6.380   0.002  0.00  0.00    -0.039 A 
ATOM     21  C   UNL     1      -3.291  -7.053  -1.200  0.00  0.00    +0.004 A 
ATOM     22  C   UNL     1      -3.011  -8.406  -1.210  0.00  0.00    +0.000 A 
ENDBRANCH  16  20
ENDBRANCH   1  16
TORSDOF 5
