REMARK  Name = ZINC48993542
REMARK  5 active torsions:
REMARK  status: ('A' for Active; 'I' for Inactive)
REMARK    1  A    between atoms: C_1  and  C_2
REMARK    2  A    between atoms: C_6  and  C_21
REMARK    3  A    between atoms: C_8  and  N_11
REMARK    4  A    between atoms: N_14  and  C_17
REMARK    5  A    between atoms: C_17  and  C_18
REMARK                            x       y       z     vdW  Elec       q    Type
REMARK                         _______ _______ _______ _____ _____    ______ ____
ROOT
ATOM      1  N   UNL     1       2.888  -0.468   2.421  0.00  0.00    -0.302 NA
ATOM      2  C   UNL     1       2.245   0.013   3.652  0.00  0.00    +0.066 C 
ATOM      3  C   UNL     1       2.978  -0.563   4.865  0.00  0.00    -0.063 C 
ATOM      4  N   UNL     1       4.385  -0.144   4.832  0.00  0.00    +0.382 N 
ATOM      5  C   UNL     1       5.020  -0.653   3.609  0.00  0.00    -0.063 C 
ATOM      6  C   UNL     1       4.304  -0.077   2.385  0.00  0.00    +0.066 C 
ATOM      7  H   UNL     1       4.436   0.864   4.843  0.00  0.00    -0.082 HD
ENDROOT
BRANCH   1  13
ATOM      8  C   UNL     1       2.098   1.647  -1.204  0.00  0.00    +0.007 C 
ATOM      9  C   UNL     1       1.324   2.050   0.053  0.00  0.00    -0.013 C 
ATOM     10  C   UNL     1      -0.077   1.435   0.008  0.00  0.00    +0.004 C 
ATOM     11  C   UNL     1       0.037  -0.089  -0.054  0.00  0.00    +0.020 C 
ATOM     12  C   UNL     1       0.777  -0.596   1.186  0.00  0.00    +0.109 C 
ATOM     13  C   UNL     1       2.178   0.019   1.231  0.00  0.00    +0.074 C 
ATOM     14  C   UNL     1       2.064   1.543   1.292  0.00  0.00    +0.023 C 
BRANCH  12  15
ATOM     15  C   UNL     1       0.886  -2.063   1.127  0.00  0.00    +0.067 C 
ATOM     16  N   UNL     1       0.971  -3.195   1.081  0.00  0.00    -0.196 NA
ENDBRANCH  12  15
ENDBRANCH   1  13
BRANCH   4  17
ATOM     17  C   UNL     1       5.084  -0.682   6.007  0.00  0.00    -0.075 C 
BRANCH  17  18
ATOM     18  C   UNL     1       6.516  -0.145   6.039  0.00  0.00    -0.028 C 
ATOM     19  C   UNL     1       7.654  -1.159   5.903  0.00  0.00    +0.002 C 
ATOM     20  C   UNL     1       7.376  -0.498   7.254  0.00  0.00    +0.002 C 
ENDBRANCH  17  18
ENDBRANCH   4  17
TORSDOF 4
