REMARK  Name = ZINC20150422
REMARK  9 active torsions:
REMARK  status: ('A' for Active; 'I' for Inactive)
REMARK    1  A    between atoms: C_1  and  C_2
REMARK    2  A    between atoms: C_2  and  O_3
REMARK    3  A    between atoms: O_3  and  C_4
REMARK    4  A    between atoms: C_4  and  C_6
REMARK    5  A    between atoms: C_6  and  C_27
REMARK    6  A    between atoms: C_11  and  C_14
REMARK    7  A    between atoms: N_23  and  C_26
REMARK    8  A    between atoms: C_27  and  C_28
REMARK    9  A    between atoms: C_31  and  O_34
REMARK                            x       y       z     vdW  Elec       q    Type
REMARK                         _______ _______ _______ _____ _____    ______ ____
ROOT
ATOM      1  C   UNL     1       1.468  -2.353  -2.550  0.00  0.00    +0.133 C 
ATOM      2  C   UNL     1       0.895  -3.742  -2.903  0.00  0.00    +0.120 C 
ATOM      3  C   UNL     1      -0.195  -3.463  -3.971  0.00  0.00    +0.111 C 
ATOM      4  C   UNL     1      -0.190  -1.931  -4.152  0.00  0.00    +0.100 C 
ATOM      5  N   UNL     1       1.182  -1.514  -3.741  0.00  0.00    -0.293 NA
ATOM      6  C   UNL     1       0.355  -4.127  -5.214  0.00  0.00    +0.227 C 
ATOM      7  O   UNL     1      -0.190  -4.148  -6.297  0.00  0.00    -0.275 OA
ATOM      8  N   UNL     1       1.537  -4.686  -4.932  0.00  0.00    -0.245 N 
ATOM      9  C   UNL     1       1.943  -4.537  -3.649  0.00  0.00    +0.228 C 
ATOM     10  O   UNL     1       2.972  -4.963  -3.171  0.00  0.00    -0.275 OA
ATOM     11  C   UNL     1       2.330  -5.409  -5.929  0.00  0.00    +0.141 C 
ATOM     12  H   UNL     1       1.202  -0.533  -3.505  0.00  0.00    +0.124 HD
ENDROOT
BRANCH   4  13
ATOM     13  C   UNL     1      -0.424  -1.571  -5.596  0.00  0.00    +0.005 A 
ATOM     14  C   UNL     1       0.651  -1.338  -6.433  0.00  0.00    +0.008 A 
ATOM     15  C   UNL     1       0.437  -1.008  -7.759  0.00  0.00    +0.000 A 
ATOM     16  C   UNL     1      -0.852  -0.912  -8.249  0.00  0.00    +0.003 A 
ATOM     17  C   UNL     1      -1.928  -1.145  -7.414  0.00  0.00    +0.038 A 
ATOM     18  C   UNL     1      -1.715  -1.480  -6.088  0.00  0.00    +0.128 A 
ATOM     19  F   UNL     1      -2.766  -1.714  -5.272  0.00  0.00    -0.205 F 
ENDBRANCH   4  13
BRANCH   1  20
ATOM     20  C   UNL     1       0.775  -1.794  -1.334  0.00  0.00    +0.329 C 
ATOM     21  O   UNL     1       0.314  -2.540  -0.504  0.00  0.00    -0.249 OA
BRANCH  20  22
ATOM     22  O   UNL     1       0.671  -0.465  -1.174  0.00  0.00    -0.464 OA
BRANCH  22  24
ATOM     23  C   UNL     1      -0.019   1.526   0.010  0.00  0.00    +0.048 C 
ATOM     24  C   UNL     1       0.002  -0.004   0.002  0.00  0.00    +0.229 C 
ENDBRANCH  22  24
ENDBRANCH  20  22
ENDBRANCH   1  20
BRANCH   1  25
ATOM     25  C   UNL     1       2.976  -2.442  -2.309  0.00  0.00    +0.069 C 
BRANCH  25  26
ATOM     26  C   UNL     1       3.518  -1.068  -2.007  0.00  0.00    -0.045 A 
ATOM     27  C   UNL     1       3.957  -0.257  -3.037  0.00  0.00    +0.007 A 
ATOM     28  C   UNL     1       4.455   1.002  -2.763  0.00  0.00    +0.045 A 
ATOM     29  C   UNL     1       4.512   1.453  -1.452  0.00  0.00    +0.117 A 
ATOM     30  C   UNL     1       4.071   0.638  -0.420  0.00  0.00    +0.045 A 
ATOM     31  C   UNL     1       3.569  -0.619  -0.701  0.00  0.00    +0.007 A 
BRANCH  29  32
ATOM     32  O   UNL     1       5.002   2.691  -1.179  0.00  0.00    -0.507 OA
ATOM     33  H   UNL     1       4.331   3.388  -1.181  0.00  0.00    +0.292 HD
ENDBRANCH  29  32
ENDBRANCH  25  26
ENDBRANCH   1  25
TORSDOF 7
