REMARK  Name = ZINC03250964
REMARK  4 active torsions:
REMARK  status: ('A' for Active; 'I' for Inactive)
REMARK    1  A    between atoms: C_1  and  C_2
REMARK    2  A    between atoms: C_5  and  C_8
REMARK    3  A    between atoms: C_8  and  N_9
REMARK    4  A    between atoms: C_17  and  C_19
REMARK                            x       y       z     vdW  Elec       q    Type
REMARK                         _______ _______ _______ _____ _____    ______ ____
ROOT
ATOM      1  N   UNL     1       1.447  -4.746  -0.032  0.00  0.00    -0.324 N 
ATOM      2  C   UNL     1       1.717  -6.102  -0.041  0.00  0.00    +0.131 A 
ATOM      3  C   UNL     1       3.060  -6.571  -0.045  0.00  0.00    +0.051 A 
ATOM      4  C   UNL     1       4.304  -5.784  -0.041  0.00  0.00    -0.025 A 
ATOM      5  C   UNL     1       5.457  -6.472  -0.047  0.00  0.00    -0.004 A 
ATOM      6  S   UNL     1       4.975  -8.184  -0.055  0.00  0.00    -0.073 S 
ATOM      7  C   UNL     1       3.216  -7.969  -0.053  0.00  0.00    +0.114 A 
ATOM      8  N   UNL     1       2.175  -8.779  -0.057  0.00  0.00    -0.225 NA
ATOM      9  C   UNL     1       0.951  -8.287  -0.053  0.00  0.00    +0.129 A 
ATOM     10  N   UNL     1       0.730  -6.984  -0.040  0.00  0.00    -0.217 NA
ATOM     11  C   UNL     1      -0.223  -9.232  -0.058  0.00  0.00    +0.088 C 
ATOM     12  C   UNL     1       6.659  -5.566  -0.048  0.00  0.00    +0.043 C 
ATOM     13  C   UNL     1       6.107  -4.189  -0.476  0.00  0.00    +0.010 C 
ATOM     14  C   UNL     1       4.635  -4.289  -0.028  0.00  0.00    +0.037 C 
ATOM     15  H   UNL     1       2.176  -4.106  -0.032  0.00  0.00    +0.148 HD
ENDROOT
BRANCH   1  16
ATOM     16  C   UNL     1       0.059  -4.275  -0.021  0.00  0.00    +0.138 C 
BRANCH  16  21
ATOM     17  C   UNL     1      -0.018   1.503   0.010  0.00  0.00    +0.044 C 
ATOM     18  C   UNL     1       0.002  -0.004   0.002  0.00  0.00    -0.050 A 
ATOM     19  C   UNL     1       0.006  -0.689  -1.199  0.00  0.00    +0.003 A 
ATOM     20  C   UNL     1       0.025  -2.071  -1.206  0.00  0.00    +0.005 A 
ATOM     21  C   UNL     1       0.040  -2.768  -0.013  0.00  0.00    -0.030 A 
ATOM     22  C   UNL     1       0.037  -2.084   1.188  0.00  0.00    +0.005 A 
ATOM     23  C   UNL     1       0.023  -0.702   1.195  0.00  0.00    +0.003 A 
ENDBRANCH  16  21
ENDBRANCH   1  16
TORSDOF 2
