REMARK  Name = ZINC59166039
REMARK  10 active torsions:
REMARK  status: ('A' for Active; 'I' for Inactive)
REMARK    1  A    between atoms: C_1  and  C_2
REMARK    2  A    between atoms: C_2  and  C_3
REMARK    3  A    between atoms: C_2  and  C_4
REMARK    4  A    between atoms: N_11  and  N_12
REMARK    5  A    between atoms: C_13  and  C_15
REMARK    6  A    between atoms: C_15  and  N_16
REMARK    7  A    between atoms: N_16  and  C_17
REMARK    8  A    between atoms: N_16  and  C_24
REMARK    9  A    between atoms: C_17  and  C_18
REMARK   10  A    between atoms: C_24  and  C_25
REMARK                            x       y       z     vdW  Elec       q    Type
REMARK                         _______ _______ _______ _____ _____    ______ ____
ROOT
ATOM      1  N   UNL     1      -2.475  -4.059  -3.838  0.00  0.00    -0.208 N 
ATOM      2  C   UNL     1      -1.960  -4.211  -5.074  0.00  0.00    +0.216 C 
ATOM      3  O   UNL     1      -2.547  -4.881  -5.896  0.00  0.00    -0.276 OA
ATOM      4  H   UNL     1      -2.006  -3.522  -3.180  0.00  0.00    +0.177 HD
ENDROOT
BRANCH   1  12
ATOM      5  C   UNL     1      -2.071  -2.616   0.264  0.00  0.00    -0.044 A 
ATOM      6  C   UNL     1      -2.989  -2.684   1.298  0.00  0.00    +0.006 A 
ATOM      7  C   UNL     1      -4.205  -3.312   1.118  0.00  0.00    +0.024 A 
ATOM      8  C   UNL     1      -4.520  -3.884  -0.109  0.00  0.00    +0.043 A 
ATOM      9  C   UNL     1      -3.588  -3.813  -1.152  0.00  0.00    +0.028 A 
ATOM     10  C   UNL     1      -2.368  -3.174  -0.963  0.00  0.00    +0.016 A 
ATOM     11  C   UNL     1      -4.204  -4.501  -2.311  0.00  0.00    +0.153 C 
ATOM     12  N   UNL     1      -3.688  -4.675  -3.503  0.00  0.00    -0.175 NA
ATOM     13  C   UNL     1      -5.527  -4.949  -1.829  0.00  0.00    +0.269 C 
ATOM     14  O   UNL     1      -6.356  -5.559  -2.478  0.00  0.00    -0.268 OA
ATOM     15  N   UNL     1      -5.652  -4.562  -0.548  0.00  0.00    -0.280 N 
ATOM     16  H   UNL     1      -6.433  -4.735   0.001  0.00  0.00    +0.155 HD
BRANCH   5  18
ATOM     17  C   UNL     1      -0.988  -0.466   0.861  0.00  0.00    +0.012 C 
ATOM     18  C   UNL     1      -0.747  -1.927   0.477  0.00  0.00    +0.013 C 
ATOM     19  C   UNL     1       0.019  -2.630   1.599  0.00  0.00    +0.012 C 
ENDBRANCH   5  18
ENDBRANCH   1  12
BRANCH   2  20
ATOM     20  C   UNL     1      -0.656  -3.548  -5.434  0.00  0.00    +0.021 C 
BRANCH  20  21
ATOM     21  N   UNL     1      -0.385  -3.744  -6.864  0.00  0.00    +0.391 N 
ATOM     22  H   UNL     1      -0.437  -4.727  -7.085  0.00  0.00    -0.080 HD
BRANCH  21  23
ATOM     23  C   UNL     1      -1.383  -3.012  -7.656  0.00  0.00    -0.042 C 
BRANCH  23  24
ATOM     24  C   UNL     1      -1.181  -3.311  -9.119  0.00  0.00    -0.064 A 
ATOM     25  C   UNL     1      -0.334  -2.522  -9.875  0.00  0.00    +0.002 A 
ATOM     26  C   UNL     1      -0.149  -2.796 -11.217  0.00  0.00    +0.000 A 
ATOM     27  C   UNL     1      -0.811  -3.859 -11.803  0.00  0.00    +0.000 A 
ATOM     28  C   UNL     1      -1.657  -4.648 -11.047  0.00  0.00    +0.000 A 
ATOM     29  C   UNL     1      -1.839  -4.376  -9.704  0.00  0.00    +0.002 A 
ENDBRANCH  23  24
ENDBRANCH  21  23
BRANCH  21  30
ATOM     30  C   UNL     1       0.958  -3.240  -7.182  0.00  0.00    -0.042 C 
BRANCH  30  31
ATOM     31  C   UNL     1       1.989  -4.068  -6.458  0.00  0.00    -0.064 A 
ATOM     32  C   UNL     1       2.497  -3.634  -5.248  0.00  0.00    +0.002 A 
ATOM     33  C   UNL     1       3.443  -4.393  -4.585  0.00  0.00    +0.000 A 
ATOM     34  C   UNL     1       3.880  -5.585  -5.130  0.00  0.00    +0.000 A 
ATOM     35  C   UNL     1       3.370  -6.019  -6.340  0.00  0.00    +0.000 A 
ATOM     36  C   UNL     1       2.421  -5.263  -7.002  0.00  0.00    +0.002 A 
ENDBRANCH  30  31
ENDBRANCH  21  30
ENDBRANCH  20  21
ENDBRANCH   2  20
TORSDOF 8
