REMARK  Name = ZINC33812665
REMARK  14 active torsions:
REMARK  status: ('A' for Active; 'I' for Inactive)
REMARK    1  A    between atoms: C_1  and  C_2
REMARK    2  A    between atoms: C_2  and  C_3
REMARK    3  A    between atoms: C_3  and  C_4
REMARK    4  A    between atoms: C_4  and  N_5
REMARK    5  A    between atoms: C_6  and  N_27
REMARK    6  A    between atoms: C_7  and  C_15
REMARK    7  A    between atoms: C_8  and  C_14
REMARK    8  A    between atoms: C_9  and  C_12
REMARK    9  A    between atoms: N_19  and  C_23
REMARK   10  A    between atoms: C_23  and  C_24
REMARK   11  A    between atoms: C_24  and  O_25
REMARK   12  A    between atoms: O_25  and  C_26
REMARK   13  A    between atoms: N_30  and  C_33
REMARK   14  A    between atoms: C_33  and  C_34
REMARK                            x       y       z     vdW  Elec       q    Type
REMARK                         _______ _______ _______ _____ _____    ______ ____
ROOT
ATOM      1  N   UNL     1       1.877  -2.406  -2.511  0.00  0.00    -0.295 N 
ATOM      2  C   UNL     1       1.039  -2.674  -3.545  0.00  0.00    +0.112 A 
ATOM      3  C   UNL     1       1.453  -3.500  -4.603  0.00  0.00    +0.019 A 
ATOM      4  C   UNL     1       2.746  -4.049  -4.585  0.00  0.00    -0.017 A 
ATOM      5  C   UNL     1       3.586  -3.758  -3.514  0.00  0.00    +0.120 A 
ATOM      6  C   UNL     1       3.121  -2.915  -2.473  0.00  0.00    +0.270 A 
ATOM      7  O   UNL     1       3.853  -2.653  -1.535  0.00  0.00    -0.266 OA
ATOM      8  C   UNL     1       3.216  -4.938  -5.708  0.00  0.00    +0.046 C 
ENDROOT
BRANCH   3   9
ATOM      9  C   UNL     1       0.545  -3.786  -5.715  0.00  0.00    +0.032 C 
ATOM     10  C   UNL     1       0.842  -3.344  -6.968  0.00  0.00    +0.077 C 
ATOM     11  C   UNL     1       0.137  -3.546  -8.193  0.00  0.00    +0.258 C 
ATOM     12  O   UNL     1      -0.893  -4.195  -8.225  0.00  0.00    -0.269 OA
ATOM     13  N   UNL     1       0.635  -3.006  -9.292  0.00  0.00    -0.253 N 
ATOM     14  C   UNL     1       1.778  -2.285  -9.256  0.00  0.00    +0.121 C 
ATOM     15  S   UNL     1       2.595  -1.505 -10.542  0.00  0.00    -0.027 S 
ATOM     16  S   UNL     1       2.217  -2.347  -7.525  0.00  0.00    -0.061 S 
BRANCH  13  17
ATOM     17  C   UNL     1      -0.061  -3.192 -10.567  0.00  0.00    +0.143 C 
BRANCH  17  18
ATOM     18  C   UNL     1      -1.068  -2.057 -10.769  0.00  0.00    +0.179 C 
BRANCH  18  19
ATOM     19  O   UNL     1      -0.369  -0.817 -10.896  0.00  0.00    -0.381 OA
ATOM     20  C   UNL     1      -1.221   0.313 -11.090  0.00  0.00    +0.194 C 
ENDBRANCH  18  19
ENDBRANCH  17  18
ENDBRANCH  13  17
ENDBRANCH   3   9
BRANCH   2  21
ATOM     21  N   UNL     1      -0.216  -2.138  -3.556  0.00  0.00    -0.320 N 
ATOM     22  C   UNL     1      -0.489  -0.867  -4.245  0.00  0.00    +0.088 C 
ATOM     23  C   UNL     1      -1.699  -1.062  -5.164  0.00  0.00    -0.060 C 
ATOM     24  N   UNL     1      -2.828  -1.583  -4.381  0.00  0.00    +0.382 N 
ATOM     25  C   UNL     1      -2.504  -2.918  -3.864  0.00  0.00    -0.060 C 
ATOM     26  C   UNL     1      -1.335  -2.817  -2.886  0.00  0.00    +0.088 C 
ATOM     27  H   UNL     1      -3.015  -0.961  -3.609  0.00  0.00    -0.082 HD
BRANCH  24  28
ATOM     28  C   UNL     1      -4.018  -1.666  -5.238  0.00  0.00    -0.082 C 
ATOM     29  C   UNL     1      -5.223  -2.089  -4.396  0.00  0.00    -0.017 C 
ENDBRANCH  24  28
ENDBRANCH   2  21
BRANCH   5  30
ATOM     30  C   UNL     1       4.910  -4.302  -3.466  0.00  0.00    +0.105 C 
ATOM     31  N   UNL     1       5.960  -4.734  -3.428  0.00  0.00    -0.191 NA
ENDBRANCH   5  30
BRANCH   1  32
ATOM     32  C   UNL     1       1.419  -1.542  -1.419  0.00  0.00    +0.126 C 
BRANCH  32  33
ATOM     33  C   UNL     1       1.872  -0.104  -1.683  0.00  0.00    +0.021 C 
BRANCH  33  35
ATOM     34  C   UNL     1       1.847   2.235  -0.807  0.00  0.00    +0.004 C 
ATOM     35  C   UNL     1       1.394   0.798  -0.543  0.00  0.00    -0.002 C 
ENDBRANCH  33  35
ENDBRANCH  32  33
ENDBRANCH   1  32
TORSDOF 10
