REMARK  Name = ZINC56953156
REMARK  6 active torsions:
REMARK  status: ('A' for Active; 'I' for Inactive)
REMARK    1  A    between atoms: C_4  and  N_26
REMARK    2  A    between atoms: C_5  and  C_7
REMARK    3  A    between atoms: C_7  and  N_8
REMARK    4  A    between atoms: N_11  and  N_12
REMARK    5  A    between atoms: C_13  and  C_15
REMARK    6  A    between atoms: C_15  and  C_16
REMARK                            x       y       z     vdW  Elec       q    Type
REMARK                         _______ _______ _______ _____ _____    ______ ____
ROOT
ATOM      1  N   UNL     1       1.485  -2.680   1.333  0.00  0.00    -0.294 N 
ATOM      2  C   UNL     1       1.548  -4.005   1.568  0.00  0.00    +0.316 C 
ATOM      3  O   UNL     1       1.389  -4.792   0.655  0.00  0.00    -0.251 OA
ATOM      4  N   UNL     1       1.786  -4.459   2.814  0.00  0.00    -0.218 N 
ATOM      5  H   UNL     1       1.612  -2.052   2.062  0.00  0.00    +0.151 HD
ATOM      6  H   UNL     1       1.831  -5.413   2.983  0.00  0.00    +0.174 HD
ENDROOT
BRANCH   4   7
ATOM      7  N   UNL     1       1.970  -3.552   3.866  0.00  0.00    -0.233 N 
ATOM      8  C   UNL     1       2.208  -4.005   5.113  0.00  0.00    +0.234 C 
ATOM      9  O   UNL     1       2.264  -5.199   5.324  0.00  0.00    -0.274 OA
ATOM     10  H   UNL     1       1.925  -2.598   3.698  0.00  0.00    +0.173 HD
BRANCH   8  11
ATOM     11  C   UNL     1       2.405  -3.030   6.245  0.00  0.00    +0.134 C 
BRANCH  11  12
ATOM     12  C   UNL     1       2.654  -3.788   7.523  0.00  0.00    -0.014 A 
ATOM     13  C   UNL     1       1.736  -4.128   8.441  0.00  0.00    +0.087 A 
ATOM     14  N   UNL     1       2.332  -4.810   9.467  0.00  0.00    -0.360 N 
ATOM     15  H   UNL     1       1.872  -5.158  10.247  0.00  0.00    +0.165 HD
ATOM     16  C   UNL     1       3.683  -4.928   9.228  0.00  0.00    +0.047 A 
ATOM     17  C   UNL     1       3.943  -4.299   7.997  0.00  0.00    +0.003 A 
ATOM     18  C   UNL     1       5.244  -4.268   7.491  0.00  0.00    +0.010 A 
ATOM     19  C   UNL     1       6.259  -4.853   8.195  0.00  0.00    +0.001 A 
ATOM     20  C   UNL     1       6.007  -5.479   9.408  0.00  0.00    +0.002 A 
ATOM     21  C   UNL     1       4.732  -5.513   9.930  0.00  0.00    +0.026 A 
ENDBRANCH  11  12
ENDBRANCH   8  11
ENDBRANCH   4   7
BRANCH   1  22
ATOM     22  C   UNL     1       1.226  -2.187  -0.022  0.00  0.00    +0.143 C 
BRANCH  22  27
ATOM     23  C   UNL     1      -0.017   1.378   0.010  0.00  0.00    +0.000 A 
ATOM     24  C   UNL     1       1.170   2.089   0.002  0.00  0.00    +0.002 A 
ATOM     25  C   UNL     1       2.377   1.420  -0.013  0.00  0.00    +0.023 A 
ATOM     26  C   UNL     1       2.400   0.031  -0.021  0.00  0.00    +0.034 A 
ATOM     27  C   UNL     1       1.207  -0.680  -0.013  0.00  0.00    -0.009 A 
ATOM     28  C   UNL     1       0.002  -0.004   0.002  0.00  0.00    +0.007 A 
BRANCH  26  29
ATOM     29  N   UNL     1       3.620  -0.649  -0.036  0.00  0.00    -0.330 N 
ATOM     30  C   UNL     1       4.359  -1.055  -1.241  0.00  0.00    +0.105 C 
ATOM     31  C   UNL     1       5.629  -1.796  -0.771  0.00  0.00    +0.020 C 
ATOM     32  C   UNL     1       5.250  -2.262   0.660  0.00  0.00    +0.020 C 
ATOM     33  C   UNL     1       4.382  -1.074   1.152  0.00  0.00    +0.105 C 
ENDBRANCH  26  29
ENDBRANCH  22  27
ENDBRANCH   1  22
TORSDOF 6
