REMARK  Name = ZINC35054045
REMARK  3 active torsions:
REMARK  status: ('A' for Active; 'I' for Inactive)
REMARK    1  A    between atoms: C_5  and  C_7
REMARK    2  A    between atoms: C_7  and  N_8
REMARK    3  A    between atoms: N_8  and  C_9
REMARK                            x       y       z     vdW  Elec       q    Type
REMARK                         _______ _______ _______ _____ _____    ______ ____
ROOT
ATOM      1  C   UNL     1       1.554  -4.056   1.577  0.00  0.00    +0.050 A 
ATOM      2  C   UNL     1       1.378  -4.955   0.534  0.00  0.00    +0.073 A 
ATOM      3  C   UNL     1       1.444  -6.318   0.775  0.00  0.00    +0.164 A 
ATOM      4  C   UNL     1       1.688  -6.784   2.062  0.00  0.00    +0.164 A 
ATOM      5  C   UNL     1       1.861  -5.884   3.102  0.00  0.00    +0.071 A 
ATOM      6  C   UNL     1       1.801  -4.524   2.861  0.00  0.00    +0.065 A 
ATOM      7 CL   UNL     1       2.027  -3.400   4.165  0.00  0.00    -0.082 Cl
ATOM      8  O   UNL     1       1.763  -8.120   2.316  0.00  0.00    -0.485 OA
ATOM      9  C   UNL     1       1.216  -8.996   1.325  0.00  0.00    +0.270 C 
ATOM     10  C   UNL     1       1.710  -8.532  -0.052  0.00  0.00    +0.270 C 
ATOM     11  O   UNL     1       1.266  -7.187  -0.258  0.00  0.00    -0.485 OA
ENDROOT
BRANCH   1  12
ATOM     12  N   UNL     1       1.489  -2.679   1.333  0.00  0.00    -0.338 N 
ATOM     13  H   UNL     1       1.615  -2.051   2.062  0.00  0.00    +0.146 HD
BRANCH  12  14
ATOM     14  C   UNL     1       1.229  -2.186  -0.022  0.00  0.00    +0.138 C 
BRANCH  14  19
ATOM     15  C   UNL     1      -0.017   1.378   0.010  0.00  0.00    +0.000 A 
ATOM     16  C   UNL     1       1.171   2.086   0.002  0.00  0.00    +0.001 A 
ATOM     17  C   UNL     1       2.377   1.412  -0.013  0.00  0.00    +0.020 A 
ATOM     18  C   UNL     1       2.397   0.029  -0.021  0.00  0.00    +0.046 A 
ATOM     19  C   UNL     1       1.208  -0.679  -0.013  0.00  0.00    -0.012 A 
ATOM     20  C   UNL     1       0.002  -0.004   0.002  0.00  0.00    +0.006 A 
ATOM     21 CL   UNL     1       3.912  -0.818  -0.041  0.00  0.00    -0.083 Cl
ENDBRANCH  14  19
ENDBRANCH  12  14
ENDBRANCH   1  12
TORSDOF 3
