REMARK  Name = ZINC59015314
REMARK  7 active torsions:
REMARK  status: ('A' for Active; 'I' for Inactive)
REMARK    1  A    between atoms: C_1  and  C_2
REMARK    2  A    between atoms: C_7  and  N_8
REMARK    3  A    between atoms: C_9  and  C_11
REMARK    4  A    between atoms: C_11  and  S_12
REMARK    5  A    between atoms: S_12  and  C_13
REMARK    6  A    between atoms: N_18  and  N_19
REMARK    7  A    between atoms: C_20  and  C_21
REMARK                            x       y       z     vdW  Elec       q    Type
REMARK                         _______ _______ _______ _____ _____    ______ ____
ROOT
ATOM      1  C   UNL     1      -0.384  -0.116   7.687  0.00  0.00    +0.211 A 
ATOM      2  N   UNL     1      -0.471  -0.557   8.946  0.00  0.00    -0.186 NA
ATOM      3  C   UNL     1      -0.550   0.467   9.770  0.00  0.00    +0.232 A 
ATOM      4  N   UNL     1      -0.514   1.598   9.034  0.00  0.00    -0.245 N 
ATOM      5  N   UNL     1      -0.401   1.196   7.693  0.00  0.00    -0.144 NA
ATOM      6  N   UNL     1      -0.653   0.396  11.147  0.00  0.00    -0.205 N 
ATOM      7  H   UNL     1      -0.707   1.210  11.672  0.00  0.00    +0.177 HD
ATOM      8  H   UNL     1      -0.555   2.508   9.365  0.00  0.00    +0.192 HD
ENDROOT
BRANCH   6   9
ATOM      9  N   UNL     1      -0.679  -0.851  11.785  0.00  0.00    -0.188 NA
ATOM     10  C   UNL     1      -0.775  -0.917  13.077  0.00  0.00    +0.138 C 
BRANCH  10  11
ATOM     11  C   UNL     1      -0.803  -2.230  13.748  0.00  0.00    -0.005 A 
ATOM     12  C   UNL     1      -0.720  -3.404  12.996  0.00  0.00    +0.011 A 
ATOM     13  C   UNL     1      -0.746  -4.629  13.630  0.00  0.00    +0.020 A 
ATOM     14  C   UNL     1      -0.855  -4.696  15.009  0.00  0.00    +0.041 A 
ATOM     15  C   UNL     1      -0.938  -3.536  15.760  0.00  0.00    +0.020 A 
ATOM     16  C   UNL     1      -0.907  -2.305  15.140  0.00  0.00    +0.011 A 
ATOM     17 CL   UNL     1      -0.887  -6.242  15.799  0.00  0.00    -0.084 Cl
ENDBRANCH  10  11
ENDBRANCH   6   9
BRANCH   1  18
ATOM     18  S   UNL     1      -0.259  -1.131   6.252  0.00  0.00    -0.075 S 
BRANCH  18  19
ATOM     19  C   UNL     1      -0.168   0.054   4.882  0.00  0.00    +0.173 C 
BRANCH  19  21
ATOM     20  N   UNL     1       0.025  -0.014   2.417  0.00  0.00    -0.285 N 
ATOM     21  C   UNL     1      -0.056  -0.693   3.578  0.00  0.00    +0.227 C 
ATOM     22  O   UNL     1      -0.040  -1.906   3.574  0.00  0.00    -0.275 OA
ATOM     23  H   UNL     1       0.078   0.955   2.424  0.00  0.00    +0.155 HD
BRANCH  20  30
ATOM     24  C   UNL     1      -1.265   1.183   0.181  0.00  0.00    +0.045 C 
ATOM     25  C   UNL     1      -0.584  -0.158   0.084  0.00  0.00    -0.029 A 
ATOM     26  C   UNL     1      -0.569  -0.840  -1.117  0.00  0.00    +0.006 A 
ATOM     27  C   UNL     1       0.054  -2.070  -1.207  0.00  0.00    +0.020 A 
ATOM     28  C   UNL     1       0.667  -2.622  -0.095  0.00  0.00    +0.043 A 
ATOM     29  C   UNL     1       0.655  -1.944   1.109  0.00  0.00    +0.043 A 
ATOM     30  C   UNL     1       0.034  -0.706   1.201  0.00  0.00    +0.038 A 
ATOM     31 CL   UNL     1       1.449  -4.168  -0.213  0.00  0.00    -0.083 Cl
ENDBRANCH  20  30
ENDBRANCH  19  21
ENDBRANCH  18  19
ENDBRANCH   1  18
TORSDOF 6
