REMARK  Name = ZINC04624045
REMARK  5 active torsions:
REMARK  status: ('A' for Active; 'I' for Inactive)
REMARK    1  A    between atoms: C_9  and  S_14
REMARK    2  A    between atoms: S_14  and  N_17
REMARK    3  A    between atoms: N_17  and  C_18
REMARK    4  A    between atoms: C_21  and  C_24
REMARK    5  A    between atoms: C_24  and  C_25
REMARK                            x       y       z     vdW  Elec       q    Type
REMARK                         _______ _______ _______ _____ _____    ______ ____
ROOT
ATOM      1  S   UNL     1      -6.638   2.901  -5.166  0.00  0.00    +0.072 S 
ATOM      2  O   UNL     1      -5.786   3.959  -5.582  0.00  0.00    -0.150 OA
ATOM      3  O   UNL     1      -7.392   2.124  -6.086  0.00  0.00    -0.150 OA
ENDROOT
BRANCH   1  12
ATOM      4  C   UNL     1      -7.926   8.692  -0.711  0.00  0.00    +0.001 A 
ATOM      5  C   UNL     1      -9.125   8.659  -0.017  0.00  0.00    +0.004 A 
ATOM      6  C   UNL     1      -9.995   7.601  -0.169  0.00  0.00    +0.047 A 
ATOM      7  C   UNL     1      -9.675   6.553  -1.025  0.00  0.00    +0.136 A 
ATOM      8  C   UNL     1      -8.463   6.590  -1.726  0.00  0.00    +0.028 A 
ATOM      9  C   UNL     1      -7.592   7.662  -1.565  0.00  0.00    +0.012 A 
ATOM     10  C   UNL     1      -8.430   5.354  -2.532  0.00  0.00    +0.030 A 
ATOM     11  C   UNL     1      -7.516   4.807  -3.426  0.00  0.00    +0.041 A 
ATOM     12  C   UNL     1      -7.791   3.598  -4.031  0.00  0.00    +0.109 A 
ATOM     13  C   UNL     1      -8.975   2.934  -3.753  0.00  0.00    +0.032 A 
ATOM     14  C   UNL     1      -9.886   3.465  -2.863  0.00  0.00    +0.049 A 
ATOM     15  C   UNL     1      -9.626   4.682  -2.244  0.00  0.00    +0.136 A 
ATOM     16  O   UNL     1     -10.329   5.418  -1.356  0.00  0.00    -0.455 OA
ENDBRANCH   1  12
BRANCH   1  17
ATOM     17  N   UNL     1      -5.693   1.840  -4.314  0.00  0.00    -0.216 N 
ATOM     18  H   UNL     1      -5.691   0.898  -4.546  0.00  0.00    +0.174 HD
BRANCH  17  19
ATOM     19  C   UNL     1      -4.900   2.302  -3.261  0.00  0.00    +0.048 A 
ATOM     20  C   UNL     1      -4.884   1.620  -2.051  0.00  0.00    +0.025 A 
ATOM     21  C   UNL     1      -4.099   2.079  -1.011  0.00  0.00    +0.006 A 
ATOM     22  C   UNL     1      -3.330   3.217  -1.174  0.00  0.00    -0.041 A 
ATOM     23  C   UNL     1      -3.348   3.901  -2.376  0.00  0.00    +0.006 A 
ATOM     24  C   UNL     1      -4.126   3.444  -3.421  0.00  0.00    +0.025 A 
BRANCH  22  25
ATOM     25  C   UNL     1      -2.474   3.715  -0.038  0.00  0.00    +0.090 C 
BRANCH  25  26
ATOM     26  C   UNL     1      -1.109   3.084  -0.123  0.00  0.00    +0.046 A 
ATOM     27  C   UNL     1       0.015   3.889  -0.158  0.00  0.00    +0.023 A 
ATOM     28  C   UNL     1       1.267   3.299  -0.236  0.00  0.00    +0.003 A 
ATOM     29  C   UNL     1       1.342   1.915  -0.276  0.00  0.00    +0.020 A 
ATOM     30  C   UNL     1       0.175   1.175  -0.237  0.00  0.00    +0.111 A 
ATOM     31  N   UNL     1      -0.999   1.771  -0.169  0.00  0.00    -0.260 NA
ENDBRANCH  25  26
ENDBRANCH  22  25
ENDBRANCH  17  19
ENDBRANCH   1  17
TORSDOF 5
