REMARK  Name = ZINC15902306
REMARK  7 active torsions:
REMARK  status: ('A' for Active; 'I' for Inactive)
REMARK    1  A    between atoms: C_1  and  C_2
REMARK    2  A    between atoms: N_8  and  S_9
REMARK    3  A    between atoms: S_9  and  C_12
REMARK    4  A    between atoms: C_15  and  C_18
REMARK    5  A    between atoms: N_20  and  N_21
REMARK    6  A    between atoms: C_22  and  C_24
REMARK    7  A    between atoms: C_24  and  C_25
REMARK                            x       y       z     vdW  Elec       q    Type
REMARK                         _______ _______ _______ _____ _____    ______ ____
ROOT
ATOM      1  C   UNL     1      -1.004   6.413   2.069  0.00  0.00    +0.260 C 
ATOM      2  O   UNL     1      -1.287   5.552   2.880  0.00  0.00    -0.269 OA
ATOM      3  N   UNL     1      -0.468   6.069   0.881  0.00  0.00    -0.230 N 
ATOM      4  H   UNL     1      -0.243   6.756   0.234  0.00  0.00    +0.173 HD
ENDROOT
BRANCH   1   8
ATOM      5  C   UNL     1      -1.709  10.501   2.979  0.00  0.00    +0.106 A 
ATOM      6  C   UNL     1      -2.032   9.524   3.905  0.00  0.00    +0.029 A 
ATOM      7  C   UNL     1      -1.805   8.194   3.615  0.00  0.00    +0.015 A 
ATOM      8  C   UNL     1      -1.250   7.836   2.386  0.00  0.00    +0.038 A 
ATOM      9  C   UNL     1      -0.921   8.827   1.460  0.00  0.00    +0.015 A 
ATOM     10  C   UNL     1      -1.159  10.152   1.759  0.00  0.00    +0.029 A 
BRANCH   5  11
ATOM     11  S   UNL     1      -2.002  12.197   3.357  0.00  0.00    +0.061 S 
ATOM     12  O   UNL     1      -1.954  12.902   2.124  0.00  0.00    -0.153 OA
ATOM     13  O   UNL     1      -3.136  12.233   4.212  0.00  0.00    -0.153 OA
BRANCH  11  20
ATOM     14  C   UNL     1       0.373  13.070   2.086  0.00  0.00    +0.026 C 
ATOM     15  C   UNL     1       0.548  13.101   3.606  0.00  0.00    +0.077 C 
ATOM     16  C   UNL     1       0.927  14.521   4.054  0.00  0.00    +0.020 C 
ATOM     17  C   UNL     1       0.968  14.573   5.583  0.00  0.00    +0.003 C 
ATOM     18  C   UNL     1      -0.419  14.246   6.143  0.00  0.00    +0.017 C 
ATOM     19  C   UNL     1      -0.815  12.828   5.718  0.00  0.00    +0.110 C 
ATOM     20  N   UNL     1      -0.716  12.728   4.255  0.00  0.00    -0.174 NA
ENDBRANCH  11  20
ENDBRANCH   5  11
ENDBRANCH   1   8
BRANCH   3  21
ATOM     21  N   UNL     1      -0.235   4.721   0.581  0.00  0.00    -0.234 N 
ATOM     22  C   UNL     1       0.301   4.378  -0.607  0.00  0.00    +0.230 C 
ATOM     23  O   UNL     1       0.583   5.236  -1.415  0.00  0.00    -0.274 OA
ATOM     24  H   UNL     1      -0.461   4.034   1.228  0.00  0.00    +0.173 HD
BRANCH  22  25
ATOM     25  C   UNL     1       0.551   2.927  -0.930  0.00  0.00    +0.104 C 
BRANCH  25  26
ATOM     26  C   UNL     1       1.161   2.814  -2.328  0.00  0.00    -0.020 C 
ATOM     27  C   UNL     1       2.483   3.581  -2.372  0.00  0.00    +0.011 C 
ATOM     28  C   UNL     1       3.093   3.468  -3.771  0.00  0.00    -0.010 C 
ATOM     29  C   UNL     1       3.347   1.995  -4.098  0.00  0.00    +0.007 C 
ATOM     30  C   UNL     1       2.024   1.228  -4.055  0.00  0.00    -0.010 C 
ATOM     31  C   UNL     1       1.415   1.341  -2.656  0.00  0.00    +0.011 C 
ATOM     32  C   UNL     1       1.057   1.819  -5.082  0.00  0.00    +0.007 C 
ATOM     33  C   UNL     1       0.803   3.292  -4.754  0.00  0.00    -0.010 C 
ATOM     34  C   UNL     1       2.126   4.060  -4.798  0.00  0.00    +0.007 C 
ATOM     35  C   UNL     1       0.194   3.406  -3.356  0.00  0.00    +0.011 C 
ENDBRANCH  25  26
ENDBRANCH  22  25
ENDBRANCH   3  21
TORSDOF 6
