REMARK  Name = ZINC12250509
REMARK  8 active torsions:
REMARK  status: ('A' for Active; 'I' for Inactive)
REMARK    1  A    between atoms: C_4  and  C_7
REMARK    2  A    between atoms: C_7  and  C_8
REMARK    3  A    between atoms: C_7  and  N_14
REMARK    4  A    between atoms: C_15  and  C_17
REMARK    5  A    between atoms: C_17  and  S_18
REMARK    6  A    between atoms: S_18  and  C_19
REMARK    7  A    between atoms: C_20  and  C_38
REMARK    8  A    between atoms: C_21  and  C_31
REMARK                            x       y       z     vdW  Elec       q    Type
REMARK                         _______ _______ _______ _____ _____    ______ ____
ROOT
ATOM      1  C   UNL     1       4.520  -0.386  -1.360  0.00  0.00    +0.093 C 
ATOM      2  C   UNL     1       4.860   0.801  -0.790  0.00  0.00    +0.158 C 
ATOM      3  C   UNL     1       3.831   1.862  -0.539  0.00  0.00    +0.077 C 
ATOM      4  C   UNL     1       2.436   1.291  -0.583  0.00  0.00    +0.025 C 
ATOM      5  C   UNL     1       2.194   0.095  -1.162  0.00  0.00    +0.049 C 
ATOM      6  N   UNL     1       3.213  -0.632  -1.713  0.00  0.00    -0.248 NA
ATOM      7  C   UNL     1       0.796  -0.471  -1.220  0.00  0.00    +0.056 C 
ATOM      8  C   UNL     1      -0.001  -0.000  -0.003  0.00  0.00    +0.014 C 
ATOM      9  C   UNL     1      -0.020   1.532   0.004  0.00  0.00    +0.080 C 
ATOM     10  C   UNL     1       1.396   2.039  -0.004  0.00  0.00    +0.162 C 
ATOM     11  O   UNL     1       1.646   3.116   0.500  0.00  0.00    -0.292 OA
ENDROOT
BRANCH   3  12
ATOM     12  C   UNL     1       3.961   2.929  -1.595  0.00  0.00    -0.038 A 
ATOM     13  C   UNL     1       3.773   2.610  -2.926  0.00  0.00    +0.007 A 
ATOM     14  C   UNL     1       3.888   3.589  -3.895  0.00  0.00    +0.038 A 
ATOM     15  C   UNL     1       4.202   4.888  -3.533  0.00  0.00    +0.123 A 
ATOM     16  C   UNL     1       4.396   5.205  -2.199  0.00  0.00    +0.038 A 
ATOM     17  C   UNL     1       4.275   4.226  -1.231  0.00  0.00    +0.007 A 
ATOM     18  F   UNL     1       4.319   5.845  -4.479  0.00  0.00    -0.205 F 
ENDBRANCH   3  12
BRANCH   2  19
ATOM     19  C   UNL     1       6.223   1.041  -0.422  0.00  0.00    +0.074 C 
ATOM     20  N   UNL     1       7.304   1.231  -0.129  0.00  0.00    -0.196 NA
ENDBRANCH   2  19
BRANCH   1  21
ATOM     21  S   UNL     1       5.754  -1.610  -1.647  0.00  0.00    -0.100 S 
BRANCH  21  22
ATOM     22  C   UNL     1       4.740  -2.910  -2.394  0.00  0.00    +0.171 C 
BRANCH  22  24
ATOM     23  N   UNL     1       5.068  -5.187  -3.302  0.00  0.00    -0.304 N 
ATOM     24  C   UNL     1       5.611  -4.093  -2.733  0.00  0.00    +0.224 C 
ATOM     25  O   UNL     1       6.799  -4.060  -2.493  0.00  0.00    -0.275 OA
ATOM     26  H   UNL     1       4.117  -5.213  -3.494  0.00  0.00    +0.150 HD
BRANCH  23  27
ATOM     27  C   UNL     1       5.914  -6.337  -3.632  0.00  0.00    +0.134 C 
BRANCH  27  31
ATOM     28  C   UNL     1       3.529  -9.880  -3.716  0.00  0.00    +0.000 A 
ATOM     29  C   UNL     1       4.797  -9.914  -3.167  0.00  0.00    +0.000 A 
ATOM     30  C   UNL     1       5.568  -8.767  -3.139  0.00  0.00    +0.006 A 
ATOM     31  C   UNL     1       5.072  -7.587  -3.662  0.00  0.00    -0.023 A 
ATOM     32  C   UNL     1       3.802  -7.553  -4.207  0.00  0.00    +0.006 A 
ATOM     33  C   UNL     1       3.032  -8.700  -4.238  0.00  0.00    +0.000 A 
ENDBRANCH  27  31
BRANCH  27  34
ATOM     34  C   UNL     1       6.546  -6.125  -4.983  0.00  0.00    -0.023 A 
ATOM     35  C   UNL     1       5.809  -5.569  -6.011  0.00  0.00    +0.006 A 
ATOM     36  C   UNL     1       6.391  -5.370  -7.250  0.00  0.00    +0.000 A 
ATOM     37  C   UNL     1       7.707  -5.736  -7.462  0.00  0.00    +0.000 A 
ATOM     38  C   UNL     1       8.443  -6.297  -6.434  0.00  0.00    +0.000 A 
ATOM     39  C   UNL     1       7.862  -6.491  -5.195  0.00  0.00    +0.006 A 
ENDBRANCH  27  34
ENDBRANCH  23  27
ENDBRANCH  22  24
ENDBRANCH  21  22
ENDBRANCH   1  21
TORSDOF 8
