REMARK  Name = ZINC20681692
REMARK  5 active torsions:
REMARK  status: ('A' for Active; 'I' for Inactive)
REMARK    1  A    between atoms: N_9  and  S_10
REMARK    2  A    between atoms: S_10  and  C_13
REMARK    3  A    between atoms: C_26  and  C_29
REMARK    4  A    between atoms: C_32  and  O_36
REMARK    5  A    between atoms: C_34  and  O_35
REMARK                            x       y       z     vdW  Elec       q    Type
REMARK                         _______ _______ _______ _____ _____    ______ ____
ROOT
ATOM      1  C   UNL     1       5.754  -3.143   2.176  0.00  0.00    +0.109 A 
ATOM      2  C   UNL     1       5.913  -3.415   0.829  0.00  0.00    +0.030 A 
ATOM      3  C   UNL     1       4.854  -3.255  -0.040  0.00  0.00    +0.025 A 
ATOM      4  C   UNL     1       3.621  -2.817   0.429  0.00  0.00    +0.031 A 
ATOM      5  C   UNL     1       3.472  -2.529   1.790  0.00  0.00    -0.018 A 
ATOM      6  C   UNL     1       4.533  -2.701   2.652  0.00  0.00    +0.034 A 
ATOM      7  C   UNL     1       2.158  -2.022   2.240  0.00  0.00    +0.049 C 
ATOM      8  C   UNL     1       1.669  -2.228   3.627  0.00  0.00    -0.023 C 
ATOM      9  C   UNL     1       0.344  -2.314   3.602  0.00  0.00    -0.030 C 
ATOM     10  C   UNL     1      -0.159  -2.204   2.161  0.00  0.00    +0.033 C 
ATOM     11  C   UNL     1       1.053  -2.722   1.388  0.00  0.00    +0.029 C 
ATOM     12  C   UNL     1       1.235  -2.187  -0.021  0.00  0.00    +0.108 C 
ATOM     13  N   UNL     1       2.557  -2.677  -0.470  0.00  0.00    -0.336 N 
ATOM     14  H   UNL     1       2.717  -2.939  -1.526  0.00  0.00    +0.147 HD
ENDROOT
BRANCH  12  15
ATOM     15  C   UNL     1       1.214  -0.680  -0.013  0.00  0.00    +0.015 A 
ATOM     16  C   UNL     1       2.401   0.027  -0.020  0.00  0.00    +0.012 A 
ATOM     17  C   UNL     1       2.385   1.408  -0.013  0.00  0.00    +0.046 A 
ATOM     18  C   UNL     1       1.175   2.089   0.002  0.00  0.00    +0.120 A 
ATOM     19  C   UNL     1      -0.017   1.382   0.010  0.00  0.00    +0.091 A 
ATOM     20  C   UNL     1       0.002  -0.004   0.002  0.00  0.00    +0.125 A 
BRANCH  20  21
ATOM     21  O   UNL     1      -1.165  -0.700   0.009  0.00  0.00    -0.506 OA
ATOM     22  H   UNL     1      -2.125  -0.164   0.021  0.00  0.00    +0.292 HD
ENDBRANCH  20  21
BRANCH  18  23
ATOM     23  O   UNL     1       1.160   3.448   0.009  0.00  0.00    -0.507 OA
ATOM     24  H   UNL     1       0.202   3.988   0.021  0.00  0.00    +0.292 HD
ENDBRANCH  18  23
ENDBRANCH  12  15
BRANCH   1  25
ATOM     25  S   UNL     1       7.107  -3.357   3.284  0.00  0.00    +0.075 S 
ATOM     26  O   UNL     1       6.547  -3.557   4.575  0.00  0.00    -0.150 OA
ATOM     27  O   UNL     1       7.982  -4.300   2.679  0.00  0.00    -0.150 OA
BRANCH  25  36
ATOM     28  C   UNL     1      11.089  -0.495   1.039  0.00  0.00    +0.000 A 
ATOM     29  C   UNL     1      10.614  -1.760   0.742  0.00  0.00    +0.002 A 
ATOM     30  C   UNL     1       9.569  -2.296   1.463  0.00  0.00    +0.025 A 
ATOM     31  C   UNL     1       8.985  -1.568   2.502  0.00  0.00    +0.054 A 
ATOM     32  C   UNL     1       9.465  -0.300   2.788  0.00  0.00    -0.023 A 
ATOM     33  C   UNL     1      10.513   0.233   2.063  0.00  0.00    +0.005 A 
ATOM     34  C   UNL     1       8.665   0.269   3.939  0.00  0.00    +0.058 C 
ATOM     35  C   UNL     1       7.649  -0.832   4.284  0.00  0.00    +0.136 C 
ATOM     36  N   UNL     1       7.926  -1.919   3.341  0.00  0.00    -0.202 N 
ENDBRANCH  25  36
ENDBRANCH   1  25
TORSDOF 5
