REMARK  Name = ZINC22061046
REMARK  10 active torsions:
REMARK  status: ('A' for Active; 'I' for Inactive)
REMARK    1  A    between atoms: C_1  and  C_2
REMARK    2  A    between atoms: C_2  and  O_3
REMARK    3  A    between atoms: O_3  and  C_4
REMARK    4  A    between atoms: C_4  and  C_6
REMARK    5  A    between atoms: C_7  and  C_20
REMARK    6  A    between atoms: C_12  and  C_14
REMARK    7  A    between atoms: C_20  and  N_21
REMARK    8  A    between atoms: C_25  and  C_27
REMARK    9  A    between atoms: C_30  and  O_33
REMARK   10  A    between atoms: O_33  and  C_34
REMARK                            x       y       z     vdW  Elec       q    Type
REMARK                         _______ _______ _______ _____ _____    ______ ____
ROOT
ATOM      1  C   UNL     1      -0.399   1.617  -1.706  0.00  0.00    +0.076 C 
ATOM      2  C   UNL     1      -1.648   2.021  -1.393  0.00  0.00    +0.008 C 
ATOM      3  N   UNL     1      -2.056   2.105  -0.092  0.00  0.00    -0.274 N 
ATOM      4  C   UNL     1      -1.275   1.803   0.952  0.00  0.00    +0.304 C 
ATOM      5  O   UNL     1      -1.728   1.908   2.075  0.00  0.00    -0.252 OA
ATOM      6  N   UNL     1      -0.003   1.385   0.799  0.00  0.00    -0.288 N 
ATOM      7  C   UNL     1       0.535   1.261  -0.566  0.00  0.00    +0.143 C 
ATOM      8  H   UNL     1      -3.078   2.436   0.143  0.00  0.00    +0.156 HD
ATOM      9  H   UNL     1       0.631   1.139   1.664  0.00  0.00    +0.151 HD
ENDROOT
BRANCH   7  10
ATOM     10  C   UNL     1       1.752   2.144  -0.669  0.00  0.00    -0.023 A 
ATOM     11  C   UNL     1       1.725   3.421  -0.140  0.00  0.00    +0.006 A 
ATOM     12  C   UNL     1       2.843   4.229  -0.230  0.00  0.00    +0.000 A 
ATOM     13  C   UNL     1       3.983   3.765  -0.858  0.00  0.00    +0.000 A 
ATOM     14  C   UNL     1       4.008   2.490  -1.391  0.00  0.00    +0.000 A 
ATOM     15  C   UNL     1       2.892   1.679  -1.297  0.00  0.00    +0.006 A 
ENDBRANCH   7  10
BRANCH   1  16
ATOM     16  C   UNL     1       0.025   1.529  -3.053  0.00  0.00    +0.339 C 
ATOM     17  O   UNL     1      -0.699   1.929  -3.945  0.00  0.00    -0.245 OA
BRANCH  16  18
ATOM     18  O   UNL     1       1.232   1.002  -3.348  0.00  0.00    -0.462 OA
BRANCH  18  20
ATOM     19  C   UNL     1       2.985   0.321  -4.865  0.00  0.00    +0.048 C 
ATOM     20  C   UNL     1       1.595   0.945  -4.729  0.00  0.00    +0.229 C 
ENDBRANCH  18  20
ENDBRANCH  16  18
ENDBRANCH   1  16
BRANCH   2  21
ATOM     21  C   UNL     1      -2.607   2.386  -2.496  0.00  0.00    -0.026 C 
BRANCH  21  22
ATOM     22  N   UNL     1      -2.375   3.777  -2.907  0.00  0.00    +0.388 N 
ATOM     23  C   UNL     1      -2.904   4.722  -1.901  0.00  0.00    -0.078 C 
ATOM     24  C   UNL     1      -3.394   5.941  -2.722  0.00  0.00    -0.020 C 
ATOM     25  C   UNL     1      -3.974   5.254  -3.986  0.00  0.00    -0.013 C 
ATOM     26  C   UNL     1      -3.020   4.060  -4.202  0.00  0.00    -0.037 C 
ATOM     27  H   UNL     1      -1.286   3.903  -3.002  0.00  0.00    -0.080 HD
BRANCH  26  28
ATOM     28  C   UNL     1      -3.801   2.856  -4.660  0.00  0.00    -0.061 A 
ATOM     29  C   UNL     1      -3.414   2.175  -5.800  0.00  0.00    +0.005 A 
ATOM     30  C   UNL     1      -4.125   1.067  -6.218  0.00  0.00    +0.046 A 
ATOM     31  C   UNL     1      -5.234   0.644  -5.501  0.00  0.00    +0.120 A 
ATOM     32  C   UNL     1      -5.624   1.332  -4.361  0.00  0.00    +0.046 A 
ATOM     33  C   UNL     1      -4.907   2.437  -3.943  0.00  0.00    +0.005 A 
BRANCH  31  34
ATOM     34  O   UNL     1      -5.938  -0.443  -5.914  0.00  0.00    -0.495 OA
ATOM     35  C   UNL     1      -5.479  -1.102  -7.096  0.00  0.00    +0.277 C 
ENDBRANCH  31  34
ENDBRANCH  26  28
ENDBRANCH  21  22
ENDBRANCH   2  21
TORSDOF 8
