REMARK  Name = ZINC38671574
REMARK  7 active torsions:
REMARK  status: ('A' for Active; 'I' for Inactive)
REMARK    1  A    between atoms: C_1  and  N_2
REMARK    2  A    between atoms: C_9  and  C_11
REMARK    3  A    between atoms: C_11  and  C_13
REMARK    4  A    between atoms: C_11  and  N_31
REMARK    5  A    between atoms: C_13  and  N_14
REMARK    6  A    between atoms: C_15  and  C_17
REMARK    7  A    between atoms: N_22  and  C_24
REMARK                            x       y       z     vdW  Elec       q    Type
REMARK                         _______ _______ _______ _____ _____    ______ ____
ROOT
ATOM      1  C   UNL     1       0.015  -3.779   4.137  0.00  0.00    -0.020 C 
ENDROOT
BRANCH   1  10
ATOM      2  C   UNL     1      -0.313   0.536  -1.020  0.00  0.00    +0.129 C 
ATOM      3  N   UNL     1      -0.253  -0.901  -0.740  0.00  0.00    -0.332 N 
ATOM      4  C   UNL     1      -0.243  -1.955  -1.758  0.00  0.00    +0.109 C 
ATOM      5  C   UNL     1      -0.172  -3.274  -0.971  0.00  0.00    +0.056 C 
ATOM      6  C   UNL     1      -0.146  -2.850   0.480  0.00  0.00    -0.025 A 
ATOM      7  C   UNL     1      -0.189  -1.465   0.535  0.00  0.00    +0.033 A 
ATOM      8  C   UNL     1      -0.170  -0.836   1.781  0.00  0.00    +0.023 A 
ATOM      9  C   UNL     1      -0.104  -1.584   2.937  0.00  0.00    +0.004 A 
ATOM     10  C   UNL     1      -0.057  -2.964   2.871  0.00  0.00    -0.059 A 
ATOM     11  C   UNL     1      -0.085  -3.595   1.641  0.00  0.00    +0.007 A 
ENDBRANCH   1  10
BRANCH   1  12
ATOM     12  N   UNL     1      -0.863  -3.184   5.154  0.00  0.00    +0.385 N 
ATOM     13  C   UNL     1      -0.804  -3.988   6.380  0.00  0.00    -0.078 C 
ATOM     14  C   UNL     1      -1.653  -3.328   7.468  0.00  0.00    -0.019 C 
ATOM     15  C   UNL     1      -3.104  -3.232   6.988  0.00  0.00    -0.004 C 
ATOM     16  C   UNL     1      -3.144  -2.455   5.669  0.00  0.00    -0.019 C 
ATOM     17  C   UNL     1      -2.240  -3.147   4.647  0.00  0.00    -0.078 C 
ATOM     18  H   UNL     1      -0.554  -2.244   5.354  0.00  0.00    -0.081 HD
ENDBRANCH   1  12
BRANCH   1  19
ATOM     19  C   UNL     1       1.456  -3.794   4.652  0.00  0.00    +0.093 C 
BRANCH  19  20
ATOM     20  N   UNL     1       2.320  -4.449   3.668  0.00  0.00    -0.316 N 
ATOM     21  C   UNL     1       3.621  -4.660   3.948  0.00  0.00    +0.218 C 
ATOM     22  O   UNL     1       4.077  -4.306   5.015  0.00  0.00    -0.275 OA
ATOM     23  H   UNL     1       1.956  -4.732   2.815  0.00  0.00    +0.149 HD
BRANCH  21  24
ATOM     24  C   UNL     1       4.511  -5.335   2.936  0.00  0.00    +0.101 C 
ATOM     25  C   UNL     1       4.058  -6.792   2.685  0.00  0.00    +0.110 C 
ATOM     26  C   UNL     1       5.351  -7.556   2.506  0.00  0.00    +0.221 C 
ATOM     27  O   UNL     1       5.441  -8.664   2.020  0.00  0.00    -0.275 OA
ATOM     28  N   UNL     1       6.385  -6.830   2.965  0.00  0.00    -0.271 N 
ATOM     29  C   UNL     1       5.934  -5.539   3.499  0.00  0.00    +0.127 C 
BRANCH  28  30
ATOM     30  C   UNL     1       7.719  -7.251   2.938  0.00  0.00    +0.036 A 
ATOM     31  C   UNL     1       8.037  -8.526   2.489  0.00  0.00    +0.025 A 
ATOM     32  C   UNL     1       9.355  -8.939   2.463  0.00  0.00    +0.022 A 
ATOM     33  C   UNL     1      10.358  -8.083   2.883  0.00  0.00    +0.041 A 
ATOM     34  C   UNL     1      10.044  -6.812   3.330  0.00  0.00    +0.022 A 
ATOM     35  C   UNL     1       8.728  -6.392   3.353  0.00  0.00    +0.025 A 
ATOM     36 CL   UNL     1      12.013  -8.605   2.849  0.00  0.00    -0.084 Cl
ENDBRANCH  28  30
ENDBRANCH  21  24
ENDBRANCH  19  20
ENDBRANCH   1  19
TORSDOF 6
