REMARK  Name = ZINC13816127
REMARK  9 active torsions:
REMARK  status: ('A' for Active; 'I' for Inactive)
REMARK    1  A    between atoms: C_5  and  C_7
REMARK    2  A    between atoms: C_7  and  C_9
REMARK    3  A    between atoms: C_7  and  C_23
REMARK    4  A    between atoms: C_9  and  C_10
REMARK    5  A    between atoms: C_10  and  N_11
REMARK    6  A    between atoms: N_13  and  C_14
REMARK    7  A    between atoms: C_14  and  C_15
REMARK    8  A    between atoms: C_15  and  C_16
REMARK    9  A    between atoms: C_16  and  C_17
REMARK                            x       y       z     vdW  Elec       q    Type
REMARK                         _______ _______ _______ _____ _____    ______ ____
ROOT
ATOM      1  N   UNL     1       3.015   3.891  -3.145  0.00  0.00    -0.358 N 
ATOM      2  C   UNL     1       2.965   3.997  -4.515  0.00  0.00    +0.169 C 
ATOM      3  N   UNL     1       4.035   3.587  -5.275  0.00  0.00    -0.358 N 
ATOM      4  H   UNL     1       3.804   3.526  -2.715  0.00  0.00    +0.162 HD
ATOM      5  H   UNL     1       1.774   4.603  -6.052  0.00  0.00    +0.159 HD
ATOM      6  H   UNL     1       4.824   3.222  -4.846  0.00  0.00    +0.162 HD
ATOM      7  N   UNL     1       1.859   4.503  -5.040  0.00  0.00    -0.371 N 
ATOM      8  H   UNL     1       1.087   4.796  -4.429  0.00  0.00    +0.159 HD
ENDROOT
BRANCH   1   9
ATOM      9  C   UNL     1       1.875   4.328  -2.334  0.00  0.00    +0.116 C 
BRANCH   9  10
ATOM     10  C   UNL     1       2.187   4.102  -0.854  0.00  0.00    +0.035 C 
BRANCH  10  11
ATOM     11  C   UNL     1       0.997   4.559  -0.007  0.00  0.00    +0.071 C 
BRANCH  11  16
ATOM     12  C   UNL     1      -1.190   1.510  -0.429  0.00  0.00    +0.000 A 
ATOM     13  C   UNL     1      -2.379   2.078  -0.847  0.00  0.00    +0.001 A 
ATOM     14  C   UNL     1      -2.479   3.450  -0.984  0.00  0.00    +0.020 A 
ATOM     15  C   UNL     1      -1.386   4.254  -0.714  0.00  0.00    +0.045 A 
ATOM     16  C   UNL     1      -0.194   3.684  -0.302  0.00  0.00    -0.020 A 
ATOM     17  C   UNL     1      -0.097   2.313  -0.160  0.00  0.00    +0.006 A 
ATOM     18 CL   UNL     1      -1.509   5.976  -0.892  0.00  0.00    -0.083 Cl
ENDBRANCH  11  16
BRANCH  11  19
ATOM     19  C   UNL     1       1.349   4.452   1.454  0.00  0.00    +0.049 A 
ATOM     20  C   UNL     1       2.152   3.414   1.889  0.00  0.00    +0.024 A 
ATOM     21  C   UNL     1       2.470   3.325   3.235  0.00  0.00    +0.003 A 
ATOM     22  C   UNL     1       1.968   4.287   4.098  0.00  0.00    +0.020 A 
ATOM     23  C   UNL     1       1.172   5.297   3.590  0.00  0.00    +0.111 A 
ATOM     24  N   UNL     1       0.893   5.353   2.302  0.00  0.00    -0.259 NA
ENDBRANCH  11  19
ENDBRANCH  10  11
ENDBRANCH   9  10
ENDBRANCH   1   9
BRANCH   3  25
ATOM     25  C   UNL     1       3.982   3.701  -6.735  0.00  0.00    +0.116 C 
BRANCH  25  26
ATOM     26  C   UNL     1       5.289   3.179  -7.335  0.00  0.00    +0.027 C 
BRANCH  26  27
ATOM     27  C   UNL     1       5.233   3.297  -8.859  0.00  0.00    +0.058 C 
BRANCH  27  28
ATOM     28  C   UNL     1       6.521   2.783  -9.450  0.00  0.00    +0.059 A 
ATOM     29  C   UNL     1       6.634   1.821 -10.385  0.00  0.00    +0.107 A 
ATOM     30  N   UNL     1       7.970   1.665 -10.635  0.00  0.00    -0.351 N 
ATOM     31  H   UNL     1       8.383   1.025 -11.283  0.00  0.00    +0.166 HD
ATOM     32  C   UNL     1       8.629   2.539  -9.843  0.00  0.00    +0.196 A 
ATOM     33  N   UNL     1       7.755   3.208  -9.141  0.00  0.00    -0.241 NA
ENDBRANCH  27  28
ENDBRANCH  26  27
ENDBRANCH  25  26
ENDBRANCH   3  25
TORSDOF 9
