REMARK  Name = ZINC34756238
REMARK  6 active torsions:
REMARK  status: ('A' for Active; 'I' for Inactive)
REMARK    1  A    between atoms: C_4  and  C_7
REMARK    2  A    between atoms: C_7  and  C_8
REMARK    3  A    between atoms: C_8  and  N_9
REMARK    4  A    between atoms: C_22  and  S_24
REMARK    5  A    between atoms: S_24  and  C_25
REMARK    6  A    between atoms: C_25  and  C_26
REMARK                            x       y       z     vdW  Elec       q    Type
REMARK                         _______ _______ _______ _____ _____    ______ ____
ROOT
ATOM      1  N   UNL     1       5.994  -2.004   0.202  0.00  0.00    +0.382 N 
ATOM      2  C   UNL     1       7.162  -2.825  -0.141  0.00  0.00    -0.060 C 
ATOM      3  C   UNL     1       7.838  -3.312   1.145  0.00  0.00    +0.088 C 
ATOM      4  N   UNL     1       8.143  -2.142   1.983  0.00  0.00    -0.318 N 
ATOM      5  C   UNL     1       7.065  -1.176   2.244  0.00  0.00    +0.088 C 
ATOM      6  C   UNL     1       6.426  -0.789   0.906  0.00  0.00    -0.060 C 
ATOM      7  C   UNL     1       9.408  -1.957   2.511  0.00  0.00    +0.134 A 
ATOM      8  C   UNL     1       9.705  -2.388   3.835  0.00  0.00    +0.051 A 
ATOM      9  C   UNL     1       8.823  -3.044   4.804  0.00  0.00    -0.025 A 
ATOM     10  C   UNL     1       9.355  -3.353   6.003  0.00  0.00    -0.004 A 
ATOM     11  S   UNL     1      11.037  -2.800   5.920  0.00  0.00    -0.073 S 
ATOM     12  C   UNL     1      11.024  -2.150   4.270  0.00  0.00    +0.115 A 
ATOM     13  N   UNL     1      11.913  -1.565   3.491  0.00  0.00    -0.215 NA
ATOM     14  C   UNL     1      11.580  -1.183   2.265  0.00  0.00    +0.191 A 
ATOM     15  N   UNL     1      10.356  -1.382   1.791  0.00  0.00    -0.206 NA
ATOM     16  C   UNL     1       8.668  -4.020   7.155  0.00  0.00    +0.043 C 
ATOM     17  C   UNL     1       7.153  -3.971   6.911  0.00  0.00    +0.005 C 
ATOM     18  C   UNL     1       6.872  -4.428   5.477  0.00  0.00    +0.005 C 
ATOM     19  C   UNL     1       7.366  -3.370   4.489  0.00  0.00    +0.037 C 
ATOM     20  H   UNL     1       5.376  -2.534   0.798  0.00  0.00    -0.082 HD
ENDROOT
BRANCH   1  21
ATOM     21  C   UNL     1       5.283  -1.629  -1.027  0.00  0.00    -0.074 C 
BRANCH  21  22
ATOM     22  C   UNL     1       4.724  -2.885  -1.697  0.00  0.00    +0.016 C 
BRANCH  22  26
ATOM     23  C   UNL     1       2.657  -1.796  -5.273  0.00  0.00    +0.000 A 
ATOM     24  C   UNL     1       4.007  -2.091  -5.318  0.00  0.00    +0.000 A 
ATOM     25  C   UNL     1       4.676  -2.443  -4.160  0.00  0.00    +0.003 A 
ATOM     26  C   UNL     1       3.995  -2.501  -2.959  0.00  0.00    -0.049 A 
ATOM     27  C   UNL     1       2.645  -2.205  -2.914  0.00  0.00    +0.003 A 
ATOM     28  C   UNL     1       1.976  -1.855  -4.072  0.00  0.00    +0.000 A 
ENDBRANCH  22  26
ENDBRANCH  21  22
ENDBRANCH   1  21
BRANCH  14  29
ATOM     29  S   UNL     1      12.786  -0.402   1.245  0.00  0.00    -0.081 S 
BRANCH  29  30
ATOM     30  C   UNL     1      14.273  -0.351   2.284  0.00  0.00    +0.112 C 
BRANCH  30  31
ATOM     31  C   UNL     1      15.396   0.302   1.520  0.00  0.00    -0.037 A 
ATOM     32  C   UNL     1      16.241  -0.467   0.742  0.00  0.00    +0.004 A 
ATOM     33  C   UNL     1      17.272   0.132   0.042  0.00  0.00    +0.000 A 
ATOM     34  C   UNL     1      17.457   1.499   0.120  0.00  0.00    +0.000 A 
ATOM     35  C   UNL     1      16.612   2.268   0.897  0.00  0.00    +0.000 A 
ATOM     36  C   UNL     1      15.578   1.670   1.594  0.00  0.00    +0.004 A 
ENDBRANCH  30  31
ENDBRANCH  29  30
ENDBRANCH  14  29
TORSDOF 6
