REMARK  Name = ZINC02968122
REMARK  8 active torsions:
REMARK  status: ('A' for Active; 'I' for Inactive)
REMARK    1  A    between atoms: C_4  and  C_7
REMARK    2  A    between atoms: C_7  and  N_8
REMARK    3  A    between atoms: C_9  and  C_11
REMARK    4  A    between atoms: C_11  and  C_12
REMARK    5  A    between atoms: C_26  and  S_27
REMARK    6  A    between atoms: S_27  and  C_28
REMARK    7  A    between atoms: C_28  and  C_29
REMARK    8  A    between atoms: N_31  and  C_32
REMARK                            x       y       z     vdW  Elec       q    Type
REMARK                         _______ _______ _______ _____ _____    ______ ____
ROOT
ATOM      1  C   UNL     1       7.037  -2.570  -3.129  0.00  0.00    +0.202 C 
ATOM      2  C   UNL     1       7.473  -2.845  -4.552  0.00  0.00    +0.252 C 
ATOM      3  O   UNL     1       6.891  -3.508  -5.383  0.00  0.00    -0.272 OA
ATOM      4  N   UNL     1       8.650  -2.195  -4.701  0.00  0.00    -0.200 N 
ATOM      5  C   UNL     1       8.993  -1.547  -3.526  0.00  0.00    +0.139 C 
ATOM      6  N   UNL     1       8.108  -1.723  -2.586  0.00  0.00    -0.255 NA
ATOM      7  C   UNL     1      10.260  -0.784  -3.518  0.00  0.00    +0.041 A 
ATOM      8  C   UNL     1      10.689  -0.101  -2.385  0.00  0.00    +0.013 A 
ATOM      9  C   UNL     1      11.879   0.598  -2.422  0.00  0.00    +0.001 A 
ATOM     10  C   UNL     1      12.645   0.621  -3.579  0.00  0.00    +0.002 A 
ATOM     11  C   UNL     1      12.236  -0.049  -4.710  0.00  0.00    +0.028 A 
ATOM     12  C   UNL     1      11.036  -0.764  -4.696  0.00  0.00    +0.077 A 
ATOM     13  N   UNL     1      10.603  -1.437  -5.791  0.00  0.00    -0.225 NA
ATOM     14  C   UNL     1       9.483  -2.109  -5.797  0.00  0.00    +0.169 C 
ENDROOT
BRANCH   1  15
ATOM     15  C   UNL     1       5.702  -1.823  -3.112  0.00  0.00    +0.132 C 
BRANCH  15  17
ATOM     16  N   UNL     1       4.124  -0.939  -1.425  0.00  0.00    -0.311 N 
ATOM     17  C   UNL     1       5.277  -1.585  -1.686  0.00  0.00    +0.216 C 
ATOM     18  O   UNL     1       5.974  -1.974  -0.772  0.00  0.00    -0.276 OA
ATOM     19  H   UNL     1       3.491  -0.586  -2.253  0.00  0.00    +0.149 HD
BRANCH  16  20
ATOM     20  C   UNL     1       3.711  -0.707  -0.038  0.00  0.00    +0.139 C 
BRANCH  20  24
ATOM     21  C   UNL     1      -0.017   1.378   0.010  0.00  0.00    +0.000 A 
ATOM     22  C   UNL     1       1.171   2.086   0.002  0.00  0.00    +0.000 A 
ATOM     23  C   UNL     1       2.377   1.411  -0.015  0.00  0.00    +0.005 A 
ATOM     24  C   UNL     1       2.396   0.029  -0.022  0.00  0.00    -0.030 A 
ATOM     25  C   UNL     1       1.208  -0.679  -0.013  0.00  0.00    +0.005 A 
ATOM     26  C   UNL     1       0.002  -0.004   0.002  0.00  0.00    +0.000 A 
ENDBRANCH  20  24
ENDBRANCH  16  20
ENDBRANCH  15  17
ENDBRANCH   1  15
BRANCH  14  27
ATOM     27  S   UNL     1       9.015  -2.947  -7.274  0.00  0.00    -0.080 S 
BRANCH  27  28
ATOM     28  C   UNL     1      10.413  -2.511  -8.339  0.00  0.00    +0.172 C 
BRANCH  28  29
ATOM     29  C   UNL     1      10.224  -3.136  -9.697  0.00  0.00    +0.224 C 
ATOM     30  O   UNL     1       9.241  -3.811  -9.923  0.00  0.00    -0.275 OA
ATOM     31  N   UNL     1      11.147  -2.947 -10.661  0.00  0.00    -0.312 N 
ATOM     32  H   UNL     1      12.038  -2.335 -10.456  0.00  0.00    +0.149 HD
BRANCH  31  33
ATOM     33  C   UNL     1      10.963  -3.555 -11.981  0.00  0.00    +0.073 C 
ATOM     34  C   UNL     1      11.493  -4.990 -11.960  0.00  0.00    +0.022 C 
ATOM     35  C   UNL     1      11.302  -5.625 -13.339  0.00  0.00    +0.002 C 
ATOM     36  C   UNL     1      12.068  -4.813 -14.385  0.00  0.00    +0.000 C 
ATOM     37  C   UNL     1      11.537  -3.378 -14.406  0.00  0.00    +0.002 C 
ATOM     38  C   UNL     1      11.729  -2.743 -13.027  0.00  0.00    +0.022 C 
ENDBRANCH  31  33
ENDBRANCH  28  29
ENDBRANCH  27  28
ENDBRANCH  14  27
TORSDOF 8
