REMARK  Name = ZINC09050998
REMARK  10 active torsions:
REMARK  status: ('A' for Active; 'I' for Inactive)
REMARK    1  A    between atoms: C_1  and  C_2
REMARK    2  A    between atoms: C_5  and  S_8
REMARK    3  A    between atoms: S_8  and  O_11
REMARK    4  A    between atoms: O_11  and  C_12
REMARK    5  A    between atoms: C_15  and  C_20
REMARK    6  A    between atoms: C_17  and  O_18
REMARK    7  A    between atoms: O_18  and  C_19
REMARK    8  A    between atoms: C_21  and  C_22
REMARK    9  A    between atoms: C_27  and  C_30
REMARK   10  A    between atoms: C_30  and  C_31
REMARK                            x       y       z     vdW  Elec       q    Type
REMARK                         _______ _______ _______ _____ _____    ______ ____
ROOT
ATOM      1  C   UNL     1      -1.227   3.423   2.103  0.00  0.00    +0.198 A 
ATOM      2  C   UNL     1      -0.048   3.101   2.762  0.00  0.00    +0.053 A 
ATOM      3  C   UNL     1       0.683   4.084   3.393  0.00  0.00    +0.012 A 
ATOM      4  C   UNL     1       0.230   5.409   3.381  0.00  0.00    -0.021 A 
ATOM      5  C   UNL     1      -0.961   5.730   2.721  0.00  0.00    +0.057 A 
ATOM      6  C   UNL     1      -1.684   4.740   2.086  0.00  0.00    +0.165 A 
ENDROOT
BRANCH   6   7
ATOM      7  O   UNL     1      -2.843   5.049   1.444  0.00  0.00    -0.491 OA
ATOM      8  C   UNL     1      -3.251   6.418   1.466  0.00  0.00    +0.277 C 
ENDBRANCH   6   7
BRANCH   4   9
ATOM      9  C   UNL     1       1.004   6.458   4.059  0.00  0.00    +0.013 C 
ATOM     10  C   UNL     1       2.153   6.145   4.695  0.00  0.00    +0.068 C 
BRANCH  10  11
ATOM     11  C   UNL     1       2.923   7.189   5.369  0.00  0.00    +0.243 C 
ATOM     12  O   UNL     1       2.528   8.341   5.358  0.00  0.00    -0.270 OA
ATOM     13  N   UNL     1       4.070   6.877   6.004  0.00  0.00    -0.261 N 
ATOM     14  C   UNL     1       4.801   7.869   6.645  0.00  0.00    +0.165 A 
ATOM     15  N   UNL     1       5.931   7.762   7.316  0.00  0.00    -0.229 NA
ATOM     16  C   UNL     1       6.502   8.817   7.865  0.00  0.00    +0.059 A 
ATOM     17  C   UNL     1       5.894  10.021   7.736  0.00  0.00    +0.072 A 
ATOM     18  S   UNL     1       4.458   9.566   6.774  0.00  0.00    -0.060 S 
ATOM     19  H   UNL     1       4.385   5.960   6.013  0.00  0.00    +0.157 HD
BRANCH  16  20
ATOM     20  C   UNL     1       7.797   8.685   8.625  0.00  0.00    +0.151 C 
BRANCH  20  21
ATOM     21  C   UNL     1       7.642   7.646   9.705  0.00  0.00    +0.216 C 
ATOM     22  O   UNL     1       6.585   7.069   9.844  0.00  0.00    -0.276 OA
ATOM     23  N   UNL     1       8.679   7.357  10.516  0.00  0.00    -0.329 N 
ATOM     24  H   UNL     1       9.525   7.819  10.405  0.00  0.00    +0.145 HD
ATOM     25  H   UNL     1       8.579   6.688  11.211  0.00  0.00    +0.145 HD
ENDBRANCH  20  21
ENDBRANCH  16  20
ENDBRANCH  10  11
ENDBRANCH   4   9
BRANCH   1  26
ATOM     26  O   UNL     1      -1.940   2.450   1.479  0.00  0.00    -0.339 OA
BRANCH  26  27
ATOM     27  S   UNL     1      -1.554   2.238   0.022  0.00  0.00    +0.151 S 
ATOM     28  O   UNL     1      -1.304   3.526  -0.523  0.00  0.00    -0.131 OA
ATOM     29  O   UNL     1      -2.519   1.353  -0.529  0.00  0.00    -0.131 OA
BRANCH  27  34
ATOM     30  C   UNL     1       3.711  -0.707  -0.038  0.00  0.00    +0.044 C 
ATOM     31  C   UNL     1       2.396   0.029  -0.022  0.00  0.00    -0.050 A 
ATOM     32  C   UNL     1       1.208  -0.679  -0.013  0.00  0.00    +0.005 A 
ATOM     33  C   UNL     1       0.002  -0.004   0.002  0.00  0.00    +0.031 A 
ATOM     34  C   UNL     1      -0.017   1.378   0.010  0.00  0.00    +0.128 A 
ATOM     35  C   UNL     1       1.171   2.086   0.002  0.00  0.00    +0.031 A 
ATOM     36  C   UNL     1       2.377   1.411  -0.015  0.00  0.00    +0.005 A 
ENDBRANCH  27  34
ENDBRANCH  26  27
ENDBRANCH   1  26
TORSDOF 8
