REMARK  Name = ZINC13125749
REMARK  7 active torsions:
REMARK  status: ('A' for Active; 'I' for Inactive)
REMARK    1  A    between atoms: C_7  and  N_12
REMARK    2  A    between atoms: C_8  and  O_11
REMARK    3  A    between atoms: N_13  and  C_14
REMARK    4  A    between atoms: C_14  and  C_16
REMARK    5  A    between atoms: C_16  and  S_17
REMARK    6  A    between atoms: S_17  and  C_18
REMARK    7  A    between atoms: C_18  and  C_19
REMARK                            x       y       z     vdW  Elec       q    Type
REMARK                         _______ _______ _______ _____ _____    ______ ____
ROOT
ATOM      1  N   UNL     1       0.771  -3.153  -0.022  0.00  0.00    -0.151 NA
ATOM      2  N   UNL     1       1.249  -4.351  -0.034  0.00  0.00    -0.079 NA
ENDROOT
BRANCH   1   9
ATOM      3  C   UNL     1      -0.017   1.375   0.010  0.00  0.00    +0.001 A 
ATOM      4  C   UNL     1       1.171   2.089   0.002  0.00  0.00    +0.002 A 
ATOM      5  C   UNL     1       2.385   1.433  -0.013  0.00  0.00    +0.026 A 
ATOM      6  C   UNL     1       2.424   0.043  -0.021  0.00  0.00    +0.051 A 
ATOM      7  C   UNL     1       1.220  -0.677  -0.013  0.00  0.00    +0.030 A 
ATOM      8  C   UNL     1       0.002  -0.004   0.002  0.00  0.00    +0.012 A 
ATOM      9  C   UNL     1       1.597  -2.106  -0.025  0.00  0.00    +0.152 A 
ATOM     10  C   UNL     1       2.998  -2.136  -0.039  0.00  0.00    +0.219 A 
ATOM     11  N   UNL     1       3.469  -0.867  -0.036  0.00  0.00    -0.324 N 
ATOM     12  H   UNL     1       4.409  -0.627  -0.044  0.00  0.00    +0.169 HD
BRANCH  10  13
ATOM     13  O   UNL     1       3.756  -3.252  -0.052  0.00  0.00    -0.492 OA
ATOM     14  H   UNL     1       3.968  -3.572  -0.939  0.00  0.00    +0.294 HD
ENDBRANCH  10  13
ENDBRANCH   1   9
BRANCH   2  15
ATOM     15  C   UNL     1       0.420  -5.404  -0.031  0.00  0.00    +0.264 C 
ATOM     16  O   UNL     1      -0.782  -5.230  -0.018  0.00  0.00    -0.271 OA
BRANCH  15  17
ATOM     17  C   UNL     1       0.978  -6.803  -0.045  0.00  0.00    +0.168 C 
BRANCH  17  18
ATOM     18  S   UNL     1      -0.386  -7.999  -0.037  0.00  0.00    -0.147 S 
BRANCH  18  19
ATOM     19  C   UNL     1       0.444  -9.612  -0.055  0.00  0.00    +0.104 C 
BRANCH  19  20
ATOM     20  C   UNL     1      -0.589 -10.709  -0.050  0.00  0.00    -0.037 A 
ATOM     21  C   UNL     1      -1.056 -11.215   1.149  0.00  0.00    +0.004 A 
ATOM     22  C   UNL     1      -2.003 -12.221   1.153  0.00  0.00    +0.001 A 
ATOM     23  C   UNL     1      -2.486 -12.722  -0.041  0.00  0.00    +0.015 A 
ATOM     24  C   UNL     1      -2.020 -12.216  -1.241  0.00  0.00    +0.018 A 
ATOM     25  C   UNL     1      -1.075 -11.205  -1.245  0.00  0.00    +0.019 A 
ATOM     26 BR   UNL     1      -2.679 -12.901  -2.876  0.00  0.00    -0.050 Br
ENDBRANCH  19  20
ENDBRANCH  18  19
ENDBRANCH  17  18
ENDBRANCH  15  17
ENDBRANCH   2  15
TORSDOF 7
