REMARK  Name = ZINC16533766
REMARK  13 active torsions:
REMARK  status: ('A' for Active; 'I' for Inactive)
REMARK    1  A    between atoms: C_1  and  C_2
REMARK    2  A    between atoms: C_2  and  C_3
REMARK    3  A    between atoms: C_3  and  N_4
REMARK    4  A    between atoms: N_4  and  C_5
REMARK    5  A    between atoms: C_5  and  C_6
REMARK    6  A    between atoms: N_10  and  C_11
REMARK    7  A    between atoms: C_11  and  C_12
REMARK    8  A    between atoms: C_15  and  C_17
REMARK    9  A    between atoms: C_25  and  O_27
REMARK   10  A    between atoms: O_27  and  C_28
REMARK   11  A    between atoms: C_28  and  C_29
REMARK   12  A    between atoms: C_30  and  C_32
REMARK   13  A    between atoms: C_35  and  C_38
REMARK                            x       y       z     vdW  Elec       q    Type
REMARK                         _______ _______ _______ _____ _____    ______ ____
ROOT
ATOM      1  C   UNL     1      -1.698   7.078  -1.102  0.00  0.00    +0.037 A 
ATOM      2  C   UNL     1      -1.803   8.377  -1.449  0.00  0.00    +0.024 A 
ATOM      3  C   UNL     1      -0.660   8.705  -2.205  0.00  0.00    +0.019 A 
ATOM      4  C   UNL     1       0.102   7.595  -2.286  0.00  0.00    +0.086 A 
ATOM      5  N   UNL     1      -0.532   6.592  -1.616  0.00  0.00    -0.342 N 
ENDROOT
BRANCH   1   6
ATOM      6  C   UNL     1      -2.697   6.299  -0.286  0.00  0.00    +0.161 C 
BRANCH   6   7
ATOM      7  N   UNL     1      -2.666   4.891  -0.691  0.00  0.00    -0.292 N 
ATOM      8  C   UNL     1      -1.948   4.001   0.021  0.00  0.00    +0.247 C 
ATOM      9  O   UNL     1      -1.847   2.853  -0.366  0.00  0.00    -0.270 OA
BRANCH   8  10
ATOM     10  C   UNL     1      -1.282   4.420   1.273  0.00  0.00    +0.037 A 
ATOM     11  C   UNL     1      -0.796   5.721   1.407  0.00  0.00    +0.013 A 
ATOM     12  C   UNL     1      -0.180   6.107   2.579  0.00  0.00    +0.004 A 
ATOM     13  C   UNL     1      -0.035   5.204   3.618  0.00  0.00    -0.050 A 
ATOM     14  C   UNL     1      -0.511   3.911   3.490  0.00  0.00    +0.004 A 
ATOM     15  C   UNL     1      -1.134   3.514   2.325  0.00  0.00    +0.013 A 
ATOM     16  C   UNL     1       0.643   5.631   4.894  0.00  0.00    +0.044 C 
ENDBRANCH   8  10
BRANCH   7  17
ATOM     17  C   UNL     1      -3.416   4.452  -1.870  0.00  0.00    +0.108 C 
BRANCH  17  19
ATOM     18  C   UNL     1      -3.275   3.984  -4.320  0.00  0.00    +0.005 C 
ATOM     19  C   UNL     1      -2.492   4.443  -3.089  0.00  0.00    +0.016 C 
ENDBRANCH  17  19
ENDBRANCH   7  17
ENDBRANCH   6   7
ENDBRANCH   1   6
BRANCH   5  20
ATOM     20  C   UNL     1      -0.041   5.220  -1.467  0.00  0.00    +0.195 C 
BRANCH  20  21
ATOM     21  C   UNL     1       1.203   5.039  -2.298  0.00  0.00    +0.126 A 
ATOM     22  C   UNL     1       2.461   5.345  -1.910  0.00  0.00    +0.047 A 
ATOM     23  C   UNL     1       3.312   5.022  -2.978  0.00  0.00    +0.055 A 
ATOM     24  C   UNL     1       2.521   4.536  -3.978  0.00  0.00    +0.190 A 
ATOM     25  O   UNL     1       1.244   4.549  -3.544  0.00  0.00    -0.453 OA
BRANCH  24  26
ATOM     26  C   UNL     1       2.979   4.077  -5.294  0.00  0.00    +0.282 C 
ATOM     27  O   UNL     1       4.170   3.975  -5.522  0.00  0.00    -0.267 OA
ATOM     28  N   UNL     1       2.081   3.767  -6.250  0.00  0.00    -0.292 N 
ATOM     29  C   UNL     1       0.646   4.001  -6.032  0.00  0.00    +0.127 C 
ATOM     30  C   UNL     1       0.118   4.880  -7.178  0.00  0.00    +0.130 C 
ATOM     31  N   UNL     1       0.555   4.298  -8.455  0.00  0.00    -0.264 N 
ATOM     32  C   UNL     1       1.989   4.060  -8.671  0.00  0.00    +0.130 C 
ATOM     33  C   UNL     1       2.518   3.185  -7.527  0.00  0.00    +0.127 C 
ATOM     34  C   UNL     1      -0.343   3.989  -9.411  0.00  0.00    +0.403 C 
ATOM     35  O   UNL     1       0.030   3.509 -10.463  0.00  0.00    -0.226 OA
BRANCH  34  36
ATOM     36  O   UNL     1      -1.654   4.213  -9.201  0.00  0.00    -0.451 OA
BRANCH  36  37
ATOM     37  C   UNL     1      -2.564   3.856 -10.275  0.00  0.00    +0.230 C 
ATOM     38  C   UNL     1      -3.999   4.180  -9.856  0.00  0.00    +0.048 C 
ENDBRANCH  36  37
ENDBRANCH  34  36
ENDBRANCH  24  26
ENDBRANCH  20  21
ENDBRANCH   5  20
TORSDOF 10
