REMARK  Name = ZINC49682261
REMARK  4 active torsions:
REMARK  status: ('A' for Active; 'I' for Inactive)
REMARK    1  A    between atoms: C_6  and  N_7
REMARK    2  A    between atoms: C_8  and  C_10
REMARK    3  A    between atoms: C_10  and  C_11
REMARK    4  A    between atoms: C_11  and  C_12
REMARK                            x       y       z     vdW  Elec       q    Type
REMARK                         _______ _______ _______ _____ _____    ______ ____
ROOT
ATOM      1  C   UNL     1      -2.478  -2.828  -0.204  0.00  0.00    +0.101 C 
ENDROOT
BRANCH   1   3
ATOM      2  N   UNL     1      -1.200  -0.722   0.010  0.00  0.00    -0.285 N 
ATOM      3  C   UNL     1      -1.183  -2.065  -0.099  0.00  0.00    +0.218 C 
ATOM      4  O   UNL     1      -0.126  -2.659  -0.113  0.00  0.00    -0.275 OA
ATOM      5  H   UNL     1      -2.044  -0.252   0.098  0.00  0.00    +0.155 HD
BRANCH   2  11
ATOM      6  C   UNL     1       1.072  -0.453  -0.766  0.00  0.00    +0.024 A 
ATOM      7  C   UNL     1       2.256   0.258  -0.778  0.00  0.00    +0.017 A 
ATOM      8  C   UNL     1       2.377   1.416  -0.032  0.00  0.00    +0.018 A 
ATOM      9  C   UNL     1       1.312   1.866   0.729  0.00  0.00    +0.017 A 
ATOM     10  C   UNL     1       0.126   1.159   0.745  0.00  0.00    +0.024 A 
ATOM     11  C   UNL     1       0.002  -0.004  -0.004  0.00  0.00    +0.033 A 
ATOM     12 BR   UNL     1       4.000   2.387  -0.051  0.00  0.00    -0.050 Br
ENDBRANCH   2  11
ENDBRANCH   1   3
BRANCH   1  13
ATOM     13  C   UNL     1      -2.181  -4.325  -0.316  0.00  0.00    +0.044 C 
BRANCH  13  14
ATOM     14  C   UNL     1      -3.476  -5.088  -0.421  0.00  0.00    -0.045 A 
ATOM     15  C   UNL     1      -4.111  -5.530   0.727  0.00  0.00    +0.007 A 
ATOM     16  C   UNL     1      -5.298  -6.230   0.640  0.00  0.00    +0.049 A 
ATOM     17  C   UNL     1      -5.858  -6.492  -0.601  0.00  0.00    +0.157 A 
ATOM     18  C   UNL     1      -5.217  -6.046  -1.756  0.00  0.00    +0.088 A 
ATOM     19  C   UNL     1      -4.029  -5.340  -1.662  0.00  0.00    +0.033 A 
ATOM     20  N   UNL     1      -6.006  -6.453  -2.832  0.00  0.00    -0.288 N 
ATOM     21  H   UNL     1      -5.824  -6.292  -3.771  0.00  0.00    +0.172 HD
ATOM     22  C   UNL     1      -7.069  -7.112  -2.328  0.00  0.00    +0.419 A 
ATOM     23  O   UNL     1      -7.964  -7.607  -2.986  0.00  0.00    -0.223 OA
ATOM     24  O   UNL     1      -6.985  -7.138  -0.989  0.00  0.00    -0.408 OA
ENDBRANCH  13  14
ENDBRANCH   1  13
TORSDOF 4
