REMARK  Name = ZINC40390760
REMARK  4 active torsions:
REMARK  status: ('A' for Active; 'I' for Inactive)
REMARK    1  A    between atoms: C_1  and  C_2
REMARK    2  A    between atoms: C_5  and  N_9
REMARK    3  A    between atoms: C_6  and  C_8
REMARK    4  A    between atoms: C_10  and  C_12
REMARK                            x       y       z     vdW  Elec       q    Type
REMARK                         _______ _______ _______ _____ _____    ______ ____
ROOT
ATOM      1  C   UNL     1      -0.016  -6.342  -1.007  0.00  0.00    +0.122 C 
ATOM      2  C   UNL     1      -1.306  -6.775  -0.309  0.00  0.00    +0.114 C 
ATOM      3  C   UNL     1      -1.500  -8.259  -0.478  0.00  0.00    +0.219 C 
ATOM      4  O   UNL     1      -1.965  -8.911   0.432  0.00  0.00    -0.275 OA
ATOM      5  N   UNL     1      -1.163  -8.868  -1.628  0.00  0.00    -0.270 N 
ATOM      6  C   UNL     1      -0.534  -8.170  -2.644  0.00  0.00    +0.138 A 
ATOM      7  C   UNL     1       0.029  -6.932  -2.391  0.00  0.00    +0.069 A 
ATOM      8  C   UNL     1       0.641  -6.236  -3.438  0.00  0.00    +0.258 A 
ATOM      9  O   UNL     1       1.137  -5.137  -3.249  0.00  0.00    -0.267 OA
ATOM     10  N   UNL     1       0.672  -6.805  -4.663  0.00  0.00    -0.295 N 
ATOM     11  H   UNL     1       1.078  -6.332  -5.406  0.00  0.00    +0.172 HD
ATOM     12  C   UNL     1       0.135  -8.040  -4.854  0.00  0.00    +0.200 A 
ATOM     13  N   UNL     1      -0.443  -8.697  -3.871  0.00  0.00    -0.200 NA
ATOM     14  N   UNL     1       0.197  -8.613  -6.096  0.00  0.00    -0.296 N 
ATOM     15  C   UNL     1      -0.267  -9.990  -6.328  0.00  0.00    +0.113 C 
ATOM     16  C   UNL     1      -1.460  -9.930  -7.281  0.00  0.00    +0.054 C 
ATOM     17  C   UNL     1      -1.160  -9.041  -8.459  0.00  0.00    -0.041 A 
ATOM     18  C   UNL     1      -1.933  -9.205  -9.603  0.00  0.00    +0.004 A 
ATOM     19  C   UNL     1      -1.718  -8.417 -10.714  0.00  0.00    +0.000 A 
ATOM     20  C   UNL     1      -0.725  -7.455 -10.693  0.00  0.00    +0.000 A 
ATOM     21  C   UNL     1       0.046  -7.293  -9.560  0.00  0.00    +0.005 A 
ATOM     22  C   UNL     1      -0.166  -8.089  -8.443  0.00  0.00    -0.027 A 
ATOM     23  C   UNL     1       0.724  -7.876  -7.250  0.00  0.00    +0.143 C 
ATOM     24  H   UNL     1      -1.364  -9.810  -1.748  0.00  0.00    +0.156 HD
ENDROOT
BRANCH   1  26
ATOM     25  N   UNL     1       1.079  -4.161  -0.606  0.00  0.00    -0.285 N 
ATOM     26  C   UNL     1       0.025  -4.839  -1.101  0.00  0.00    +0.225 C 
ATOM     27  O   UNL     1      -0.892  -4.239  -1.621  0.00  0.00    -0.275 OA
ATOM     28  H   UNL     1       1.841  -4.643  -0.248  0.00  0.00    +0.155 HD
BRANCH  25  33
ATOM     29  C   UNL     1       1.062   1.512  -0.616  0.00  0.00    +0.044 C 
ATOM     30  C   UNL     1       1.066   0.005  -0.614  0.00  0.00    -0.050 A 
ATOM     31  C   UNL     1       0.466  -0.689  -1.648  0.00  0.00    +0.005 A 
ATOM     32  C   UNL     1       0.468  -2.070  -1.649  0.00  0.00    +0.024 A 
ATOM     33  C   UNL     1       1.075  -2.762  -0.609  0.00  0.00    +0.036 A 
ATOM     34  C   UNL     1       1.678  -2.062   0.428  0.00  0.00    -0.029 A 
ATOM     35  C   UNL     1       1.676  -0.681   0.421  0.00  0.00    +0.008 A 
ATOM     36  C   UNL     1       2.338  -2.809   1.559  0.00  0.00    +0.045 C 
ENDBRANCH  25  33
ENDBRANCH   1  26
TORSDOF 2
