REMARK  Name = ZINC67072952
REMARK  17 active torsions:
REMARK  status: ('A' for Active; 'I' for Inactive)
REMARK    1  A    between atoms: C_1  and  C_2
REMARK    2  A    between atoms: C_2  and  C_3
REMARK    3  A    between atoms: C_3  and  C_5
REMARK    4  A    between atoms: C_3  and  C_6
REMARK    5  A    between atoms: C_6  and  C_8
REMARK    6  A    between atoms: C_6  and  N_22
REMARK    7  A    between atoms: N_10  and  C_11
REMARK    8  A    between atoms: C_11  and  C_12
REMARK    9  A    between atoms: C_12  and  C_13
REMARK   10  A    between atoms: N_17  and  C_18
REMARK   11  A    between atoms: C_18  and  C_19
REMARK   12  A    between atoms: C_18  and  C_20
REMARK   13  A    between atoms: C_23  and  O_25
REMARK   14  A    between atoms: O_25  and  C_26
REMARK   15  A    between atoms: C_26  and  C_27
REMARK   16  A    between atoms: C_26  and  C_28
REMARK   17  A    between atoms: C_26  and  C_29
REMARK                            x       y       z     vdW  Elec       q    Type
REMARK                         _______ _______ _______ _____ _____    ______ ____
ROOT
ATOM      1  C   UNL     1      -1.907   1.476  -1.255  0.00  0.00    +0.234 C 
ATOM      2  O   UNL     1      -2.878   2.198  -1.323  0.00  0.00    -0.274 OA
ATOM      3  N   UNL     1      -0.668   2.007  -1.281  0.00  0.00    -0.313 N 
ATOM      4  H   UNL     1       0.108   1.427  -1.301  0.00  0.00    +0.149 HD
ENDROOT
BRANCH   1   5
ATOM      5  C   UNL     1      -2.083  -0.017  -1.141  0.00  0.00    +0.165 C 
BRANCH   5   6
ATOM      6  N   UNL     1      -3.412  -0.390  -1.631  0.00  0.00    -0.270 N 
ATOM      7  C   UNL     1      -3.632  -1.634  -2.101  0.00  0.00    +0.401 C 
ATOM      8  O   UNL     1      -2.728  -2.446  -2.118  0.00  0.00    -0.226 OA
ATOM      9  H   UNL     1      -4.134   0.258  -1.617  0.00  0.00    +0.153 HD
BRANCH   7  10
ATOM     10  O   UNL     1      -4.854  -1.977  -2.551  0.00  0.00    -0.445 OA
BRANCH  10  11
ATOM     11  C   UNL     1      -5.015  -3.312  -3.035  0.00  0.00    +0.107 C 
ATOM     12  C   UNL     1      -4.698  -4.303  -1.913  0.00  0.00    +0.055 C 
ATOM     13  C   UNL     1      -6.459  -3.514  -3.501  0.00  0.00    +0.055 C 
ATOM     14  C   UNL     1      -4.063  -3.548  -4.209  0.00  0.00    +0.055 C 
ENDBRANCH  10  11
ENDBRANCH   7  10
ENDBRANCH   5   6
BRANCH   5  15
ATOM     15  C   UNL     1      -1.944  -0.436   0.324  0.00  0.00    +0.015 C 
ATOM     16  C   UNL     1      -3.102   0.148   1.135  0.00  0.00    +0.010 C 
BRANCH  15  18
ATOM     17  C   UNL     1      -0.721  -2.540  -0.243  0.00  0.00    +0.004 C 
ATOM     18  C   UNL     1      -1.972  -1.963   0.422  0.00  0.00    +0.002 C 
ENDBRANCH  15  18
ENDBRANCH   5  15
ENDBRANCH   1   5
BRANCH   3  19
ATOM     19  C   UNL     1      -0.496   3.462  -1.280  0.00  0.00    +0.112 C 
BRANCH  19  20
ATOM     20  C   UNL     1       0.996   3.799  -1.313  0.00  0.00    +0.095 C 
BRANCH  20  21
ATOM     21  C   UNL     1       1.173   5.296  -1.312  0.00  0.00    +0.134 A 
ATOM     22  N   UNL     1       0.217   6.167  -1.281  0.00  0.00    -0.158 NA
ATOM     23  N   UNL     1       0.791   7.446  -1.292  0.00  0.00    -0.254 N 
ATOM     24  C   UNL     1       2.131   7.284  -1.331  0.00  0.00    +0.176 A 
ATOM     25  N   UNL     1       2.376   5.958  -1.337  0.00  0.00    -0.305 N 
ATOM     26  S   UNL     1       3.302   8.531  -1.359  0.00  0.00    -0.011 S 
ATOM     27  H   UNL     1       0.315   8.290  -1.276  0.00  0.00    +0.191 HD
BRANCH  25  28
ATOM     28  C   UNL     1       3.700   5.331  -1.369  0.00  0.00    +0.085 C 
ATOM     29  C   UNL     1       4.441   5.768  -2.634  0.00  0.00    +0.030 C 
ATOM     30  C   UNL     1       4.497   5.761  -0.136  0.00  0.00    +0.030 C 
ENDBRANCH  25  28
ENDBRANCH  20  21
ENDBRANCH  19  20
ENDBRANCH   3  19
TORSDOF 10
