REMARK  Name = ZINC01275507
REMARK  11 active torsions:
REMARK  status: ('A' for Active; 'I' for Inactive)
REMARK    1  A    between atoms: C_1  and  C_2
REMARK    2  A    between atoms: C_2  and  C_3
REMARK    3  A    between atoms: C_2  and  C_4
REMARK    4  A    between atoms: C_4  and  C_5
REMARK    5  A    between atoms: C_5  and  N_6
REMARK    6  A    between atoms: N_9  and  C_26
REMARK    7  A    between atoms: C_10  and  N_15
REMARK    8  A    between atoms: C_12  and  C_13
REMARK    9  A    between atoms: C_12  and  C_14
REMARK   10  A    between atoms: N_15  and  O_25
REMARK   11  A    between atoms: N_18  and  C_19
REMARK                            x       y       z     vdW  Elec       q    Type
REMARK                         _______ _______ _______ _____ _____    ______ ____
ROOT
ATOM      1  N   UNL     1      -5.410   5.094   0.292  0.00  0.00    -0.276 N 
ATOM      2  C   UNL     1      -4.156   4.973  -0.165  0.00  0.00    +0.311 C 
ATOM      3  O   UNL     1      -3.393   5.914  -0.263  0.00  0.00    -0.252 OA
ATOM      4  N   UNL     1      -3.822   3.722  -0.507  0.00  0.00    -0.232 N 
ATOM      5  C   UNL     1      -4.965   2.831  -0.260  0.00  0.00    +0.224 C 
ATOM      6  C   UNL     1      -6.055   3.772   0.289  0.00  0.00    +0.071 C 
ATOM      7  C   UNL     1      -7.277   3.773  -0.631  0.00  0.00    +0.035 C 
ATOM      8  C   UNL     1      -6.451   3.365   1.710  0.00  0.00    +0.035 C 
ENDROOT
BRANCH   4   9
ATOM      9  C   UNL     1      -2.579   3.325  -1.015  0.00  0.00    +0.040 A 
ATOM     10  C   UNL     1      -2.501   2.699  -2.252  0.00  0.00    +0.023 A 
ATOM     11  C   UNL     1      -1.274   2.303  -2.748  0.00  0.00    +0.002 A 
ATOM     12  C   UNL     1      -0.123   2.540  -2.018  0.00  0.00    +0.000 A 
ATOM     13  C   UNL     1      -0.197   3.168  -0.789  0.00  0.00    +0.002 A 
ATOM     14  C   UNL     1      -1.422   3.561  -0.285  0.00  0.00    +0.023 A 
ENDBRANCH   4   9
BRANCH   5  15
ATOM     15  N   UNL     1      -4.617   1.812   0.734  0.00  0.00    -0.144 N 
ATOM     16  C   UNL     1      -4.534   0.517   0.371  0.00  0.00    +0.331 C 
ATOM     17  O   UNL     1      -4.838   0.181  -0.757  0.00  0.00    -0.250 OA
ATOM     18  N   UNL     1      -4.113  -0.406   1.258  0.00  0.00    -0.268 N 
ATOM     19  H   UNL     1      -3.946  -0.152   2.180  0.00  0.00    +0.156 HD
BRANCH  18  20
ATOM     20  C   UNL     1      -3.916  -1.730   0.850  0.00  0.00    +0.035 A 
ATOM     21  C   UNL     1      -3.475  -2.003  -0.438  0.00  0.00    +0.023 A 
ATOM     22  C   UNL     1      -3.277  -3.311  -0.836  0.00  0.00    +0.002 A 
ATOM     23  C   UNL     1      -3.527  -4.348   0.043  0.00  0.00    +0.000 A 
ATOM     24  C   UNL     1      -3.971  -4.080   1.325  0.00  0.00    +0.002 A 
ATOM     25  C   UNL     1      -4.166  -2.774   1.731  0.00  0.00    +0.023 A 
ENDBRANCH  18  20
BRANCH  15  26
ATOM     26  O   UNL     1      -4.369   2.188   2.077  0.00  0.00    -0.289 OA
ATOM     27  H   UNL     1      -4.072   1.461   2.640  0.00  0.00    +0.242 HD
ENDBRANCH  15  26
ENDBRANCH   5  15
BRANCH   1  28
ATOM     28  C   UNL     1      -6.036   6.343   0.731  0.00  0.00    +0.110 C 
BRANCH  28  29
ATOM     29  C   UNL     1      -5.781   6.544   2.227  0.00  0.00    +0.022 C 
BRANCH  29  31
ATOM     30  C   UNL     1      -6.287   7.988   4.202  0.00  0.00    +0.007 C 
ATOM     31  C   UNL     1      -6.435   7.848   2.685  0.00  0.00    -0.016 C 
ATOM     32  C   UNL     1      -5.752   9.031   1.996  0.00  0.00    +0.007 C 
ENDBRANCH  29  31
ENDBRANCH  28  29
ENDBRANCH   1  28
TORSDOF 7
