REMARK  Name = ZINC00417733
REMARK  5 active torsions:
REMARK  status: ('A' for Active; 'I' for Inactive)
REMARK    1  A    between atoms: C_1  and  C_2
REMARK    2  A    between atoms: C_9  and  C_11
REMARK    3  A    between atoms: C_11  and  S_12
REMARK    4  A    between atoms: S_12  and  C_13
REMARK    5  A    between atoms: N_24  and  C_25
REMARK                            x       y       z     vdW  Elec       q    Type
REMARK                         _______ _______ _______ _____ _____    ______ ____
ROOT
ATOM      1  C   UNL     1       4.125   0.465   5.135  0.00  0.00    +0.179 C 
ATOM      2  N   UNL     1       4.424  -0.805   5.170  0.00  0.00    -0.158 NA
ATOM      3  N   UNL     1       5.383  -0.995   6.175  0.00  0.00    -0.221 N 
ATOM      4  C   UNL     1       5.634   0.203   6.723  0.00  0.00    +0.119 C 
ATOM      5  C   UNL     1       6.575   0.476   7.814  0.00  0.00    +0.013 C 
ATOM      6  C   UNL     1       7.236  -0.584   8.451  0.00  0.00    +0.015 C 
ATOM      7  C   UNL     1       8.110  -0.331   9.465  0.00  0.00    +0.051 C 
ATOM      8  C   UNL     1       8.349   0.990   9.871  0.00  0.00    +0.179 C 
ATOM      9  O   UNL     1       9.206   1.238  10.864  0.00  0.00    -0.288 OA
ATOM     10  C   UNL     1       7.689   2.050   9.234  0.00  0.00    +0.051 C 
ATOM     11  C   UNL     1       6.819   1.797   8.216  0.00  0.00    +0.015 C 
ATOM     12  N   UNL     1       4.867   1.115   6.086  0.00  0.00    -0.268 N 
ATOM     13  C   UNL     1       4.832   2.552   6.366  0.00  0.00    +0.139 C 
ATOM     14  H   UNL     1       5.791  -1.838   6.427  0.00  0.00    +0.176 HD
ENDROOT
BRANCH   1  15
ATOM     15  S   UNL     1       2.966   1.219   4.042  0.00  0.00    -0.079 S 
BRANCH  15  16
ATOM     16  C   UNL     1       2.336  -0.163   3.050  0.00  0.00    +0.173 C 
BRANCH  16  24
ATOM     17  C   UNL     1      -0.412   1.498   0.357  0.00  0.00    +0.028 C 
ATOM     18  C   UNL     1      -0.192  -0.004   0.170  0.00  0.00    +0.073 C 
ATOM     19  C   UNL     1      -1.532  -0.738   0.286  0.00  0.00    +0.022 C 
ATOM     20  C   UNL     1      -1.287  -2.248   0.237  0.00  0.00    +0.003 C 
ATOM     21  C   UNL     1      -0.405  -2.663   1.417  0.00  0.00    +0.019 C 
ATOM     22  C   UNL     1       0.947  -1.950   1.313  0.00  0.00    +0.108 C 
ATOM     23  N   UNL     1       0.716  -0.503   1.212  0.00  0.00    -0.298 N 
ATOM     24  C   UNL     1       1.322   0.351   2.060  0.00  0.00    +0.226 C 
ATOM     25  O   UNL     1       1.051   1.533   2.028  0.00  0.00    -0.275 OA
ENDBRANCH  16  24
ENDBRANCH  15  16
ENDBRANCH   1  15
TORSDOF 3
