REMARK  Name = ZINC36830082
REMARK  6 active torsions:
REMARK  status: ('A' for Active; 'I' for Inactive)
REMARK    1  A    between atoms: C_1  and  C_2
REMARK    2  A    between atoms: C_2  and  N_3
REMARK    3  A    between atoms: N_3  and  C_4
REMARK    4  A    between atoms: C_4  and  C_6
REMARK    5  A    between atoms: C_4  and  C_14
REMARK    6  A    between atoms: C_11  and  C_12
REMARK                            x       y       z     vdW  Elec       q    Type
REMARK                         _______ _______ _______ _____ _____    ______ ____
ROOT
ATOM      1  C   UNL     1       0.517  -1.597  -0.966  0.00  0.00    -0.009 C 
ENDROOT
BRANCH   1   2
ATOM      2  C   UNL     1      -0.876  -2.048  -1.323  0.00  0.00    -0.054 A 
ATOM      3  C   UNL     1      -1.592  -1.375  -2.296  0.00  0.00    +0.003 A 
ATOM      4  C   UNL     1      -2.870  -1.788  -2.623  0.00  0.00    +0.015 A 
ATOM      5  C   UNL     1      -3.432  -2.875  -1.978  0.00  0.00    +0.018 A 
ATOM      6  C   UNL     1      -2.715  -3.548  -1.005  0.00  0.00    +0.018 A 
ATOM      7  C   UNL     1      -1.436  -3.137  -0.682  0.00  0.00    -0.048 A 
ATOM      8  C   UNL     1      -0.652  -3.874   0.374  0.00  0.00    +0.044 C 
ATOM      9 BR   UNL     1      -5.180  -3.440  -2.426  0.00  0.00    -0.050 Br
ENDBRANCH   1   2
BRANCH   1  10
ATOM     10  C   UNL     1       1.350  -1.501  -2.218  0.00  0.00    -0.042 A 
ATOM     11  C   UNL     1       1.467  -0.293  -2.879  0.00  0.00    +0.018 A 
ATOM     12  C   UNL     1       2.231  -0.204  -4.029  0.00  0.00    +0.018 A 
ATOM     13  C   UNL     1       2.879  -1.325  -4.517  0.00  0.00    +0.016 A 
ATOM     14  C   UNL     1       2.762  -2.533  -3.856  0.00  0.00    +0.016 A 
ATOM     15  C   UNL     1       2.002  -2.620  -2.703  0.00  0.00    +0.020 A 
ATOM     16 BR   UNL     1       1.848  -4.272  -1.795  0.00  0.00    -0.050 Br
ATOM     17 BR   UNL     1       2.391   1.449  -4.933  0.00  0.00    -0.050 Br
ENDBRANCH   1  10
BRANCH   1  18
ATOM     18  N   UNL     1       0.455  -0.281  -0.317  0.00  0.00    +0.386 N 
ATOM     19  H   UNL     1      -0.037   0.366  -0.915  0.00  0.00    -0.085 HD
ATOM     20  H   UNL     1       1.391   0.057  -0.152  0.00  0.00    -0.085 HD
BRANCH  18  22
ATOM     21  C   UNL     1      -0.320   0.971   1.640  0.00  0.00    -0.017 C 
ATOM     22  C   UNL     1      -0.255  -0.400   0.964  0.00  0.00    -0.085 C 
ENDBRANCH  18  22
ENDBRANCH   1  18
TORSDOF 4
