REMARK  Name = ZINC46881703
REMARK  6 active torsions:
REMARK  status: ('A' for Active; 'I' for Inactive)
REMARK    1  A    between atoms: C_1  and  C_2
REMARK    2  A    between atoms: C_2  and  C_4
REMARK    3  A    between atoms: C_2  and  N_12
REMARK    4  A    between atoms: N_15  and  C_16
REMARK    5  A    between atoms: C_16  and  C_17
REMARK    6  A    between atoms: N_19  and  C_20
REMARK                            x       y       z     vdW  Elec       q    Type
REMARK                         _______ _______ _______ _____ _____    ______ ____
ROOT
ATOM      1  N   UNL     1      -1.344  -1.291   0.192  0.00  0.00    -0.293 N 
ATOM      2  C   UNL     1      -2.070  -1.418  -0.936  0.00  0.00    +0.300 C 
ATOM      3  O   UNL     1      -1.607  -1.058  -2.001  0.00  0.00    -0.253 OA
ATOM      4  N   UNL     1      -3.309  -1.945  -0.884  0.00  0.00    -0.291 N 
ATOM      5  H   UNL     1      -1.713  -1.578   1.041  0.00  0.00    +0.151 HD
ATOM      6  H   UNL     1      -3.679  -2.233  -0.034  0.00  0.00    +0.151 HD
ENDROOT
BRANCH   1   8
ATOM      7  C   UNL     1      -0.082   0.802   0.287  0.00  0.00    +0.033 C 
ATOM      8  C   UNL     1       0.003  -0.718   0.135  0.00  0.00    +0.103 C 
BRANCH   8   9
ATOM      9  C   UNL     1       0.840  -1.289   1.251  0.00  0.00    -0.009 A 
ATOM     10  C   UNL     1       0.233  -1.730   2.412  0.00  0.00    +0.008 A 
ATOM     11  C   UNL     1       0.999  -2.254   3.437  0.00  0.00    +0.020 A 
ATOM     12  C   UNL     1       2.374  -2.337   3.300  0.00  0.00    +0.042 A 
ATOM     13  C   UNL     1       2.981  -1.895   2.138  0.00  0.00    +0.040 A 
ATOM     14  C   UNL     1       2.213  -1.376   1.111  0.00  0.00    +0.047 A 
ATOM     15 CL   UNL     1       2.974  -0.827  -0.349  0.00  0.00    -0.083 Cl
ATOM     16 CL   UNL     1       3.336  -2.994   4.587  0.00  0.00    -0.083 Cl
ENDBRANCH   8   9
ENDBRANCH   1   8
BRANCH   4  17
ATOM     17  C   UNL     1      -4.099  -2.084  -2.110  0.00  0.00    +0.202 C 
BRANCH  17  18
ATOM     18  C   UNL     1      -5.436  -2.695  -1.780  0.00  0.00    +0.234 C 
ATOM     19  O   UNL     1      -5.704  -2.986  -0.634  0.00  0.00    -0.274 OA
ATOM     20  N   UNL     1      -6.335  -2.918  -2.759  0.00  0.00    -0.284 N 
ATOM     21  H   UNL     1      -6.095  -2.756  -3.685  0.00  0.00    +0.155 HD
BRANCH  20  22
ATOM     22  C   UNL     1      -7.617  -3.385  -2.441  0.00  0.00    +0.036 A 
ATOM     23  C   UNL     1      -8.280  -4.241  -3.309  0.00  0.00    +0.026 A 
ATOM     24  C   UNL     1      -9.544  -4.701  -2.993  0.00  0.00    +0.043 A 
ATOM     25  C   UNL     1     -10.150  -4.308  -1.812  0.00  0.00    +0.159 A 
ATOM     26  C   UNL     1      -9.490  -3.453  -0.944  0.00  0.00    +0.160 A 
ATOM     27  C   UNL     1      -8.222  -2.995  -1.254  0.00  0.00    +0.064 A 
ATOM     28  F   UNL     1     -10.083  -3.070   0.209  0.00  0.00    -0.202 F 
ATOM     29  F   UNL     1     -11.387  -4.758  -1.506  0.00  0.00    -0.202 F 
ENDBRANCH  20  22
ENDBRANCH  17  18
ENDBRANCH   4  17
TORSDOF 5
