REMARK  Name = ZINC26687061
REMARK  9 active torsions:
REMARK  status: ('A' for Active; 'I' for Inactive)
REMARK    1  A    between atoms: C_1  and  O_2
REMARK    2  A    between atoms: O_2  and  C_3
REMARK    3  A    between atoms: C_3  and  C_4
REMARK    4  A    between atoms: C_4  and  N_5
REMARK    5  A    between atoms: C_9  and  C_10
REMARK    6  A    between atoms: C_11  and  N_21
REMARK    7  A    between atoms: N_24  and  C_27
REMARK    8  A    between atoms: C_27  and  C_28
REMARK    9  A    between atoms: C_28  and  O_29
REMARK                            x       y       z     vdW  Elec       q    Type
REMARK                         _______ _______ _______ _____ _____    ______ ____
ROOT
ATOM      1  C   UNL     1       1.208   2.189  -0.627  0.00  0.00    +0.081 A 
ATOM      2  C   UNL     1       2.348   1.354  -0.701  0.00  0.00    +0.136 A 
ATOM      3  N   UNL     1       2.191   0.046  -0.846  0.00  0.00    -0.214 NA
ATOM      4  C   UNL     1       0.981  -0.509  -0.925  0.00  0.00    +0.142 A 
ATOM      5  C   UNL     1       0.877  -1.903  -1.078  0.00  0.00    +0.047 A 
ATOM      6  C   UNL     1      -0.356  -2.480  -1.160  0.00  0.00    +0.005 A 
ATOM      7  C   UNL     1      -1.502  -1.675  -1.090  0.00  0.00    +0.018 A 
ATOM      8  C   UNL     1      -1.382  -0.337  -0.944  0.00  0.00    +0.096 A 
ATOM      9  N   UNL     1      -0.154   0.249  -0.860  0.00  0.00    -0.268 N 
ATOM     10  C   UNL     1      -0.071   1.589  -0.713  0.00  0.00    +0.267 A 
ATOM     11  O   UNL     1      -1.080   2.271  -0.660  0.00  0.00    -0.267 OA
ENDROOT
BRANCH   1  16
ATOM     12  N   UNL     1      -0.003   5.124  -3.514  0.00  0.00    -0.253 N 
ATOM     13  C   UNL     1       0.318   4.122  -2.715  0.00  0.00    +0.258 C 
ATOM     14  O   UNL     1       0.100   2.967  -3.039  0.00  0.00    -0.269 OA
ATOM     15  C   UNL     1       0.925   4.428  -1.463  0.00  0.00    +0.077 C 
ATOM     16  C   UNL     1       1.344   3.589  -0.473  0.00  0.00    +0.037 C 
ATOM     17  S   UNL     1       0.981   6.213  -1.540  0.00  0.00    -0.061 S 
ATOM     18  C   UNL     1       0.238   6.404  -3.154  0.00  0.00    +0.121 C 
ATOM     19  S   UNL     1      -0.090   7.843  -4.021  0.00  0.00    -0.027 S 
BRANCH  12  20
ATOM     20  C   UNL     1      -0.628   4.844  -4.809  0.00  0.00    +0.143 C 
BRANCH  20  21
ATOM     21  C   UNL     1      -2.149   4.819  -4.646  0.00  0.00    +0.179 C 
BRANCH  21  23
ATOM     22  C   UNL     1      -4.026   6.206  -4.098  0.00  0.00    +0.194 C 
ATOM     23  O   UNL     1      -2.610   6.120  -4.277  0.00  0.00    -0.381 OA
ENDBRANCH  21  23
ENDBRANCH  20  21
ENDBRANCH  12  20
ENDBRANCH   1  16
BRANCH   2  24
ATOM     24  N   UNL     1       3.612   1.897  -0.623  0.00  0.00    -0.312 N 
ATOM     25  C   UNL     1       3.886   2.763  -1.778  0.00  0.00    +0.122 C 
ATOM     26  C   UNL     1       5.265   3.407  -1.613  0.00  0.00    +0.103 C 
ATOM     27  N   UNL     1       6.283   2.354  -1.495  0.00  0.00    -0.297 NA
ATOM     28  C   UNL     1       6.009   1.488  -0.340  0.00  0.00    +0.103 C 
ATOM     29  C   UNL     1       4.631   0.844  -0.504  0.00  0.00    +0.122 C 
BRANCH  27  30
ATOM     30  C   UNL     1       7.631   2.932  -1.411  0.00  0.00    +0.112 C 
BRANCH  30  31
ATOM     31  C   UNL     1       8.666   1.870  -1.785  0.00  0.00    +0.171 C 
BRANCH  31  32
ATOM     32  O   UNL     1       8.487   1.490  -3.151  0.00  0.00    -0.394 OA
ATOM     33  H   UNL     1       9.144   0.731  -3.601  0.00  0.00    +0.209 HD
ENDBRANCH  31  32
ENDBRANCH  30  31
ENDBRANCH  27  30
ENDBRANCH   2  24
TORSDOF 8
