REMARK  Name = ZINC06259785
REMARK  4 active torsions:
REMARK  status: ('A' for Active; 'I' for Inactive)
REMARK    1  A    between atoms: C_3  and  O_8
REMARK    2  A    between atoms: O_8  and  C_9
REMARK    3  A    between atoms: C_9  and  C_11
REMARK    4  A    between atoms: C_14  and  N_17
REMARK                            x       y       z     vdW  Elec       q    Type
REMARK                         _______ _______ _______ _____ _____    ______ ____
ROOT
ATOM      1  C   UNL     1      -1.300   2.118  -0.023  0.00  0.00    +0.344 C 
ATOM      2  O   UNL     1      -2.344   1.497  -0.060  0.00  0.00    -0.245 OA
ENDROOT
BRANCH   1   3
ATOM      3  C   UNL     1      -0.011   1.397  -0.034  0.00  0.00    +0.060 A 
ATOM      4  C   UNL     1       1.190   2.108   0.003  0.00  0.00    +0.017 A 
ATOM      5  C   UNL     1       2.391   1.428  -0.013  0.00  0.00    +0.033 A 
ATOM      6  C   UNL     1       2.406   0.046  -0.065  0.00  0.00    +0.126 A 
ATOM      7  C   UNL     1       1.220  -0.665  -0.102  0.00  0.00    +0.033 A 
ATOM      8  C   UNL     1       0.012   0.002  -0.086  0.00  0.00    +0.017 A 
BRANCH   6   9
ATOM      9  N   UNL     1       3.698  -0.676  -0.082  0.00  0.00    +0.056 N 
ATOM     10  O   UNL     1       3.715  -1.894  -0.128  0.00  0.00    -0.126 OA
ATOM     11  O   UNL     1       4.745  -0.054  -0.050  0.00  0.00    -0.126 OA
ENDBRANCH   6   9
ENDBRANCH   1   3
BRANCH   1  12
ATOM     12  O   UNL     1      -1.319   3.464   0.027  0.00  0.00    -0.422 OA
BRANCH  12  15
ATOM     13  C   UNL     1      -4.619   4.707   0.924  0.00  0.00    +0.005 A 
ATOM     14  C   UNL     1      -3.386   4.091   1.024  0.00  0.00    +0.046 A 
ATOM     15  C   UNL     1      -2.532   4.068  -0.069  0.00  0.00    +0.133 A 
ATOM     16  C   UNL     1      -2.917   4.668  -1.260  0.00  0.00    +0.060 A 
ATOM     17  C   UNL     1      -4.153   5.278  -1.357  0.00  0.00    +0.017 A 
ATOM     18  C   UNL     1      -5.003   5.299  -0.265  0.00  0.00    +0.014 A 
ATOM     19  I   UNL     1      -4.738   6.178  -3.156  0.00  0.00    -0.044 I 
ENDBRANCH  12  15
ENDBRANCH   1  12
TORSDOF 4
