REMARK  Name = ZINC08769561
REMARK  7 active torsions:
REMARK  status: ('A' for Active; 'I' for Inactive)
REMARK    1  A    between atoms: C_1  and  C_2
REMARK    2  A    between atoms: C_2  and  C_3
REMARK    3  A    between atoms: C_3  and  C_5
REMARK    4  A    between atoms: C_3  and  N_6
REMARK    5  A    between atoms: C_9  and  C_15
REMARK    6  A    between atoms: C_10  and  O_14
REMARK    7  A    between atoms: C_12  and  S_13
REMARK                            x       y       z     vdW  Elec       q    Type
REMARK                         _______ _______ _______ _____ _____    ______ ____
ROOT
ATOM      1  N   UNL     1      -0.947   2.322   3.674  0.00  0.00    -0.285 N 
ATOM      2  C   UNL     1      -0.417   1.894   2.509  0.00  0.00    +0.260 A 
ATOM      3  O   UNL     1       0.580   1.189   2.503  0.00  0.00    -0.267 OA
ATOM      4  C   UNL     1      -1.026   2.277   1.308  0.00  0.00    +0.069 A 
ATOM      5  C   UNL     1      -2.158   3.072   1.359  0.00  0.00    +0.222 A 
ATOM      6  N   UNL     1      -2.643   3.462   2.542  0.00  0.00    -0.189 NA
ATOM      7  C   UNL     1      -2.063   3.104   3.669  0.00  0.00    +0.172 A 
ENDROOT
BRANCH   4   8
ATOM      8  C   UNL     1      -0.464   1.826  -0.015  0.00  0.00    +0.001 C 
ATOM      9  C   UNL     1      -0.580   0.328  -0.120  0.00  0.00    -0.054 A 
ATOM     10  C   UNL     1      -1.752  -0.276   0.311  0.00  0.00    +0.002 A 
ATOM     11  C   UNL     1      -1.902  -1.646   0.230  0.00  0.00    +0.000 A 
ATOM     12  C   UNL     1      -0.879  -2.421  -0.283  0.00  0.00    +0.000 A 
ATOM     13  C   UNL     1       0.288  -1.823  -0.712  0.00  0.00    +0.004 A 
ATOM     14  C   UNL     1       0.441  -0.447  -0.629  0.00  0.00    -0.047 A 
ATOM     15  C   UNL     1       1.737   0.162  -1.100  0.00  0.00    +0.016 C 
ATOM     16  C   UNL     1       1.559   1.665  -1.316  0.00  0.00    -0.077 C 
ATOM     17  N   UNL     1       0.942   2.244  -0.108  0.00  0.00    +0.387 N 
ATOM     18  H   UNL     1       1.449   1.918   0.723  0.00  0.00    -0.085 HD
ATOM     19  H   UNL     1       0.990   3.268  -0.159  0.00  0.00    -0.085 HD
ENDBRANCH   4   8
BRANCH   1  20
ATOM     20  C   UNL     1      -0.326   1.942   4.944  0.00  0.00    +0.089 C 
ATOM     21  C   UNL     1      -0.301   0.416   5.063  0.00  0.00    +0.031 C 
BRANCH  20  23
ATOM     22  C   UNL     1       1.076   4.010   4.961  0.00  0.00    +0.006 C 
ATOM     23  C   UNL     1       1.105   2.481   4.995  0.00  0.00    +0.021 C 
ENDBRANCH  20  23
ENDBRANCH   1  20
BRANCH   7  24
ATOM     24  S   UNL     1      -2.744   3.646   5.201  0.00  0.00    -0.105 S 
ATOM     25  H   UNL     1      -3.841   4.395   4.730  0.00  0.00    +0.110 HD
ENDBRANCH   7  24
BRANCH   5  26
ATOM     26  O   UNL     1      -2.772   3.454   0.215  0.00  0.00    -0.492 OA
ATOM     27  H   UNL     1      -3.553   4.008   0.353  0.00  0.00    +0.294 HD
ENDBRANCH   5  26
TORSDOF 5
