REMARK  Name = ZINC23517020
REMARK  9 active torsions:
REMARK  status: ('A' for Active; 'I' for Inactive)
REMARK    1  A    between atoms: C_1  and  C_2
REMARK    2  A    between atoms: C_7  and  N_8
REMARK    3  A    between atoms: C_9  and  C_11
REMARK    4  A    between atoms: C_11  and  C_13
REMARK    5  A    between atoms: C_11  and  S_14
REMARK    6  A    between atoms: S_14  and  C_15
REMARK    7  A    between atoms: C_18  and  C_27
REMARK    8  A    between atoms: N_19  and  C_20
REMARK    9  A    between atoms: C_20  and  C_21
REMARK                            x       y       z     vdW  Elec       q    Type
REMARK                         _______ _______ _______ _____ _____    ______ ____
ROOT
ATOM      1  C   UNL     1       5.636  -3.506   0.210  0.00  0.00    +0.193 A 
ATOM      2  N   UNL     1       4.366  -3.837   0.181  0.00  0.00    -0.122 NA
ATOM      3  N   UNL     1       3.642  -2.793  -0.012  0.00  0.00    -0.128 NA
ATOM      4  C   UNL     1       4.405  -1.730  -0.118  0.00  0.00    +0.167 A 
ATOM      5  N   UNL     1       5.707  -2.154   0.016  0.00  0.00    -0.300 N 
ENDROOT
BRANCH   4   6
ATOM      6  C   UNL     1       3.953  -0.343  -0.344  0.00  0.00    +0.044 A 
ATOM      7  C   UNL     1       4.466   0.542  -1.238  0.00  0.00    +0.095 A 
ATOM      8  N   UNL     1       3.787   1.724  -1.157  0.00  0.00    -0.360 N 
ATOM      9  H   UNL     1       4.066   2.564  -1.810  0.00  0.00    +0.165 HD
ATOM     10  C   UNL     1       2.801   1.642  -0.197  0.00  0.00    +0.047 A 
ATOM     11  C   UNL     1       2.857   0.351   0.355  0.00  0.00    +0.010 A 
ATOM     12  C   UNL     1       1.966  -0.018   1.360  0.00  0.00    +0.011 A 
ATOM     13  C   UNL     1       1.031   0.889   1.809  0.00  0.00    +0.001 A 
ATOM     14  C   UNL     1       0.975   2.164   1.265  0.00  0.00    +0.002 A 
ATOM     15  C   UNL     1       1.850   2.543   0.270  0.00  0.00    +0.026 A 
ENDBRANCH   4   6
BRANCH   1  16
ATOM     16  S   UNL     1       6.995  -4.601   0.447  0.00  0.00    -0.074 S 
BRANCH  16  17
ATOM     17  C   UNL     1       6.109  -6.170   0.618  0.00  0.00    +0.137 C 
ATOM     18  C   UNL     1       5.252  -6.136   1.885  0.00  0.00    +0.029 C 
BRANCH  17  20
ATOM     19  N   UNL     1       6.742  -8.546   0.348  0.00  0.00    -0.284 N 
ATOM     20  C   UNL     1       7.102  -7.300   0.714  0.00  0.00    +0.230 C 
ATOM     21  O   UNL     1       8.225  -7.088   1.119  0.00  0.00    -0.274 OA
ATOM     22  H   UNL     1       5.748  -8.726  -0.089  0.00  0.00    +0.155 HD
BRANCH  19  29
ATOM     23  C   UNL     1       5.660 -11.146   0.762  0.00  0.00    +0.045 C 
ATOM     24  C   UNL     1       7.146 -10.897   0.729  0.00  0.00    -0.029 A 
ATOM     25  C   UNL     1       8.027 -11.947   0.902  0.00  0.00    +0.005 A 
ATOM     26  C   UNL     1       9.391 -11.719   0.871  0.00  0.00    +0.000 A 
ATOM     27  C   UNL     1       9.877 -10.441   0.667  0.00  0.00    +0.002 A 
ATOM     28  C   UNL     1       9.002  -9.388   0.488  0.00  0.00    +0.023 A 
ATOM     29  C   UNL     1       7.631  -9.612   0.524  0.00  0.00    +0.036 A 
ENDBRANCH  19  29
ENDBRANCH  17  20
ENDBRANCH  16  17
ENDBRANCH   1  16
BRANCH   5  30
ATOM     30  C   UNL     1       6.917  -1.330  -0.037  0.00  0.00    +0.157 C 
BRANCH  30  31
ATOM     31  C   UNL     1       7.332  -0.942   1.384  0.00  0.00    +0.138 C 
ATOM     32  C   UNL     1       8.642  -0.115   1.355  0.00  0.00    +0.035 C 
ATOM     33  C   UNL     1       8.519   0.678   2.685  0.00  0.00    +0.031 C 
ATOM     34  C   UNL     1       6.996   0.912   2.787  0.00  0.00    +0.160 C 
ATOM     35  O   UNL     1       6.351  -0.072   1.970  0.00  0.00    -0.375 OA
ENDBRANCH  30  31
ENDBRANCH   5  30
TORSDOF 7
