REMARK  Name = ZINC14374686
REMARK  9 active torsions:
REMARK  status: ('A' for Active; 'I' for Inactive)
REMARK    1  A    between atoms: C_1  and  C_2
REMARK    2  A    between atoms: C_5  and  C_34
REMARK    3  A    between atoms: C_13  and  S_21
REMARK    4  A    between atoms: N_14  and  C_15
REMARK    5  A    between atoms: C_15  and  C_16
REMARK    6  A    between atoms: S_21  and  C_22
REMARK    7  A    between atoms: C_22  and  C_23
REMARK    8  A    between atoms: N_25  and  C_26
REMARK    9  A    between atoms: C_26  and  C_32
REMARK                            x       y       z     vdW  Elec       q    Type
REMARK                         _______ _______ _______ _____ _____    ______ ____
ROOT
ATOM      1  C   UNL     1      -2.136  -1.391  -1.040  0.00  0.00    +0.009 C 
ATOM      2  C   UNL     1      -1.452  -1.934   0.217  0.00  0.00    +0.004 C 
ATOM      3  C   UNL     1      -2.118  -1.339   1.459  0.00  0.00    +0.009 C 
ATOM      4  C   UNL     1      -1.456  -1.906   2.717  0.00  0.00    +0.004 C 
ATOM      5  C   UNL     1       0.026  -1.517   2.729  0.00  0.00    +0.111 C 
ATOM      6  N   UNL     1       0.642  -1.960   1.470  0.00  0.00    -0.299 N 
ATOM      7  C   UNL     1       0.030  -1.546   0.200  0.00  0.00    +0.111 C 
ATOM      8  C   UNL     1       1.781  -2.755   1.481  0.00  0.00    +0.221 A 
ATOM      9  N   UNL     1       1.807  -4.061   1.586  0.00  0.00    -0.112 NA
ATOM     10  N   UNL     1       3.146  -4.471   1.556  0.00  0.00    -0.121 NA
ATOM     11  C   UNL     1       3.894  -3.401   1.434  0.00  0.00    +0.194 A 
ATOM     12  N   UNL     1       3.069  -2.313   1.378  0.00  0.00    -0.283 N 
ATOM     13  C   UNL     1      -2.144  -1.336   3.958  0.00  0.00    +0.009 C 
ENDROOT
BRANCH  12  14
ATOM     14  C   UNL     1       3.492  -0.917   1.237  0.00  0.00    +0.201 C 
BRANCH  14  15
ATOM     15  C   UNL     1       3.725  -0.323   2.602  0.00  0.00    +0.125 A 
ATOM     16  C   UNL     1       4.890  -0.327   3.274  0.00  0.00    +0.046 A 
ATOM     17  C   UNL     1       4.657   0.333   4.503  0.00  0.00    +0.041 A 
ATOM     18  C   UNL     1       3.363   0.702   4.508  0.00  0.00    +0.195 A 
ATOM     19  O   UNL     1       2.805   0.307   3.352  0.00  0.00    -0.466 OA
ENDBRANCH  14  15
ENDBRANCH  12  14
BRANCH  11  20
ATOM     20  S   UNL     1       5.654  -3.372   1.349  0.00  0.00    -0.077 S 
BRANCH  20  21
ATOM     21  C   UNL     1       6.128  -5.119   1.469  0.00  0.00    +0.173 C 
BRANCH  21  22
ATOM     22  C   UNL     1       7.630  -5.237   1.408  0.00  0.00    +0.224 C 
ATOM     23  O   UNL     1       8.312  -4.241   1.295  0.00  0.00    -0.275 OA
ATOM     24  N   UNL     1       8.213  -6.449   1.479  0.00  0.00    -0.297 N 
ATOM     25  H   UNL     1       7.667  -7.246   1.569  0.00  0.00    +0.150 HD
BRANCH  24  26
ATOM     26  C   UNL     1       9.673  -6.564   1.420  0.00  0.00    +0.121 C 
ATOM     27  C   UNL     1      10.176  -5.989   0.095  0.00  0.00    +0.041 C 
ATOM     28  C   UNL     1      11.700  -6.109   0.033  0.00  0.00    +0.003 C 
ATOM     29  C   UNL     1      12.100  -7.582   0.134  0.00  0.00    +0.000 C 
ATOM     30  C   UNL     1      11.597  -8.158   1.459  0.00  0.00    +0.003 C 
ATOM     31  C   UNL     1      10.073  -8.038   1.521  0.00  0.00    +0.041 C 
BRANCH  26  32
ATOM     32  C   UNL     1      10.269  -5.816   2.538  0.00  0.00    +0.088 C 
ATOM     33  N   UNL     1      10.730  -5.239   3.402  0.00  0.00    -0.194 NA
ENDBRANCH  26  32
ENDBRANCH  24  26
ENDBRANCH  21  22
ENDBRANCH  20  21
ENDBRANCH  11  20
TORSDOF 7
