REMARK  Name = ZINC39503769
REMARK  7 active torsions:
REMARK  status: ('A' for Active; 'I' for Inactive)
REMARK    1  A    between atoms: C_4  and  O_7
REMARK    2  A    between atoms: O_7  and  S_8
REMARK    3  A    between atoms: S_8  and  C_11
REMARK    4  A    between atoms: C_17  and  C_20
REMARK    5  A    between atoms: C_25  and  O_26
REMARK    6  A    between atoms: N_27  and  C_29
REMARK    7  A    between atoms: C_34  and  O_35
REMARK                            x       y       z     vdW  Elec       q    Type
REMARK                         _______ _______ _______ _____ _____    ______ ____
ROOT
ATOM      1  C   UNL     1       3.181  -2.282   2.028  0.00  0.00    +0.190 C 
ATOM      2  C   UNL     1       3.184  -2.474   3.570  0.00  0.00    +0.057 C 
ATOM      3  C   UNL     1       1.800  -3.083   3.837  0.00  0.00    +0.038 C 
ATOM      4  C   UNL     1       1.909  -4.610   4.010  0.00  0.00    +0.026 C 
ATOM      5  C   UNL     1       0.645  -4.950   4.840  0.00  0.00    +0.010 C 
ATOM      6  C   UNL     1       0.496  -3.761   5.812  0.00  0.00    +0.025 C 
ATOM      7  C   UNL     1       1.226  -2.569   5.164  0.00  0.00    +0.034 C 
ATOM      8  N   UNL     1       0.928  -2.745   2.713  0.00  0.00    -0.319 N 
ATOM      9  C   UNL     1       1.698  -1.920   1.759  0.00  0.00    +0.135 C 
ENDROOT
BRANCH   6  10
ATOM     10  C   UNL     1      -0.962  -3.432   6.005  0.00  0.00    -0.003 A 
ATOM     11  C   UNL     1      -1.933  -4.329   5.603  0.00  0.00    +0.007 A 
ATOM     12  C   UNL     1      -3.270  -4.027   5.780  0.00  0.00    +0.001 A 
ATOM     13  C   UNL     1      -3.640  -2.827   6.359  0.00  0.00    +0.004 A 
ATOM     14  C   UNL     1      -2.673  -1.927   6.763  0.00  0.00    +0.046 A 
ATOM     15  C   UNL     1      -1.330  -2.230   6.592  0.00  0.00    +0.120 A 
BRANCH  15  16
ATOM     16  O   UNL     1      -0.377  -1.348   6.994  0.00  0.00    -0.506 OA
ATOM     17  H   UNL     1      -0.119  -0.710   6.314  0.00  0.00    +0.292 HD
ENDBRANCH  15  16
ENDBRANCH   6  10
BRANCH   8  18
ATOM     18  C   UNL     1      -0.407  -3.137   2.566  0.00  0.00    +0.072 A 
ATOM     19  C   UNL     1      -1.422  -2.373   3.122  0.00  0.00    +0.027 A 
ATOM     20  C   UNL     1      -2.740  -2.762   2.974  0.00  0.00    +0.002 A 
ATOM     21  C   UNL     1      -3.050  -3.912   2.273  0.00  0.00    +0.004 A 
ATOM     22  C   UNL     1      -2.044  -4.679   1.715  0.00  0.00    +0.047 A 
ATOM     23  C   UNL     1      -0.721  -4.293   1.854  0.00  0.00    +0.138 A 
BRANCH  23  24
ATOM     24  O   UNL     1       0.270  -5.044   1.302  0.00  0.00    -0.505 OA
ATOM     25  H   UNL     1       0.612  -5.734   1.886  0.00  0.00    +0.292 HD
ENDBRANCH  23  24
ENDBRANCH   8  18
BRANCH   1  26
ATOM     26  S   UNL     1       4.279  -0.923   1.541  0.00  0.00    +0.125 S 
ATOM     27  O   UNL     1       5.633  -1.357   1.562  0.00  0.00    -0.136 OA
ATOM     28  O   UNL     1       3.893   0.277   2.195  0.00  0.00    -0.136 OA
BRANCH  26  29
ATOM     29  O   UNL     1       3.972  -0.680   0.070  0.00  0.00    -0.346 OA
BRANCH  29  33
ATOM     30  C   UNL     1       5.564  -3.516  -2.469  0.00  0.00    +0.000 A 
ATOM     31  C   UNL     1       4.327  -3.727  -1.886  0.00  0.00    +0.004 A 
ATOM     32  C   UNL     1       3.792  -2.779  -1.036  0.00  0.00    +0.048 A 
ATOM     33  C   UNL     1       4.497  -1.615  -0.766  0.00  0.00    +0.156 A 
ATOM     34  C   UNL     1       5.737  -1.406  -1.351  0.00  0.00    +0.048 A 
ATOM     35  C   UNL     1       6.268  -2.357  -2.201  0.00  0.00    +0.004 A 
ENDBRANCH  29  33
ENDBRANCH  26  29
ENDBRANCH   1  26
TORSDOF 7
