REMARK  Name = ZINC01635173
REMARK  4 active torsions:
REMARK  status: ('A' for Active; 'I' for Inactive)
REMARK    1  A    between atoms: C_4  and  N_7
REMARK    2  A    between atoms: C_11  and  O_26
REMARK    3  A    between atoms: C_12  and  C_24
REMARK    4  A    between atoms: N_15  and  C_18
REMARK                            x       y       z     vdW  Elec       q    Type
REMARK                         _______ _______ _______ _____ _____    ______ ____
ROOT
ATOM      1  N   UNL     1      -0.836   3.649   0.548  0.00  0.00    -0.256 N 
ATOM      2  C   UNL     1      -0.960   2.326   0.754  0.00  0.00    +0.271 A 
ATOM      3  O   UNL     1      -1.890   1.889   1.406  0.00  0.00    -0.266 OA
ATOM      4  C   UNL     1       0.045   1.406   0.173  0.00  0.00    +0.114 A 
ATOM      5  C   UNL     1       0.106   0.005   0.259  0.00  0.00    +0.156 A 
ATOM      6  C   UNL     1       1.156  -0.637  -0.369  0.00  0.00    +0.133 A 
ATOM      7  S   UNL     1       2.069   0.716  -1.085  0.00  0.00    -0.056 S 
ATOM      8  C   UNL     1       1.076   2.020  -0.554  0.00  0.00    +0.104 A 
ATOM      9  N   UNL     1       1.125   3.377  -0.708  0.00  0.00    -0.283 N 
ATOM     10  C   UNL     1       0.180   4.165  -0.161  0.00  0.00    +0.173 A 
ATOM     11  S   UNL     1       0.277   5.861  -0.375  0.00  0.00    -0.012 S 
ENDROOT
BRANCH   1  15
ATOM     12  C   UNL     1      -3.681   6.224   2.175  0.00  0.00    +0.000 A 
ATOM     13  C   UNL     1      -3.866   5.704   0.907  0.00  0.00    +0.002 A 
ATOM     14  C   UNL     1      -2.925   4.851   0.365  0.00  0.00    +0.026 A 
ATOM     15  C   UNL     1      -1.792   4.514   1.095  0.00  0.00    +0.052 A 
ATOM     16  C   UNL     1      -1.613   5.033   2.371  0.00  0.00    +0.026 A 
ATOM     17  C   UNL     1      -2.554   5.891   2.905  0.00  0.00    +0.002 A 
ENDBRANCH   1  15
BRANCH   9  18
ATOM     18  C   UNL     1       2.170   3.953  -1.440  0.00  0.00    +0.049 A 
ATOM     19  C   UNL     1       2.037   4.145  -2.809  0.00  0.00    +0.026 A 
ATOM     20  C   UNL     1       3.067   4.720  -3.528  0.00  0.00    +0.002 A 
ATOM     21  C   UNL     1       4.234   5.093  -2.888  0.00  0.00    +0.000 A 
ATOM     22  C   UNL     1       4.372   4.898  -1.526  0.00  0.00    +0.002 A 
ATOM     23  C   UNL     1       3.344   4.330  -0.800  0.00  0.00    +0.026 A 
ENDBRANCH   9  18
BRANCH   6  24
ATOM     24  C   UNL     1       1.440  -2.040  -0.428  0.00  0.00    +0.110 C 
ATOM     25  N   UNL     1       1.665  -3.152  -0.475  0.00  0.00    -0.190 NA
ENDBRANCH   6  24
BRANCH   5  26
ATOM     26  O   UNL     1      -0.837  -0.696   0.937  0.00  0.00    -0.504 OA
ATOM     27  H   UNL     1      -1.592  -0.965   0.396  0.00  0.00    +0.292 HD
ENDBRANCH   5  26
TORSDOF 4
