REMARK  Name = ZINC42315080
REMARK  3 active torsions:
REMARK  status: ('A' for Active; 'I' for Inactive)
REMARK    1  A    between atoms: C_3  and  C_7
REMARK    2  A    between atoms: N_12  and  C_13
REMARK    3  A    between atoms: C_18  and  N_19
REMARK                            x       y       z     vdW  Elec       q    Type
REMARK                         _______ _______ _______ _____ _____    ______ ____
ROOT
ATOM      1  C   UNL     1       3.780   2.204  -0.069  0.00  0.00    +0.105 C 
ATOM      2  C   UNL     1       4.294   2.236   1.385  0.00  0.00    +0.029 C 
ATOM      3  C   UNL     1       5.769   1.777   1.243  0.00  0.00    +0.021 C 
ATOM      4  C   UNL     1       5.661   0.736   0.101  0.00  0.00    +0.106 C 
ATOM      5  N   UNL     1       4.651   1.291  -0.824  0.00  0.00    -0.321 N 
ENDROOT
BRANCH   5   6
ATOM      6  C   UNL     1       4.539   0.998  -2.185  0.00  0.00    +0.061 A 
ATOM      7  C   UNL     1       3.807  -0.106  -2.602  0.00  0.00    +0.026 A 
ATOM      8  C   UNL     1       3.698  -0.393  -3.948  0.00  0.00    +0.017 A 
ATOM      9  C   UNL     1       4.319   0.417  -4.882  0.00  0.00    +0.020 A 
ATOM     10  C   UNL     1       5.049   1.518  -4.470  0.00  0.00    +0.050 A 
ATOM     11  C   UNL     1       5.156   1.814  -3.125  0.00  0.00    +0.148 A 
ATOM     12 BR   UNL     1       4.169   0.021  -6.725  0.00  0.00    -0.050 Br
BRANCH  11  13
ATOM     13  N   UNL     1       5.932   2.995  -2.686  0.00  0.00    +0.058 N 
ATOM     14  O   UNL     1       6.387   3.758  -3.505  0.00  0.00    -0.126 OA
ATOM     15  O   UNL     1       6.111   3.196  -1.507  0.00  0.00    -0.126 OA
ENDBRANCH  11  13
ENDBRANCH   5   6
BRANCH   1  18
ATOM     16  C   UNL     1       0.024   2.056  -0.401  0.00  0.00    +0.020 A 
ATOM     17  C   UNL     1       1.314   2.564  -0.383  0.00  0.00    +0.008 A 
ATOM     18  C   UNL     1       2.360   1.700  -0.100  0.00  0.00    -0.009 A 
ATOM     19  C   UNL     1       2.084   0.369   0.153  0.00  0.00    +0.116 A 
ATOM     20  N   UNL     1       0.844  -0.079   0.127  0.00  0.00    -0.263 NA
ATOM     21  C   UNL     1      -0.175   0.714  -0.138  0.00  0.00    +0.111 A 
ENDBRANCH   1  18
TORSDOF 3
