REMARK  Name = ZINC64859448
REMARK  8 active torsions:
REMARK  status: ('A' for Active; 'I' for Inactive)
REMARK    1  A    between atoms: C_1  and  C_2
REMARK    2  A    between atoms: C_4  and  C_26
REMARK    3  A    between atoms: C_6  and  N_8
REMARK    4  A    between atoms: N_8  and  C_9
REMARK    5  A    between atoms: C_9  and  C_10
REMARK    6  A    between atoms: C_10  and  C_11
REMARK    7  A    between atoms: N_13  and  C_14
REMARK    8  A    between atoms: C_16  and  C_22
REMARK                            x       y       z     vdW  Elec       q    Type
REMARK                         _______ _______ _______ _____ _____    ______ ____
ROOT
ATOM      1  C   UNL     1      -0.108  -2.333   6.145  0.00  0.00    +0.219 C 
ATOM      2  O   UNL     1      -0.278  -1.132   6.174  0.00  0.00    -0.275 OA
ATOM      3  N   UNL     1       0.078  -3.015   7.293  0.00  0.00    -0.281 N 
ATOM      4  H   UNL     1       0.141  -3.983   7.277  0.00  0.00    +0.155 HD
ENDROOT
BRANCH   3   5
ATOM      5  C   UNL     1       0.181  -2.326   8.509  0.00  0.00    +0.099 A 
ATOM      6  C   UNL     1      -0.692  -2.588   9.529  0.00  0.00    +0.042 A 
ATOM      7  C   UNL     1      -0.567  -1.885  10.735  0.00  0.00    +0.073 A 
ATOM      8  C   UNL     1       0.408  -0.959  10.881  0.00  0.00    +0.098 A 
ATOM      9  N   UNL     1       1.277  -0.697   9.869  0.00  0.00    -0.327 N 
ATOM     10  H   UNL     1       1.970  -0.029   9.992  0.00  0.00    +0.168 HD
ATOM     11  C   UNL     1       1.190  -1.357   8.698  0.00  0.00    +0.270 A 
ATOM     12  O   UNL     1       1.980  -1.114   7.800  0.00  0.00    -0.266 OA
BRANCH   7  13
ATOM     13  C   UNL     1      -1.520  -2.160  11.870  0.00  0.00    +0.419 C 
ATOM     14  F   UNL     1      -1.197  -1.342  12.959  0.00  0.00    -0.166 F 
ATOM     15  F   UNL     1      -2.828  -1.891  11.456  0.00  0.00    -0.166 F 
ATOM     16  F   UNL     1      -1.417  -3.503  12.249  0.00  0.00    -0.166 F 
ENDBRANCH   7  13
ENDBRANCH   3   5
BRANCH   1  17
ATOM     17  C   UNL     1      -0.106  -3.062   4.827  0.00  0.00    +0.114 C 
BRANCH  17  18
ATOM     18  C   UNL     1      -0.337  -2.063   3.691  0.00  0.00    +0.111 C 
BRANCH  18  19
ATOM     19  N   UNL     1      -0.335  -2.772   2.409  0.00  0.00    -0.343 N 
ATOM     20  H   UNL     1      -0.199  -3.732   2.386  0.00  0.00    +0.146 HD
BRANCH  19  26
ATOM     21  C   UNL     1      -1.125   1.498   0.107  0.00  0.00    +0.044 C 
ATOM     22  C   UNL     1      -0.914   0.006   0.074  0.00  0.00    -0.048 A 
ATOM     23  C   UNL     1      -0.911  -0.665  -1.136  0.00  0.00    +0.006 A 
ATOM     24  C   UNL     1      -0.718  -2.034  -1.171  0.00  0.00    -0.048 A 
ATOM     25  C   UNL     1      -0.527  -2.735   0.003  0.00  0.00    +0.026 A 
ATOM     26  C   UNL     1      -0.528  -2.065   1.220  0.00  0.00    +0.028 A 
ATOM     27  C   UNL     1      -0.718  -0.689   1.251  0.00  0.00    +0.026 A 
ATOM     28  C   UNL     1      -0.717  -2.760  -2.491  0.00  0.00    +0.044 C 
ENDBRANCH  19  26
ENDBRANCH  18  19
ENDBRANCH  17  18
ENDBRANCH   1  17
TORSDOF 6
