REMARK  Name = ZINC13750554
REMARK  12 active torsions:
REMARK  status: ('A' for Active; 'I' for Inactive)
REMARK    1  A    between atoms: C_1  and  C_2
REMARK    2  A    between atoms: C_2  and  C_3
REMARK    3  A    between atoms: C_3  and  C_4
REMARK    4  A    between atoms: C_6  and  C_29
REMARK    5  A    between atoms: C_8  and  C_21
REMARK    6  A    between atoms: C_11  and  C_12
REMARK    7  A    between atoms: C_11  and  O_20
REMARK    8  A    between atoms: C_13  and  C_14
REMARK    9  A    between atoms: C_24  and  O_27
REMARK   10  A    between atoms: O_27  and  C_28
REMARK   11  A    between atoms: C_32  and  O_35
REMARK   12  A    between atoms: O_35  and  C_36
REMARK                            x       y       z     vdW  Elec       q    Type
REMARK                         _______ _______ _______ _____ _____    ______ ____
ROOT
ATOM      1  C   UNL     1      -0.017  -0.001   0.015  0.00  0.00    +0.023 C 
ATOM      2  C   UNL     1      -0.198   1.516   0.118  0.00  0.00    -0.033 C 
ATOM      3  C   UNL     1       1.899   1.901  -1.035  0.00  0.00    -0.036 C 
ATOM      4  C   UNL     1       2.142   0.397  -1.173  0.00  0.00    +0.037 C 
ATOM      5  C   UNL     1       0.795  -0.329  -1.241  0.00  0.00    +0.127 C 
ATOM      6  N   UNL     1       1.123   2.170   0.191  0.00  0.00    +0.388 N 
ATOM      7  H   UNL     1       1.636   1.807   1.002  0.00  0.00    -0.084 HD
ATOM      8  H   UNL     1       0.993   3.183   0.293  0.00  0.00    -0.084 HD
ENDROOT
BRANCH   3   9
ATOM      9  C   UNL     1       3.221   2.618  -0.948  0.00  0.00    -0.061 A 
ATOM     10  C   UNL     1       3.906   2.659   0.253  0.00  0.00    +0.005 A 
ATOM     11  C   UNL     1       5.122   3.310   0.334  0.00  0.00    +0.046 A 
ATOM     12  C   UNL     1       5.650   3.934  -0.787  0.00  0.00    +0.120 A 
ATOM     13  C   UNL     1       4.958   3.896  -1.989  0.00  0.00    +0.046 A 
ATOM     14  C   UNL     1       3.746   3.238  -2.067  0.00  0.00    +0.005 A 
BRANCH  12  15
ATOM     15  O   UNL     1       6.842   4.580  -0.708  0.00  0.00    -0.495 OA
ATOM     16  C   UNL     1       7.498   4.578   0.562  0.00  0.00    +0.277 C 
ENDBRANCH  12  15
ENDBRANCH   3   9
BRANCH   2  17
ATOM     17  C   UNL     1      -0.980   1.845   1.363  0.00  0.00    -0.061 A 
ATOM     18  C   UNL     1      -0.345   1.865   2.591  0.00  0.00    +0.005 A 
ATOM     19  C   UNL     1      -1.058   2.172   3.734  0.00  0.00    +0.046 A 
ATOM     20  C   UNL     1      -2.415   2.448   3.650  0.00  0.00    +0.120 A 
ATOM     21  C   UNL     1      -3.051   2.421   2.417  0.00  0.00    +0.046 A 
ATOM     22  C   UNL     1      -2.332   2.119   1.277  0.00  0.00    +0.005 A 
BRANCH  20  23
ATOM     23  O   UNL     1      -3.120   2.745   4.773  0.00  0.00    -0.495 OA
ATOM     24  C   UNL     1      -2.400   2.755   6.007  0.00  0.00    +0.277 C 
ENDBRANCH  20  23
ENDBRANCH   2  17
BRANCH   5  25
ATOM     25  C   UNL     1       1.022  -1.781  -1.315  0.00  0.00    -0.062 C 
ATOM     26  C   UNL     1       1.203  -2.940  -1.373  0.00  0.00    -0.063 C 
BRANCH  26  27
ATOM     27  C   UNL     1       1.424  -4.353  -1.445  0.00  0.00    +0.025 A 
ATOM     28  C   UNL     1       0.924  -5.191  -0.448  0.00  0.00    +0.017 A 
ATOM     29  C   UNL     1       1.136  -6.553  -0.525  0.00  0.00    +0.001 A 
ATOM     30  C   UNL     1       1.852  -7.085  -1.583  0.00  0.00    +0.000 A 
ATOM     31  C   UNL     1       2.355  -6.259  -2.571  0.00  0.00    +0.001 A 
ATOM     32  C   UNL     1       2.145  -4.896  -2.509  0.00  0.00    +0.017 A 
ENDBRANCH  26  27
ENDBRANCH   5  25
BRANCH   5  33
ATOM     33  O   UNL     1       0.078   0.103  -2.400  0.00  0.00    -0.376 OA
ATOM     34  H   UNL     1       0.535  -0.074  -3.233  0.00  0.00    +0.211 HD
ENDBRANCH   5  33
BRANCH   1  35
ATOM     35  C   UNL     1       0.725  -0.512   1.251  0.00  0.00    +0.006 C 
BRANCH  35  37
ATOM     36  C   UNL     1       1.146  -2.514   2.686  0.00  0.00    +0.004 C 
ATOM     37  C   UNL     1       0.531  -2.025   1.373  0.00  0.00    -0.003 C 
ENDBRANCH  35  37
ENDBRANCH   1  35
TORSDOF 9
