REMARK  Name = ZINC21938007
REMARK  10 active torsions:
REMARK  status: ('A' for Active; 'I' for Inactive)
REMARK    1  A    between atoms: C_1  and  C_2
REMARK    2  A    between atoms: C_2  and  C_7
REMARK    3  A    between atoms: C_7  and  O_9
REMARK    4  A    between atoms: O_9  and  C_10
REMARK    5  A    between atoms: C_10  and  C_11
REMARK    6  A    between atoms: N_13  and  C_14
REMARK    7  A    between atoms: N_13  and  C_15
REMARK    8  A    between atoms: C_16  and  N_31
REMARK    9  A    between atoms: N_17  and  C_24
REMARK   10  A    between atoms: C_24  and  C_25
REMARK                            x       y       z     vdW  Elec       q    Type
REMARK                         _______ _______ _______ _____ _____    ______ ____
ROOT
ATOM      1  C   UNL     1      -1.819   0.450  -6.930  0.00  0.00    +0.139 A 
ATOM      2  C   UNL     1      -1.963   0.045  -8.241  0.00  0.00    +0.128 A 
ATOM      3  N   UNL     1      -2.675   0.835  -9.113  0.00  0.00    -0.276 N 
ATOM      4  C   UNL     1      -3.225   1.988  -8.694  0.00  0.00    +0.331 A 
ATOM      5  O   UNL     1      -3.851   2.672  -9.480  0.00  0.00    -0.246 OA
ATOM      6  N   UNL     1      -3.096   2.399  -7.419  0.00  0.00    -0.273 N 
ATOM      7  H   UNL     1      -3.502   3.235  -7.141  0.00  0.00    +0.173 HD
ATOM      8  C   UNL     1      -2.412   1.660  -6.524  0.00  0.00    +0.277 A 
ATOM      9  O   UNL     1      -2.305   2.040  -5.370  0.00  0.00    -0.266 OA
ENDROOT
BRANCH   1  12
ATOM     10  C   UNL     1       0.235  -0.505  -6.166  0.00  0.00    +0.257 C 
ATOM     11  O   UNL     1       0.794  -0.048  -7.141  0.00  0.00    -0.272 OA
ATOM     12  N   UNL     1      -1.095  -0.338  -6.010  0.00  0.00    -0.265 N 
ATOM     13  C   UNL     1      -1.787  -0.975  -4.887  0.00  0.00    +0.138 C 
BRANCH  10  14
ATOM     14  C   UNL     1       1.026  -1.260  -5.129  0.00  0.00    +0.328 C 
BRANCH  14  15
ATOM     15  O   UNL     1       2.401  -1.302  -5.516  0.00  0.00    -0.455 OA
BRANCH  15  16
ATOM     16  C   UNL     1       3.246  -1.943  -4.694  0.00  0.00    +0.316 C 
ATOM     17  O   UNL     1       2.833  -2.451  -3.678  0.00  0.00    -0.250 OA
BRANCH  16  19
ATOM     18  C   UNL     1       5.035  -2.141  -6.527  0.00  0.00    +0.026 C 
ATOM     19  C   UNL     1       4.712  -2.028  -5.036  0.00  0.00    +0.100 C 
ATOM     20  C   UNL     1       5.689  -1.244  -4.158  0.00  0.00    +0.060 C 
ATOM     21  C   UNL     1       5.624  -2.770  -4.057  0.00  0.00    +0.135 C 
ATOM     22 CL   UNL     1       4.864  -3.474  -2.582  0.00  0.00    -0.100 Cl
ATOM     23 CL   UNL     1       6.998  -3.710  -4.749  0.00  0.00    -0.100 Cl
ENDBRANCH  16  19
ENDBRANCH  15  16
ENDBRANCH  14  15
ENDBRANCH  10  14
ENDBRANCH   1  12
BRANCH   2  24
ATOM     24  N   UNL     1      -1.401  -1.133  -8.670  0.00  0.00    -0.343 N 
ATOM     25  H   UNL     1      -0.847  -1.654  -8.068  0.00  0.00    +0.144 HD
ATOM     26  H   UNL     1      -1.558  -1.444  -9.575  0.00  0.00    +0.144 HD
ENDBRANCH   2  24
BRANCH   3  27
ATOM     27  C   UNL     1      -2.835   0.417 -10.508  0.00  0.00    +0.163 C 
BRANCH  27  28
ATOM     28  C   UNL     1      -4.082  -0.420 -10.642  0.00  0.00    -0.028 A 
ATOM     29  C   UNL     1      -4.015  -1.791 -10.476  0.00  0.00    +0.005 A 
ATOM     30  C   UNL     1      -5.158  -2.558 -10.599  0.00  0.00    +0.000 A 
ATOM     31  C   UNL     1      -6.367  -1.955 -10.887  0.00  0.00    +0.000 A 
ATOM     32  C   UNL     1      -6.434  -0.585 -11.053  0.00  0.00    +0.000 A 
ATOM     33  C   UNL     1      -5.292   0.184 -10.926  0.00  0.00    +0.005 A 
ENDBRANCH  27  28
ENDBRANCH   3  27
TORSDOF 8
