REMARK  Name = ZINC39839260
REMARK  7 active torsions:
REMARK  status: ('A' for Active; 'I' for Inactive)
REMARK    1  A    between atoms: C_1  and  C_2
REMARK    2  A    between atoms: N_15  and  C_28
REMARK    3  A    between atoms: C_16  and  C_18
REMARK    4  A    between atoms: C_20  and  O_26
REMARK    5  A    between atoms: C_21  and  O_25
REMARK    6  A    between atoms: O_26  and  C_27
REMARK    7  A    between atoms: C_28  and  C_29
REMARK                            x       y       z     vdW  Elec       q    Type
REMARK                         _______ _______ _______ _____ _____    ______ ____
ROOT
ATOM      1  C   UNL     1      -0.313   1.126  -0.935  0.00  0.00    +0.044 C 
ATOM      2  C   UNL     1      -0.214  -0.371  -0.795  0.00  0.00    -0.050 A 
ATOM      3  C   UNL     1      -0.116  -1.167  -1.928  0.00  0.00    +0.007 A 
ATOM      4  C   UNL     1      -0.027  -2.536  -1.822  0.00  0.00    +0.047 A 
ATOM      5  C   UNL     1      -0.034  -3.142  -0.566  0.00  0.00    +0.139 A 
ATOM      6  C   UNL     1      -0.127  -2.326   0.574  0.00  0.00    +0.065 A 
ATOM      7  C   UNL     1      -0.215  -0.940   0.448  0.00  0.00    +0.018 A 
ATOM      8  C   UNL     1      -0.119  -2.961   1.916  0.00  0.00    +0.199 A 
ATOM      9  O   UNL     1      -0.363  -2.353   2.943  0.00  0.00    -0.287 OA
ATOM     10  C   UNL     1       0.210  -4.390   1.887  0.00  0.00    +0.072 A 
ATOM     11  C   UNL     1       0.280  -5.073   0.707  0.00  0.00    +0.199 A 
ATOM     12  O   UNL     1       0.047  -4.490  -0.485  0.00  0.00    -0.450 OA
ATOM     13  C   UNL     1       0.636  -6.472   1.003  0.00  0.00    +0.283 C 
ATOM     14  O   UNL     1       0.782  -7.344   0.169  0.00  0.00    -0.267 OA
ATOM     15  N   UNL     1       0.776  -6.643   2.333  0.00  0.00    -0.281 N 
ATOM     16  C   UNL     1       0.517  -5.351   2.989  0.00  0.00    +0.145 C 
ENDROOT
BRANCH  16  17
ATOM     17  C   UNL     1       1.739  -4.899   3.747  0.00  0.00    -0.018 A 
ATOM     18  C   UNL     1       1.604  -4.355   5.011  0.00  0.00    +0.055 A 
ATOM     19  C   UNL     1       2.725  -3.939   5.710  0.00  0.00    +0.163 A 
ATOM     20  C   UNL     1       3.987  -4.070   5.137  0.00  0.00    +0.173 A 
ATOM     21  C   UNL     1       4.116  -4.617   3.870  0.00  0.00    +0.063 A 
ATOM     22  C   UNL     1       2.992  -5.035   3.180  0.00  0.00    +0.025 A 
ATOM     23 BR   UNL     1       5.828  -4.797   3.087  0.00  0.00    -0.046 Br
BRANCH  20  24
ATOM     24  O   UNL     1       5.091  -3.663   5.819  0.00  0.00    -0.503 OA
ATOM     25  H   UNL     1       5.488  -4.350   6.372  0.00  0.00    +0.292 HD
ENDBRANCH  20  24
BRANCH  19  26
ATOM     26  O   UNL     1       2.594  -3.403   6.953  0.00  0.00    -0.491 OA
ATOM     27  C   UNL     1       1.269  -3.299   7.478  0.00  0.00    +0.277 C 
ENDBRANCH  19  26
ENDBRANCH  16  17
BRANCH  15  28
ATOM     28  C   UNL     1       1.124  -7.896   3.008  0.00  0.00    +0.140 C 
BRANCH  28  29
ATOM     29  C   UNL     1      -0.154  -8.602   3.463  0.00  0.00    +0.136 C 
ATOM     30  C   UNL     1       0.205  -9.879   4.253  0.00  0.00    +0.035 C 
ATOM     31  C   UNL     1      -0.873 -10.884   3.764  0.00  0.00    +0.031 C 
ATOM     32  C   UNL     1      -1.050 -10.432   2.293  0.00  0.00    +0.160 C 
ATOM     33  O   UNL     1      -0.923  -9.000   2.322  0.00  0.00    -0.375 OA
ENDBRANCH  28  29
ENDBRANCH  15  28
TORSDOF 5
