REMARK  Name = ZINC27467214
REMARK  7 active torsions:
REMARK  status: ('A' for Active; 'I' for Inactive)
REMARK    1  A    between atoms: C_1  and  C_2
REMARK    2  A    between atoms: C_4  and  N_25
REMARK    3  A    between atoms: C_7  and  N_8
REMARK    4  A    between atoms: C_9  and  C_11
REMARK    5  A    between atoms: C_11  and  C_13
REMARK    6  A    between atoms: C_11  and  S_14
REMARK    7  A    between atoms: S_14  and  C_15
REMARK                            x       y       z     vdW  Elec       q    Type
REMARK                         _______ _______ _______ _____ _____    ______ ____
ROOT
ATOM      1  N   UNL     1      -2.404  -0.171   1.767  0.00  0.00    -0.284 N 
ATOM      2  C   UNL     1      -2.143   1.059   1.280  0.00  0.00    +0.230 C 
ATOM      3  O   UNL     1      -3.044   1.742   0.843  0.00  0.00    -0.274 OA
ATOM      4  H   UNL     1      -1.577  -0.826   2.079  0.00  0.00    +0.155 HD
ENDROOT
BRANCH   1  11
ATOM      5  C   UNL     1      -2.888  -2.974   1.731  0.00  0.00    +0.046 C 
ATOM      6  C   UNL     1      -4.008  -1.974   1.860  0.00  0.00    -0.027 A 
ATOM      7  C   UNL     1      -5.314  -2.409   1.971  0.00  0.00    +0.038 A 
ATOM      8  C   UNL     1      -6.343  -1.491   2.084  0.00  0.00    +0.127 A 
ATOM      9  C   UNL     1      -6.066  -0.136   2.092  0.00  0.00    +0.034 A 
ATOM     10  C   UNL     1      -4.762   0.305   1.988  0.00  0.00    +0.026 A 
ATOM     11  C   UNL     1      -3.727  -0.614   1.874  0.00  0.00    +0.036 A 
BRANCH   8  12
ATOM     12  N   UNL     1      -7.742  -1.960   2.196  0.00  0.00    +0.056 N 
ATOM     13  O   UNL     1      -8.649  -1.153   2.296  0.00  0.00    -0.126 OA
ATOM     14  O   UNL     1      -7.987  -3.154   2.189  0.00  0.00    -0.126 OA
ENDBRANCH   8  12
ENDBRANCH   1  11
BRANCH   2  15
ATOM     15  C   UNL     1      -0.731   1.585   1.281  0.00  0.00    +0.136 C 
ATOM     16  C   UNL     1      -0.004   1.095   0.027  0.00  0.00    +0.029 C 
BRANCH  15  17
ATOM     17  S   UNL     1      -0.761   3.394   1.292  0.00  0.00    -0.087 S 
BRANCH  17  18
ATOM     18  C   UNL     1       0.963   3.728   1.442  0.00  0.00    +0.132 C 
ATOM     19  N   UNL     1       1.806   2.737   1.506  0.00  0.00    -0.234 NA
ATOM     20  C   UNL     1       3.158   2.870   1.611  0.00  0.00    +0.070 A 
ATOM     21  C   UNL     1       3.961   1.804   1.178  0.00  0.00    +0.028 A 
ATOM     22  C   UNL     1       5.332   1.887   1.269  0.00  0.00    +0.002 A 
ATOM     23  C   UNL     1       5.927   3.025   1.787  0.00  0.00    +0.000 A 
ATOM     24  C   UNL     1       5.144   4.081   2.213  0.00  0.00    +0.006 A 
ATOM     25  C   UNL     1       3.766   4.011   2.126  0.00  0.00    -0.012 A 
ATOM     26  C   UNL     1       2.950   5.189   2.596  0.00  0.00    +0.113 C 
ATOM     27  S   UNL     1       1.523   5.398   1.495  0.00  0.00    -0.094 S 
ENDBRANCH  17  18
ENDBRANCH  15  17
ENDBRANCH   2  15
TORSDOF 5
