REMARK  Name = ZINC15076727
REMARK  9 active torsions:
REMARK  status: ('A' for Active; 'I' for Inactive)
REMARK    1  A    between atoms: C_1  and  C_2
REMARK    2  A    between atoms: C_3  and  C_7
REMARK    3  A    between atoms: N_9  and  C_10
REMARK    4  A    between atoms: C_13  and  C_25
REMARK    5  A    between atoms: C_13  and  C_26
REMARK    6  A    between atoms: C_19  and  C_21
REMARK    7  A    between atoms: C_21  and  C_22
REMARK    8  A    between atoms: C_21  and  C_23
REMARK    9  A    between atoms: C_21  and  C_24
REMARK                            x       y       z     vdW  Elec       q    Type
REMARK                         _______ _______ _______ _____ _____    ______ ____
ROOT
ATOM      1  C   UNL     1      -2.500   0.972   0.044  0.00  0.00    +0.107 C 
ATOM      2  C   UNL     1      -3.678   1.854  -0.371  0.00  0.00    +0.034 C 
ATOM      3  C   UNL     1      -3.645   3.136   0.470  0.00  0.00    -0.027 C 
ATOM      4  C   UNL     1      -2.446   3.974   0.030  0.00  0.00    +0.062 C 
ATOM      5  C   UNL     1      -1.194   3.140   0.025  0.00  0.00    +0.050 A 
ATOM      6  C   UNL     1      -1.221   1.762   0.017  0.00  0.00    +0.012 A 
ATOM      7  C   UNL     1      -0.013   1.076   0.008  0.00  0.00    +0.120 A 
ATOM      8  N   UNL     1       1.119   1.760   0.001  0.00  0.00    -0.239 NA
ATOM      9  C   UNL     1       1.108   3.077   0.008  0.00  0.00    +0.135 A 
ATOM     10  N   UNL     1      -0.019   3.759   0.019  0.00  0.00    -0.236 NA
ATOM     11  C   UNL     1      -3.505   2.776   1.950  0.00  0.00    +0.011 C 
ATOM     12  C   UNL     1      -4.935   3.930   0.254  0.00  0.00    +0.011 C 
ENDROOT
BRANCH   1  15
ATOM     13  C   UNL     1      -1.802  -1.301  -0.487  0.00  0.00    +0.282 C 
ATOM     14  O   UNL     1      -1.365  -1.399   0.644  0.00  0.00    -0.267 OA
ATOM     15  N   UNL     1      -2.389  -0.155  -0.885  0.00  0.00    -0.302 N 
ATOM     16  H   UNL     1      -2.737  -0.076  -1.787  0.00  0.00    +0.150 HD
BRANCH  13  19
ATOM     17  C   UNL     1      -0.488  -4.074   0.137  0.00  0.00    +0.070 C 
ATOM     18  C   UNL     1      -1.122  -3.642  -1.161  0.00  0.00    +0.089 A 
ATOM     19  C   UNL     1      -1.690  -2.430  -1.417  0.00  0.00    +0.212 A 
ATOM     20  O   UNL     1      -2.126  -2.467  -2.698  0.00  0.00    -0.438 OA
ATOM     21  C   UNL     1      -1.831  -3.674  -3.192  0.00  0.00    +0.309 A 
ATOM     22  N   UNL     1      -1.232  -4.380  -2.271  0.00  0.00    -0.221 NA
ENDBRANCH  13  19
ENDBRANCH   1  15
BRANCH   9  23
ATOM     23  C   UNL     1       2.417   3.823   0.003  0.00  0.00    +0.022 C 
ATOM     24  C   UNL     1       3.574   2.822  -0.009  0.00  0.00    +0.019 C 
ATOM     25  C   UNL     1       2.495   4.709  -1.242  0.00  0.00    +0.019 C 
ATOM     26  C   UNL     1       2.511   4.696   1.256  0.00  0.00    +0.019 C 
ENDBRANCH   9  23
TORSDOF 3
