REMARK  Name = ZINC39502557
REMARK  11 active torsions:
REMARK  status: ('A' for Active; 'I' for Inactive)
REMARK    1  A    between atoms: C_1  and  C_2
REMARK    2  A    between atoms: C_2  and  O_3
REMARK    3  A    between atoms: O_3  and  C_4
REMARK    4  A    between atoms: C_8  and  C_10
REMARK    5  A    between atoms: C_14  and  O_31
REMARK    6  A    between atoms: C_18  and  C_25
REMARK    7  A    between atoms: C_19  and  C_20
REMARK    8  A    between atoms: C_20  and  O_22
REMARK    9  A    between atoms: O_22  and  C_23
REMARK   10  A    between atoms: C_23  and  C_24
REMARK   11  A    between atoms: C_25  and  N_26
REMARK                            x       y       z     vdW  Elec       q    Type
REMARK                         _______ _______ _______ _____ _____    ______ ____
ROOT
ATOM      1  C   UNL     1       2.259  -4.303   3.728  0.00  0.00    +0.004 A 
ATOM      2  C   UNL     1       1.732  -4.125   5.027  0.00  0.00    -0.008 A 
ATOM      3  C   UNL     1       0.543  -3.407   5.231  0.00  0.00    +0.028 A 
ATOM      4  C   UNL     1       0.054  -3.248   6.492  0.00  0.00    +0.060 A 
ATOM      5  C   UNL     1       0.722  -3.792   7.594  0.00  0.00    +0.131 A 
ATOM      6  C   UNL     1       1.890  -4.502   7.427  0.00  0.00    +0.055 A 
ATOM      7  C   UNL     1       2.415  -4.680   6.137  0.00  0.00    -0.013 A 
ATOM      8  C   UNL     1       3.608  -5.402   5.935  0.00  0.00    +0.015 A 
ATOM      9  C   UNL     1       4.105  -5.567   4.684  0.00  0.00    -0.011 A 
ATOM     10  C   UNL     1       3.443  -5.030   3.566  0.00  0.00    +0.072 A 
ATOM     11 BR   UNL     1      -1.548  -2.279   6.756  0.00  0.00    -0.047 Br
ENDROOT
BRANCH   1  16
ATOM     12  C   UNL     1       0.802  -1.824   1.306  0.00  0.00    +0.121 A 
ATOM     13  C   UNL     1       0.259  -2.672   0.349  0.00  0.00    +0.045 A 
ATOM     14  C   UNL     1       0.367  -4.043   0.492  0.00  0.00    +0.004 A 
ATOM     15  C   UNL     1       1.015  -4.578   1.587  0.00  0.00    +0.009 A 
ATOM     16  C   UNL     1       1.564  -3.734   2.553  0.00  0.00    -0.013 A 
ATOM     17  C   UNL     1       1.459  -2.350   2.405  0.00  0.00    +0.054 A 
BRANCH  12  18
ATOM     18  O   UNL     1       0.693  -0.477   1.160  0.00  0.00    -0.492 OA
BRANCH  18  20
ATOM     19  C   UNL     1      -0.019   1.526   0.010  0.00  0.00    +0.048 C 
ATOM     20  C   UNL     1       0.002  -0.004   0.002  0.00  0.00    +0.225 C 
ENDBRANCH  18  20
ENDBRANCH  12  18
ENDBRANCH   1  16
BRANCH  10  21
ATOM     21  C   UNL     1       4.002  -5.230   2.218  0.00  0.00    +0.340 C 
ATOM     22  O   UNL     1       4.791  -4.425   1.762  0.00  0.00    -0.245 OA
BRANCH  21  23
ATOM     23  O   UNL     1       3.639  -6.304   1.490  0.00  0.00    -0.461 OA
BRANCH  23  24
ATOM     24  C   UNL     1       4.220  -6.434   0.191  0.00  0.00    +0.229 C 
ATOM     25  C   UNL     1       3.692  -7.705  -0.479  0.00  0.00    +0.048 C 
ENDBRANCH  23  24
ENDBRANCH  21  23
ENDBRANCH  10  21
BRANCH   5  26
ATOM     26  O   UNL     1       0.213  -3.619   8.841  0.00  0.00    -0.506 OA
ATOM     27  H   UNL     1      -0.400  -4.314   9.116  0.00  0.00    +0.292 HD
ENDBRANCH   5  26
BRANCH   9  28
ATOM     28  C   UNL     1       5.383  -6.341   4.489  0.00  0.00    +0.181 C 
BRANCH  28  29
ATOM     29  N   UNL     1       6.515  -5.412   4.442  0.00  0.00    -0.248 N 
ATOM     30  C   UNL     1       7.619  -5.447   5.209  0.00  0.00    +0.219 A 
ATOM     31  N   UNL     1       8.388  -4.448   4.859  0.00  0.00    -0.223 NA
ATOM     32  C   UNL     1       7.812  -3.757   3.877  0.00  0.00    +0.245 A 
ATOM     33  N   UNL     1       6.665  -4.311   3.583  0.00  0.00    -0.158 NA
ENDBRANCH  28  29
ENDBRANCH   9  28
TORSDOF 9
