REMARK  Name = ZINC02336445
REMARK  8 active torsions:
REMARK  status: ('A' for Active; 'I' for Inactive)
REMARK    1  A    between atoms: C_1  and  C_2
REMARK    2  A    between atoms: C_9  and  O_28
REMARK    3  A    between atoms: C_10  and  C_13
REMARK    4  A    between atoms: C_14  and  C_15
REMARK    5  A    between atoms: C_14  and  C_17
REMARK    6  A    between atoms: N_19  and  C_20
REMARK    7  A    between atoms: O_28  and  C_29
REMARK    8  A    between atoms: C_33  and  C_35
REMARK                            x       y       z     vdW  Elec       q    Type
REMARK                         _______ _______ _______ _____ _____    ______ ____
ROOT
ATOM      1  C   UNL     1      -2.564   5.057  -0.914  0.00  0.00    +0.047 C 
ATOM      2  C   UNL     1      -1.427   4.069  -0.879  0.00  0.00    -0.007 A 
ATOM      3  C   UNL     1      -1.668   2.738  -1.061  0.00  0.00    +0.008 A 
ATOM      4  C   UNL     1      -0.601   1.831  -1.020  0.00  0.00    +0.019 A 
ATOM      5  C   UNL     1       0.659   2.276  -0.811  0.00  0.00    +0.096 A 
ATOM      6  N   UNL     1       0.910   3.604  -0.633  0.00  0.00    -0.267 N 
ATOM      7  C   UNL     1      -0.111   4.512  -0.663  0.00  0.00    +0.147 A 
ATOM      8  N   UNL     1       0.115   5.816  -0.490  0.00  0.00    -0.194 NA
ATOM      9  C   UNL     1       1.331   6.291  -0.283  0.00  0.00    +0.235 A 
ATOM     10  C   UNL     1       2.430   5.399  -0.242  0.00  0.00    +0.103 A 
ATOM     11  C   UNL     1       2.180   4.014  -0.426  0.00  0.00    +0.269 A 
ATOM     12  O   UNL     1       3.095   3.209  -0.399  0.00  0.00    -0.266 OA
ENDROOT
BRANCH  10  13
ATOM     13  C   UNL     1       3.736   5.873  -0.024  0.00  0.00    +0.042 C 
ATOM     14  C   UNL     1       4.021   6.625   1.107  0.00  0.00    +0.114 C 
BRANCH  14  15
ATOM     15  C   UNL     1       5.345   7.236   1.268  0.00  0.00    +0.255 C 
ATOM     16  O   UNL     1       6.194   7.083   0.408  0.00  0.00    -0.269 OA
ATOM     17  N   UNL     1       5.622   7.966   2.366  0.00  0.00    -0.306 N 
ATOM     18  H   UNL     1       4.946   8.088   3.051  0.00  0.00    +0.149 HD
BRANCH  17  19
ATOM     19  C   UNL     1       6.945   8.576   2.526  0.00  0.00    +0.096 C 
ATOM     20  C   UNL     1       7.907   7.566   3.174  0.00  0.00    +0.046 C 
ATOM     21  C   UNL     1       9.195   8.288   3.638  0.00  0.00    +0.168 C 
ATOM     22  S   UNL     1       8.602   9.996   3.975  0.00  0.00    -0.029 S 
ATOM     23  O   UNL     1       9.253  10.896   3.088  0.00  0.00    -0.174 OA
ATOM     24  O   UNL     1       8.652  10.236   5.375  0.00  0.00    -0.174 OA
ATOM     25  C   UNL     1       6.842   9.815   3.461  0.00  0.00    +0.188 C 
ENDBRANCH  17  19
ENDBRANCH  14  15
BRANCH  14  26
ATOM     26  C   UNL     1       3.023   6.805   2.118  0.00  0.00    +0.104 C 
ATOM     27  N   UNL     1       2.231   6.947   2.920  0.00  0.00    -0.191 NA
ENDBRANCH  14  26
ENDBRANCH  10  13
BRANCH   9  28
ATOM     28  O   UNL     1       1.524   7.617  -0.112  0.00  0.00    -0.437 OA
BRANCH  28  29
ATOM     29  C   UNL     1       0.456   8.443  -0.270  0.00  0.00    +0.131 A 
ATOM     30  C   UNL     1       0.322   9.191  -1.431  0.00  0.00    +0.048 A 
ATOM     31  C   UNL     1      -0.767  10.025  -1.592  0.00  0.00    +0.024 A 
ATOM     32  C   UNL     1      -1.718  10.124  -0.592  0.00  0.00    +0.044 A 
ATOM     33  C   UNL     1      -1.584   9.384   0.569  0.00  0.00    -0.029 A 
ATOM     34  C   UNL     1      -0.499   8.544   0.732  0.00  0.00    +0.051 A 
ATOM     35  C   UNL     1      -2.621   9.493   1.657  0.00  0.00    +0.045 C 
ATOM     36 CL   UNL     1      -3.082  11.179  -0.794  0.00  0.00    -0.083 Cl
ENDBRANCH  28  29
ENDBRANCH   9  28
TORSDOF 6
