REMARK  Name = ZINC52595344
REMARK  4 active torsions:
REMARK  status: ('A' for Active; 'I' for Inactive)
REMARK    1  A    between atoms: C_3  and  N_24
REMARK    2  A    between atoms: N_7  and  C_8
REMARK    3  A    between atoms: C_14  and  C_17
REMARK    4  A    between atoms: C_17  and  C_18
REMARK                            x       y       z     vdW  Elec       q    Type
REMARK                         _______ _______ _______ _____ _____    ______ ____
ROOT
ATOM      1  C   UNL     1       4.231  -1.407   2.183  0.00  0.00    +0.033 A 
ATOM      2  C   UNL     1       3.367  -2.494   2.014  0.00  0.00    +0.025 A 
ATOM      3  C   UNL     1       3.577  -3.679   2.648  0.00  0.00    +0.028 A 
ATOM      4  C   UNL     1       4.737  -3.848   3.541  0.00  0.00    +0.043 A 
ATOM      5  N   UNL     1       5.134  -4.872   4.243  0.00  0.00    -0.380 N 
ATOM      6  C   UNL     1       6.357  -4.526   4.971  0.00  0.00    +0.144 C 
ATOM      7  C   UNL     1       6.671  -3.091   4.606  0.00  0.00    -0.043 C 
ATOM      8  C   UNL     1       5.660  -2.703   3.729  0.00  0.00    +0.001 A 
ATOM      9  C   UNL     1       5.409  -1.511   3.054  0.00  0.00    +0.033 A 
ATOM     10  H   UNL     1       4.687  -5.732   4.278  0.00  0.00    +0.160 HD
ENDROOT
BRANCH   1  17
ATOM     11  C   UNL     1       0.103   1.040   1.083  0.00  0.00    +0.022 A 
ATOM     12  C   UNL     1       1.110   1.752   0.444  0.00  0.00    +0.038 A 
ATOM     13  C   UNL     1       2.417   1.323   0.591  0.00  0.00    +0.166 A 
ATOM     14  C   UNL     1       2.677   0.199   1.372  0.00  0.00    +0.153 A 
ATOM     15  N   UNL     1       1.688  -0.454   1.966  0.00  0.00    -0.238 NA
ATOM     16  C   UNL     1       0.433  -0.067   1.843  0.00  0.00    +0.113 A 
ATOM     17  N   UNL     1       3.981  -0.242   1.528  0.00  0.00    -0.298 N 
ATOM     18  H   UNL     1       4.716   0.281   1.171  0.00  0.00    +0.154 HD
BRANCH  13  19
ATOM     19  N   UNL     1       3.524   2.050  -0.072  0.00  0.00    +0.060 N 
ATOM     20  O   UNL     1       3.494   3.364  -0.153  0.00  0.00    -0.126 OA
ATOM     21  O   UNL     1       4.538   1.381  -0.581  0.00  0.00    -0.126 OA
ENDBRANCH  13  19
ENDBRANCH   1  17
BRANCH   7  22
ATOM     22  C   UNL     1       7.831  -2.259   5.090  0.00  0.00    +0.017 C 
BRANCH  22  23
ATOM     23  C   UNL     1       7.475  -1.619   6.433  0.00  0.00    -0.068 C 
ATOM     24  C   UNL     1       8.672  -0.799   6.974  0.00  0.00    -0.017 C 
ATOM     25  C   UNL     1       7.961   0.215   7.908  0.00  0.00    -0.021 C 
ATOM     26  C   UNL     1       6.641   0.507   7.163  0.00  0.00    -0.082 C 
ATOM     27  N   UNL     1       6.386  -0.634   6.262  0.00  0.00    +0.381 N 
ATOM     28  H   UNL     1       6.366  -0.313   5.306  0.00  0.00    -0.086 HD
ATOM     29  H   UNL     1       5.502  -1.061   6.494  0.00  0.00    -0.086 HD
ENDBRANCH  22  23
ENDBRANCH   7  22
TORSDOF 4
