REMARK  Name = ZINC20503169
REMARK  3 active torsions:
REMARK  status: ('A' for Active; 'I' for Inactive)
REMARK    1  A    between atoms: C_6  and  C_11
REMARK    2  A    between atoms: N_25  and  C_27
REMARK    3  A    between atoms: C_27  and  C_28
REMARK                            x       y       z     vdW  Elec       q    Type
REMARK                         _______ _______ _______ _____ _____    ______ ____
ROOT
ATOM      1  C   UNL     1      -2.347   5.704   4.513  0.00  0.00    +0.047 A 
ATOM      2  C   UNL     1      -1.751   4.486   4.804  0.00  0.00    +0.015 A 
ATOM      3  C   UNL     1      -0.386   4.333   4.556  0.00  0.00    +0.022 A 
ATOM      4  C   UNL     1       0.348   5.361   4.052  0.00  0.00    +0.026 A 
ATOM      5  N   UNL     1      -0.207   6.579   3.849  0.00  0.00    -0.311 N 
ATOM      6  C   UNL     1      -1.544   6.748   4.004  0.00  0.00    +0.259 A 
ATOM      7  O   UNL     1      -2.057   7.812   3.700  0.00  0.00    -0.267 OA
ATOM      8  C   UNL     1       0.570   7.762   3.478  0.00  0.00    +0.130 C 
ATOM      9  C   UNL     1       1.922   7.404   2.883  0.00  0.00    +0.024 C 
ATOM     10  C   UNL     1       2.605   6.357   3.768  0.00  0.00    +0.017 C 
ATOM     11  C   UNL     1       1.784   5.066   3.675  0.00  0.00    +0.050 C 
ATOM     12  C   UNL     1       1.791   4.600   2.210  0.00  0.00    +0.094 C 
ATOM     13  N   UNL     1       1.093   5.615   1.406  0.00  0.00    -0.297 NA
ATOM     14  C   UNL     1       1.795   6.902   1.453  0.00  0.00    +0.090 C 
ENDROOT
BRANCH   1  20
ATOM     15  C   UNL     1      -8.409   6.442   6.571  0.00  0.00    +0.001 A 
ATOM     16  C   UNL     1      -7.582   6.210   7.668  0.00  0.00    +0.001 A 
ATOM     17  C   UNL     1      -6.244   6.019   7.508  0.00  0.00    +0.008 A 
ATOM     18  C   UNL     1      -5.685   6.055   6.217  0.00  0.00    -0.017 A 
ATOM     19  C   UNL     1      -4.310   5.863   6.016  0.00  0.00    +0.017 A 
ATOM     20  C   UNL     1      -3.797   5.906   4.732  0.00  0.00    -0.012 A 
ATOM     21  C   UNL     1      -4.641   6.146   3.634  0.00  0.00    +0.009 A 
ATOM     22  C   UNL     1      -5.975   6.329   3.808  0.00  0.00    +0.009 A 
ATOM     23  C   UNL     1      -6.527   6.291   5.101  0.00  0.00    -0.018 A 
ATOM     24  C   UNL     1      -7.904   6.483   5.308  0.00  0.00    +0.008 A 
ENDBRANCH   1  20
BRANCH  13  25
ATOM     25  C   UNL     1       0.918   5.160   0.021  0.00  0.00    +0.126 C 
BRANCH  25  26
ATOM     26  C   UNL     1       0.421   3.738   0.017  0.00  0.00    +0.004 A 
ATOM     27  C   UNL     1      -0.855   3.279   0.027  0.00  0.00    +0.012 A 
ATOM     28  C   UNL     1      -1.077   1.915   0.017  0.00  0.00    +0.008 A 
ATOM     29  C   UNL     1      -0.013   1.076   0.008  0.00  0.00    +0.045 A 
ATOM     30  S   UNL     1       1.359   2.219   0.001  0.00  0.00    -0.100 S 
ENDBRANCH  25  26
ENDBRANCH  13  25
TORSDOF 3
