REMARK  Name = ZINC45699160
REMARK  8 active torsions:
REMARK  status: ('A' for Active; 'I' for Inactive)
REMARK    1  A    between atoms: C_1  and  C_2
REMARK    2  A    between atoms: C_3  and  C_22
REMARK    3  A    between atoms: C_5  and  S_7
REMARK    4  A    between atoms: S_7  and  C_8
REMARK    5  A    between atoms: C_8  and  C_10
REMARK    6  A    between atoms: C_8  and  C_11
REMARK    7  A    between atoms: N_13  and  C_14
REMARK    8  A    between atoms: C_22  and  C_23
REMARK                            x       y       z     vdW  Elec       q    Type
REMARK                         _______ _______ _______ _____ _____    ______ ____
ROOT
ATOM      1  C   UNL     1       0.057  -2.039   3.928  0.00  0.00    +0.136 C 
ATOM      2  C   UNL     1       1.359  -1.236   3.968  0.00  0.00    +0.029 C 
ENDROOT
BRANCH   1   3
ATOM      3  C   UNL     1      -0.057  -2.875   5.177  0.00  0.00    +0.230 C 
ATOM      4  O   UNL     1       0.316  -4.029   5.170  0.00  0.00    -0.274 OA
ATOM      5  N   UNL     1      -0.573  -2.340   6.301  0.00  0.00    -0.284 N 
ATOM      6  H   UNL     1      -0.809  -1.399   6.327  0.00  0.00    +0.155 HD
BRANCH   5   7
ATOM      7  C   UNL     1      -0.768  -3.142   7.432  0.00  0.00    +0.036 A 
ATOM      8  C   UNL     1      -1.861  -2.921   8.260  0.00  0.00    +0.026 A 
ATOM      9  C   UNL     1      -2.053  -3.713   9.376  0.00  0.00    +0.043 A 
ATOM     10  C   UNL     1      -1.157  -4.726   9.670  0.00  0.00    +0.159 A 
ATOM     11  C   UNL     1      -0.065  -4.949   8.845  0.00  0.00    +0.160 A 
ATOM     12  C   UNL     1       0.127  -4.162   7.724  0.00  0.00    +0.064 A 
ATOM     13  F   UNL     1       0.809  -5.938   9.134  0.00  0.00    -0.202 F 
ATOM     14  F   UNL     1      -1.347  -5.498  10.762  0.00  0.00    -0.202 F 
ENDBRANCH   5   7
ENDBRANCH   1   3
BRANCH   1  15
ATOM     15  S   UNL     1       0.060  -3.123   2.473  0.00  0.00    -0.086 S 
BRANCH  15  20
ATOM     16  C   UNL     1       0.018   1.516   0.022  0.00  0.00    +0.066 C 
ATOM     17  C   UNL     1       0.029   0.009   0.009  0.00  0.00    +0.050 A 
ATOM     18  C   UNL     1       0.030  -0.688  -1.152  0.00  0.00    +0.022 A 
ATOM     19  S   UNL     1       0.044  -2.364  -0.534  0.00  0.00    -0.065 S 
ATOM     20  C   UNL     1       0.047  -2.006   1.110  0.00  0.00    +0.136 A 
ATOM     21  N   UNL     1       0.043  -0.690   1.131  0.00  0.00    -0.238 NA
BRANCH  18  22
ATOM     22  C   UNL     1       0.021  -0.188  -2.573  0.00  0.00    +0.139 C 
BRANCH  22  23
ATOM     23  C   UNL     1       1.439  -0.011  -3.052  0.00  0.00    +0.215 C 
ATOM     24  O   UNL     1       2.365  -0.266  -2.312  0.00  0.00    -0.276 OA
ATOM     25  N   UNL     1       1.677   0.431  -4.303  0.00  0.00    -0.329 N 
ATOM     26  H   UNL     1       0.936   0.634  -4.895  0.00  0.00    +0.145 HD
ATOM     27  H   UNL     1       2.590   0.545  -4.611  0.00  0.00    +0.145 HD
ENDBRANCH  22  23
ENDBRANCH  18  22
ENDBRANCH  15  20
ENDBRANCH   1  15
TORSDOF 6
