REMARK  Name = ZINC14456047
REMARK  7 active torsions:
REMARK  status: ('A' for Active; 'I' for Inactive)
REMARK    1  A    between atoms: C_1  and  C_2
REMARK    2  A    between atoms: C_6  and  C_7
REMARK    3  A    between atoms: C_18  and  O_23
REMARK    4  A    between atoms: O_23  and  C_24
REMARK    5  A    between atoms: C_24  and  C_25
REMARK    6  A    between atoms: C_25  and  O_26
REMARK    7  A    between atoms: O_26  and  C_27
REMARK                            x       y       z     vdW  Elec       q    Type
REMARK                         _______ _______ _______ _____ _____    ______ ____
ROOT
ATOM      1  C   UNL     1      -0.018   1.503   0.010  0.00  0.00    +0.112 C 
ATOM      2  C   UNL     1      -0.666   2.026  -1.260  0.00  0.00    +0.029 C 
ATOM      3  C   UNL     1      -2.171   1.778  -1.431  0.00  0.00    +0.033 C 
ATOM      4  C   UNL     1      -2.585   2.977  -2.286  0.00  0.00    -0.030 C 
ATOM      5  C   UNL     1      -1.744   3.986  -2.091  0.00  0.00    -0.023 C 
ATOM      6  C   UNL     1      -0.733   3.572  -1.085  0.00  0.00    +0.049 C 
ATOM      7  C   UNL     1       0.652   4.093  -1.108  0.00  0.00    -0.016 A 
ATOM      8  C   UNL     1       0.971   5.319  -1.650  0.00  0.00    +0.051 A 
ATOM      9  C   UNL     1       2.282   5.772  -1.631  0.00  0.00    +0.121 A 
ATOM     10  C   UNL     1       3.275   4.987  -1.063  0.00  0.00    +0.047 A 
ATOM     11  C   UNL     1       2.962   3.756  -0.524  0.00  0.00    +0.027 A 
ATOM     12  C   UNL     1       1.652   3.293  -0.544  0.00  0.00    +0.032 A 
ATOM     13  N   UNL     1       1.363   2.033   0.000  0.00  0.00    -0.336 N 
ATOM     14  H   UNL     1       2.081   1.500   0.376  0.00  0.00    +0.147 HD
ENDROOT
BRANCH   1  20
ATOM     15  C   UNL     1      -1.719  -0.364   1.760  0.00  0.00    +0.044 C 
ATOM     16  C   UNL     1      -0.724  -0.872   0.749  0.00  0.00    -0.038 A 
ATOM     17  C   UNL     1      -0.537  -2.229   0.569  0.00  0.00    +0.011 A 
ATOM     18  C   UNL     1       0.366  -2.653  -0.349  0.00  0.00    +0.046 A 
ATOM     19  S   UNL     1       0.983  -1.110  -1.000  0.00  0.00    -0.099 S 
ATOM     20  C   UNL     1       0.002  -0.004   0.002  0.00  0.00    +0.013 A 
ENDBRANCH   1  20
BRANCH   9  21
ATOM     21  O   UNL     1       2.592   6.983  -2.166  0.00  0.00    -0.489 OA
BRANCH  21  22
ATOM     22  C   UNL     1       3.963   7.385  -2.110  0.00  0.00    +0.270 C 
BRANCH  22  23
ATOM     23  C   UNL     1       4.117   8.763  -2.756  0.00  0.00    +0.270 C 
BRANCH  23  24
ATOM     24  O   UNL     1       3.406   9.733  -1.983  0.00  0.00    -0.489 OA
BRANCH  24  25
ATOM     25  C   UNL     1       3.442  11.018  -2.424  0.00  0.00    +0.121 A 
ATOM     26  C   UNL     1       4.150  11.340  -3.572  0.00  0.00    +0.045 A 
ATOM     27  C   UNL     1       4.180  12.646  -4.021  0.00  0.00    +0.004 A 
ATOM     28  C   UNL     1       3.514  13.635  -3.320  0.00  0.00    +0.000 A 
ATOM     29  C   UNL     1       2.812  13.317  -2.171  0.00  0.00    +0.004 A 
ATOM     30  C   UNL     1       2.774  12.012  -1.722  0.00  0.00    +0.045 A 
ENDBRANCH  24  25
ENDBRANCH  23  24
ENDBRANCH  22  23
ENDBRANCH  21  22
ENDBRANCH   9  21
TORSDOF 6
