REMARK  Name = ZINC09123932
REMARK  4 active torsions:
REMARK  status: ('A' for Active; 'I' for Inactive)
REMARK    1  A    between atoms: C_5  and  C_7
REMARK    2  A    between atoms: C_7  and  C_9
REMARK    3  A    between atoms: C_11  and  C_29
REMARK    4  A    between atoms: C_32  and  N_35
REMARK                            x       y       z     vdW  Elec       q    Type
REMARK                         _______ _______ _______ _____ _____    ______ ____
ROOT
ATOM      1  C   UNL     1       3.097   0.769  -1.350  0.00  0.00    +0.070 C 
ATOM      2  C   UNL     1       4.272   1.500  -0.665  0.00  0.00    +0.016 C 
ATOM      3  C   UNL     1       3.977   1.420   0.837  0.00  0.00    -0.047 C 
ATOM      4  C   UNL     1       5.201   0.905   1.611  0.00  0.00    +0.052 C 
ATOM      5  S   UNL     1       4.515  -0.593   2.439  0.00  0.00    -0.181 S 
ATOM      6  C   UNL     1       3.025  -0.790   1.368  0.00  0.00    -0.005 C 
ATOM      7  C   UNL     1       2.027   0.670  -0.257  0.00  0.00    +0.052 C 
ATOM      8  C   UNL     1       1.169  -0.551  -0.437  0.00  0.00    -0.024 A 
ATOM      9  C   UNL     1       1.440  -1.901  -0.474  0.00  0.00    +0.043 A 
ATOM     10  C   UNL     1       0.410  -2.808  -0.663  0.00  0.00    +0.124 A 
ATOM     11  C   UNL     1      -0.889  -2.354  -0.815  0.00  0.00    +0.040 A 
ATOM     12  C   UNL     1      -1.162  -1.003  -0.777  0.00  0.00    +0.026 A 
ATOM     13  C   UNL     1      -0.133  -0.084  -0.587  0.00  0.00    +0.036 A 
ATOM     14  N   UNL     1      -0.157   1.312  -0.514  0.00  0.00    -0.286 N 
ATOM     15  C   UNL     1       1.071   1.831  -0.322  0.00  0.00    +0.212 C 
ATOM     16  O   UNL     1       1.352   3.007  -0.220  0.00  0.00    -0.277 OA
ATOM     17  F   UNL     1       0.673  -4.133  -0.699  0.00  0.00    -0.205 F 
ATOM     18  H   UNL     1      -0.963   1.845  -0.597  0.00  0.00    +0.155 HD
ATOM     19  N   UNL     1       2.738   0.644   1.007  0.00  0.00    +0.401 N 
ATOM     20  H   UNL     1       2.165   1.072   1.743  0.00  0.00    -0.078 HD
ENDROOT
BRANCH   2  21
ATOM     21  C   UNL     1       4.323   2.939  -1.111  0.00  0.00    -0.045 A 
ATOM     22  C   UNL     1       4.719   3.923  -0.225  0.00  0.00    +0.006 A 
ATOM     23  C   UNL     1       4.770   5.242  -0.636  0.00  0.00    +0.033 A 
ATOM     24  C   UNL     1       4.416   5.578  -1.929  0.00  0.00    +0.126 A 
ATOM     25  C   UNL     1       4.016   4.594  -2.813  0.00  0.00    +0.033 A 
ATOM     26  C   UNL     1       3.969   3.274  -2.404  0.00  0.00    +0.006 A 
BRANCH  24  27
ATOM     27  N   UNL     1       4.466   6.991  -2.367  0.00  0.00    +0.056 N 
ATOM     28  O   UNL     1       4.155   7.287  -3.507  0.00  0.00    -0.126 OA
ATOM     29  O   UNL     1       4.819   7.858  -1.588  0.00  0.00    -0.126 OA
ENDBRANCH  24  27
ENDBRANCH   2  21
BRANCH   1  30
ATOM     30  C   UNL     1       3.521  -0.606  -1.798  0.00  0.00    +0.184 C 
ATOM     31  O   UNL     1       4.437  -1.170  -1.240  0.00  0.00    -0.290 OA
BRANCH  30  36
ATOM     32  C   UNL     1       2.551  -3.146  -4.380  0.00  0.00    +0.004 A 
ATOM     33  C   UNL     1       1.510  -2.460  -4.986  0.00  0.00    +0.020 A 
ATOM     34  C   UNL     1       1.168  -1.197  -4.526  0.00  0.00    +0.111 A 
ATOM     35  N   UNL     1       1.814  -0.646  -3.523  0.00  0.00    -0.252 NA
ATOM     36  C   UNL     1       2.821  -1.266  -2.917  0.00  0.00    +0.106 A 
ATOM     37  C   UNL     1       3.219  -2.539  -3.328  0.00  0.00    +0.031 A 
ENDBRANCH  30  36
ENDBRANCH   1  30
TORSDOF 4
