REMARK  Name = ZINC12517538
REMARK  5 active torsions:
REMARK  status: ('A' for Active; 'I' for Inactive)
REMARK    1  A    between atoms: C_1  and  C_2
REMARK    2  A    between atoms: C_2  and  C_4
REMARK    3  A    between atoms: C_2  and  N_18
REMARK    4  A    between atoms: N_10  and  C_11
REMARK    5  A    between atoms: N_18  and  C_19
REMARK                            x       y       z     vdW  Elec       q    Type
REMARK                         _______ _______ _______ _____ _____    ______ ____
ROOT
ATOM      1  C   UNL     1      -0.980   3.107   1.500  0.00  0.00    +0.156 A 
ATOM      2  N   UNL     1      -1.909   3.769   0.834  0.00  0.00    -0.198 NA
ATOM      3  C   UNL     1      -1.929   5.100   0.861  0.00  0.00    +0.217 A 
ATOM      4  N   UNL     1      -1.007   5.762   1.551  0.00  0.00    -0.181 NA
ATOM      5  C   UNL     1      -0.071   5.093   2.215  0.00  0.00    +0.224 A 
ATOM      6  N   UNL     1      -0.061   3.762   2.187  0.00  0.00    -0.197 NA
ATOM      7  N   UNL     1       0.889   5.777   2.934  0.00  0.00    -0.284 N 
ATOM      8  N   UNL     1      -2.904   5.790   0.170  0.00  0.00    -0.327 N 
ATOM      9  H   UNL     1       1.523   5.290   3.483  0.00  0.00    +0.155 HD
ATOM     10  H   UNL     1      -2.915   6.760   0.187  0.00  0.00    +0.145 HD
ATOM     11  H   UNL     1      -3.577   5.306  -0.334  0.00  0.00    +0.145 HD
ENDROOT
BRANCH   7  12
ATOM     12  C   UNL     1       0.948   7.173   2.870  0.00  0.00    +0.034 A 
ATOM     13  C   UNL     1       0.611   7.831   1.695  0.00  0.00    +0.023 A 
ATOM     14  C   UNL     1       0.664   9.210   1.637  0.00  0.00    +0.002 A 
ATOM     15  C   UNL     1       1.065   9.935   2.744  0.00  0.00    +0.000 A 
ATOM     16  C   UNL     1       1.407   9.283   3.914  0.00  0.00    +0.002 A 
ATOM     17  C   UNL     1       1.350   7.904   3.981  0.00  0.00    +0.023 A 
ENDBRANCH   7  12
BRANCH   1  19
ATOM     18  C   UNL     1      -0.440   1.121   0.116  0.00  0.00    +0.036 C 
ATOM     19  C   UNL     1      -0.964   1.600   1.472  0.00  0.00    +0.135 C 
BRANCH  19  20
ATOM     20  N   UNL     1      -2.324   1.094   1.676  0.00  0.00    -0.334 N 
ATOM     21  H   UNL     1      -3.087   1.647   1.446  0.00  0.00    +0.147 HD
BRANCH  20  22
ATOM     22  C   UNL     1      -2.521  -0.185   2.203  0.00  0.00    +0.028 A 
ATOM     23  C   UNL     1      -1.429  -0.980   2.527  0.00  0.00    +0.024 A 
ATOM     24  C   UNL     1      -1.627  -2.242   3.051  0.00  0.00    +0.017 A 
ATOM     25  C   UNL     1      -2.911  -2.719   3.244  0.00  0.00    +0.018 A 
ATOM     26  C   UNL     1      -4.001  -1.932   2.917  0.00  0.00    +0.017 A 
ATOM     27  C   UNL     1      -3.809  -0.667   2.397  0.00  0.00    +0.024 A 
ATOM     28 BR   UNL     1      -3.178  -4.450   3.957  0.00  0.00    -0.050 Br
ENDBRANCH  20  22
ENDBRANCH  19  20
ENDBRANCH   1  19
TORSDOF 4
