REMARK  Name = ZINC14459473
REMARK  8 active torsions:
REMARK  status: ('A' for Active; 'I' for Inactive)
REMARK    1  A    between atoms: C_1  and  O_2
REMARK    2  A    between atoms: O_2  and  C_3
REMARK    3  A    between atoms: C_5  and  C_10
REMARK    4  A    between atoms: C_8  and  O_9
REMARK    5  A    between atoms: C_21  and  N_26
REMARK    6  A    between atoms: C_27  and  C_29
REMARK    7  A    between atoms: C_29  and  C_30
REMARK    8  A    between atoms: C_30  and  C_31
REMARK                            x       y       z     vdW  Elec       q    Type
REMARK                         _______ _______ _______ _____ _____    ______ ____
ROOT
ATOM      1  C   UNL     1       7.286   0.134  -0.111  0.00  0.00    +0.105 C 
ATOM      2  C   UNL     1       7.291   1.470   0.607  0.00  0.00    +0.029 C 
ATOM      3  C   UNL     1       7.189   1.277   2.139  0.00  0.00    +0.033 C 
ATOM      4  C   UNL     1       6.516   2.558   2.597  0.00  0.00    -0.030 C 
ATOM      5  C   UNL     1       5.865   3.114   1.606  0.00  0.00    -0.023 C 
ATOM      6  C   UNL     1       6.009   2.279   0.341  0.00  0.00    +0.049 C 
ATOM      7  C   UNL     1       4.789   1.403   0.239  0.00  0.00    -0.018 A 
ATOM      8  C   UNL     1       3.548   2.021   0.159  0.00  0.00    +0.029 A 
ATOM      9  C   UNL     1       2.391   1.264   0.076  0.00  0.00    +0.034 A 
ATOM     10  C   UNL     1       2.465  -0.123   0.062  0.00  0.00    +0.025 A 
ATOM     11  C   UNL     1       3.696  -0.742   0.133  0.00  0.00    +0.025 A 
ATOM     12  C   UNL     1       4.855   0.021   0.219  0.00  0.00    +0.031 A 
ATOM     13  N   UNL     1       6.096  -0.629   0.283  0.00  0.00    -0.336 N 
ATOM     14  H   UNL     1       6.165  -1.550   0.577  0.00  0.00    +0.147 HD
ENDROOT
BRANCH   1  17
ATOM     15  C   UNL     1       8.417   0.481  -3.699  0.00  0.00    +0.162 A 
ATOM     16  C   UNL     1       8.435   0.274  -2.329  0.00  0.00    +0.054 A 
ATOM     17  C   UNL     1       7.264   0.364  -1.601  0.00  0.00    -0.023 A 
ATOM     18  C   UNL     1       6.074   0.671  -2.234  0.00  0.00    +0.009 A 
ATOM     19  C   UNL     1       6.050   0.885  -3.599  0.00  0.00    +0.049 A 
ATOM     20  C   UNL     1       7.219   0.791  -4.337  0.00  0.00    +0.158 A 
BRANCH  15  22
ATOM     21  C   UNL     1      10.758   0.067  -3.698  0.00  0.00    +0.277 C 
ATOM     22  O   UNL     1       9.567   0.388  -4.418  0.00  0.00    -0.491 OA
ENDBRANCH  15  22
BRANCH  20  23
ATOM     23  O   UNL     1       7.196   1.001  -5.680  0.00  0.00    -0.503 OA
ATOM     24  H   UNL     1       7.342   1.921  -5.937  0.00  0.00    +0.292 HD
ENDBRANCH  20  23
ENDBRANCH   1  17
BRANCH   9  25
ATOM     25  N   UNL     1       1.143   1.899   0.001  0.00  0.00    -0.285 N 
ATOM     26  C   UNL     1       0.068   1.343   0.594  0.00  0.00    +0.218 C 
ATOM     27  O   UNL     1       0.160   0.254   1.120  0.00  0.00    -0.275 OA
ATOM     28  H   UNL     1       1.054   2.737  -0.477  0.00  0.00    +0.155 HD
BRANCH  26  29
ATOM     29  C   UNL     1      -1.251   2.072   0.597  0.00  0.00    +0.101 C 
BRANCH  29  30
ATOM     30  C   UNL     1      -2.299   1.227   1.323  0.00  0.00    +0.044 C 
BRANCH  30  31
ATOM     31  C   UNL     1      -3.618   1.956   1.326  0.00  0.00    -0.047 A 
ATOM     32  C   UNL     1      -3.932   2.811   2.366  0.00  0.00    +0.003 A 
ATOM     33  C   UNL     1      -5.140   3.483   2.367  0.00  0.00    +0.000 A 
ATOM     34  C   UNL     1      -6.038   3.293   1.333  0.00  0.00    +0.000 A 
ATOM     35  C   UNL     1      -5.726   2.434   0.296  0.00  0.00    +0.000 A 
ATOM     36  C   UNL     1      -4.516   1.765   0.293  0.00  0.00    +0.003 A 
ENDBRANCH  30  31
ENDBRANCH  29  30
ENDBRANCH  26  29
ENDBRANCH   9  25
TORSDOF 7
