REMARK  Name = ZINC14477044
REMARK  5 active torsions:
REMARK  status: ('A' for Active; 'I' for Inactive)
REMARK    1  A    between atoms: C_2  and  C_3
REMARK    2  A    between atoms: C_3  and  N_4
REMARK    3  A    between atoms: N_4  and  S_5
REMARK    4  A    between atoms: S_5  and  C_8
REMARK    5  A    between atoms: C_21  and  C_24
REMARK                            x       y       z     vdW  Elec       q    Type
REMARK                         _______ _______ _______ _____ _____    ______ ____
ROOT
ATOM      1  C   UNL     1      -2.351   2.532  -2.755  0.00  0.00    +0.106 A 
ATOM      2  C   UNL     1      -1.897   3.815  -3.001  0.00  0.00    +0.030 A 
ATOM      3  C   UNL     1      -0.836   4.324  -2.280  0.00  0.00    +0.025 A 
ATOM      4  C   UNL     1      -0.217   3.553  -1.303  0.00  0.00    +0.031 A 
ATOM      5  C   UNL     1      -0.690   2.260  -1.053  0.00  0.00    -0.018 A 
ATOM      6  C   UNL     1      -1.746   1.759  -1.782  0.00  0.00    +0.034 A 
ATOM      7  C   UNL     1      -0.018   1.481   0.010  0.00  0.00    +0.049 C 
ATOM      8  C   UNL     1       0.002  -0.004   0.002  0.00  0.00    -0.023 C 
ATOM      9  C   UNL     1       1.127  -0.416   0.575  0.00  0.00    -0.030 C 
ATOM     10  C   UNL     1       1.976   0.789   0.987  0.00  0.00    +0.033 C 
ATOM     11  C   UNL     1       1.494   1.859  -0.002  0.00  0.00    +0.029 C 
ATOM     12  C   UNL     1       1.553   3.304   0.458  0.00  0.00    +0.106 C 
ATOM     13  N   UNL     1       0.868   4.085  -0.596  0.00  0.00    -0.336 N 
ATOM     14  H   UNL     1       1.176   4.982  -0.801  0.00  0.00    +0.147 HD
ENDROOT
BRANCH  12  15
ATOM     15  C   UNL     1       0.835   3.462   1.773  0.00  0.00    -0.007 A 
ATOM     16  C   UNL     1      -0.487   3.869   1.794  0.00  0.00    +0.007 A 
ATOM     17  C   UNL     1      -1.148   4.009   3.000  0.00  0.00    +0.002 A 
ATOM     18  C   UNL     1      -0.486   3.753   4.186  0.00  0.00    +0.021 A 
ATOM     19  C   UNL     1       0.838   3.352   4.167  0.00  0.00    +0.060 A 
ATOM     20  C   UNL     1       1.498   3.206   2.959  0.00  0.00    +0.064 A 
ATOM     21 CL   UNL     1       3.160   2.703   2.933  0.00  0.00    -0.082 Cl
ATOM     22 CL   UNL     1       1.669   3.030   5.656  0.00  0.00    -0.082 Cl
ENDBRANCH  12  15
BRANCH   1  23
ATOM     23  S   UNL     1      -3.701   1.883  -3.684  0.00  0.00    +0.059 S 
ATOM     24  O   UNL     1      -4.286   0.861  -2.889  0.00  0.00    -0.153 OA
ATOM     25  O   UNL     1      -4.442   2.998  -4.157  0.00  0.00    -0.153 OA
BRANCH  23  26
ATOM     26  N   UNL     1      -3.063   1.138  -5.018  0.00  0.00    -0.186 NA
ATOM     27  H   UNL     1      -3.251   1.486  -5.904  0.00  0.00    +0.148 HD
BRANCH  26  28
ATOM     28  C   UNL     1      -2.216  -0.047  -4.861  0.00  0.00    +0.132 C 
BRANCH  28  30
ATOM     29  C   UNL     1      -0.878  -0.981  -6.678  0.00  0.00    +0.005 C 
ATOM     30  C   UNL     1      -2.070  -0.741  -6.191  0.00  0.00    -0.018 C 
ENDBRANCH  28  30
ENDBRANCH  26  28
ENDBRANCH  23  26
ENDBRANCH   1  23
TORSDOF 5
