REMARK  Name = ZINC43761212
REMARK  4 active torsions:
REMARK  status: ('A' for Active; 'I' for Inactive)
REMARK    1  A    between atoms: C_1  and  N_2
REMARK    2  A    between atoms: C_6  and  C_12
REMARK    3  A    between atoms: N_14  and  N_15
REMARK    4  A    between atoms: C_16  and  C_17
REMARK                            x       y       z     vdW  Elec       q    Type
REMARK                         _______ _______ _______ _____ _____    ______ ____
ROOT
ATOM      1  C   UNL     1      -0.024  -5.580  -0.006  0.00  0.00    +0.283 C 
ATOM      2  O   UNL     1      -0.631  -6.634  -0.004  0.00  0.00    -0.267 OA
ATOM      3  N   UNL     1       1.324  -5.580  -0.016  0.00  0.00    -0.202 N 
ATOM      4  H   UNL     1       1.809  -4.739  -0.018  0.00  0.00    +0.178 HD
ENDROOT
BRANCH   1  10
ATOM      5  C   UNL     1      -0.018   1.461   0.010  0.00  0.00    +0.127 C 
ATOM      6  N   UNL     1       0.002  -0.004   0.002  0.00  0.00    -0.329 N 
ATOM      7  C   UNL     1      -1.188  -0.713   0.010  0.00  0.00    +0.162 A 
ATOM      8  C   UNL     1      -1.182  -2.177   0.008  0.00  0.00    +0.179 A 
ATOM      9  N   UNL     1      -0.217  -3.073  -0.001  0.00  0.00    -0.220 NA
ATOM     10  C   UNL     1      -0.762  -4.303   0.002  0.00  0.00    +0.146 A 
ATOM     11  C   UNL     1      -2.134  -4.158   0.011  0.00  0.00    +0.126 A 
ATOM     12  N   UNL     1      -2.390  -2.833   0.015  0.00  0.00    -0.302 N 
ATOM     13  C   UNL     1      -3.547  -2.095   0.025  0.00  0.00    +0.112 A 
ATOM     14  C   UNL     1      -3.501  -0.751   0.026  0.00  0.00    +0.131 A 
ATOM     15  N   UNL     1      -2.344  -0.081   0.024  0.00  0.00    -0.235 NA
ATOM     16  H   UNL     1       0.849  -0.478  -0.009  0.00  0.00    +0.147 HD
ENDBRANCH   1  10
BRANCH   3  17
ATOM     17  N   UNL     1       2.025  -6.792  -0.023  0.00  0.00    -0.187 NA
ATOM     18  C   UNL     1       3.323  -6.792  -0.033  0.00  0.00    +0.138 C 
BRANCH  18  19
ATOM     19  C   UNL     1       4.061  -8.069  -0.040  0.00  0.00    -0.005 A 
ATOM     20  C   UNL     1       3.366  -9.280  -0.043  0.00  0.00    +0.011 A 
ATOM     21  C   UNL     1       4.062 -10.471  -0.051  0.00  0.00    +0.020 A 
ATOM     22  C   UNL     1       5.447 -10.467  -0.055  0.00  0.00    +0.041 A 
ATOM     23  C   UNL     1       6.142  -9.269  -0.051  0.00  0.00    +0.020 A 
ATOM     24  C   UNL     1       5.458  -8.071  -0.050  0.00  0.00    +0.011 A 
ATOM     25 CL   UNL     1       6.316 -11.970  -0.064  0.00  0.00    -0.084 Cl
ENDBRANCH  18  19
ENDBRANCH   3  17
TORSDOF 3
