REMARK  Name = ZINC41719150
REMARK  4 active torsions:
REMARK  status: ('A' for Active; 'I' for Inactive)
REMARK    1  A    between atoms: C_1  and  C_2
REMARK    2  A    between atoms: C_7  and  C_23
REMARK    3  A    between atoms: N_9  and  C_10
REMARK    4  A    between atoms: C_19  and  C_20
REMARK                            x       y       z     vdW  Elec       q    Type
REMARK                         _______ _______ _______ _____ _____    ______ ____
ROOT
ATOM      1  C   UNL     1       0.054  -1.193   2.168  0.00  0.00    +0.055 A 
ATOM      2  C   UNL     1      -0.549  -0.527   3.263  0.00  0.00    +0.020 A 
ATOM      3  C   UNL     1      -0.490   0.868   3.385  0.00  0.00    +0.012 A 
ATOM      4  C   UNL     1      -1.081   1.477   4.452  0.00  0.00    +0.001 A 
ATOM      5  C   UNL     1      -1.743   0.730   5.421  0.00  0.00    +0.002 A 
ATOM      6  C   UNL     1      -1.817  -0.628   5.331  0.00  0.00    +0.026 A 
ATOM      7  C   UNL     1      -1.221  -1.290   4.247  0.00  0.00    +0.048 A 
ATOM      8  N   UNL     1      -1.284  -2.625   4.140  0.00  0.00    -0.360 N 
ATOM      9  C   UNL     1      -0.739  -3.268   3.141  0.00  0.00    +0.100 A 
ATOM     10  C   UNL     1      -0.054  -2.593   2.115  0.00  0.00    +0.101 A 
ATOM     11  H   UNL     1      -1.750  -3.130   4.825  0.00  0.00    +0.165 HD
ENDROOT
BRANCH   1  18
ATOM     12  C   UNL     1      -0.019   1.526   0.010  0.00  0.00    +0.028 C 
ATOM     13  C   UNL     1       0.002  -0.004   0.002  0.00  0.00    +0.071 C 
ATOM     14  C   UNL     1       0.725  -0.501  -1.254  0.00  0.00    +0.022 C 
ATOM     15  C   UNL     1       2.195  -0.079  -1.192  0.00  0.00    +0.004 C 
ATOM     16  C   UNL     1       2.859  -0.716   0.031  0.00  0.00    +0.022 C 
ATOM     17  C   UNL     1       2.160  -0.221   1.301  0.00  0.00    +0.071 C 
ATOM     18  N   UNL     1       0.718  -0.493   1.188  0.00  0.00    -0.323 N 
ATOM     19  C   UNL     1       2.728  -0.955   2.518  0.00  0.00    +0.028 C 
ENDBRANCH   1  18
BRANCH  10  20
ATOM     20  C   UNL     1       0.543  -3.342   1.003  0.00  0.00    +0.390 C 
ATOM     21  O   UNL     1       0.444  -4.561   0.963  0.00  0.00    -0.240 OA
ATOM     22  O   UNL     1       1.140  -2.747   0.115  0.00  0.00    -0.240 OA
ENDBRANCH  10  20
TORSDOF 2
