REMARK  Name = ZINC58213171
REMARK  4 active torsions:
REMARK  status: ('A' for Active; 'I' for Inactive)
REMARK    1  A    between atoms: C_11  and  C_14
REMARK    2  A    between atoms: C_14  and  C_15
REMARK    3  A    between atoms: N_17  and  C_18
REMARK    4  A    between atoms: C_20  and  C_24
REMARK                            x       y       z     vdW  Elec       q    Type
REMARK                         _______ _______ _______ _____ _____    ______ ____
ROOT
ATOM      1  C   UNL     1       4.756   1.203   2.337  0.00  0.00    +0.120 C 
ENDROOT
BRANCH   1  12
ATOM      2  C   UNL     1      -0.017   1.379   0.010  0.00  0.00    +0.021 A 
ATOM      3  C   UNL     1       1.173   2.084   0.002  0.00  0.00    +0.018 A 
ATOM      4  C   UNL     1       2.379   1.403  -0.010  0.00  0.00    +0.030 A 
ATOM      5  C   UNL     1       2.407   0.009  -0.010  0.00  0.00    +0.048 A 
ATOM      6  C   UNL     1       1.203  -0.688  -0.009  0.00  0.00    +0.044 A 
ATOM      7  C   UNL     1       0.002  -0.004   0.002  0.00  0.00    +0.043 A 
ATOM      8 CL   UNL     1      -1.493  -0.887   0.006  0.00  0.00    -0.083 Cl
ATOM      9  N   UNL     1       3.603  -0.703   0.001  0.00  0.00    -0.284 N 
ATOM     10  C   UNL     1       4.805  -0.229   0.310  0.00  0.00    +0.231 C 
ATOM     11  O   UNL     1       5.766  -0.955   0.164  0.00  0.00    -0.274 OA
ATOM     12  C   UNL     1       5.034   1.165   0.833  0.00  0.00    +0.146 C 
ATOM     13  S   UNL     1       3.902   2.297  -0.031  0.00  0.00    -0.110 S 
ATOM     14  H   UNL     1       3.554  -1.641  -0.241  0.00  0.00    +0.155 HD
ENDBRANCH   1  12
BRANCH   1  15
ATOM     15  C   UNL     1       5.103   2.566   2.878  0.00  0.00    +0.220 C 
ATOM     16  O   UNL     1       5.530   3.423   2.135  0.00  0.00    -0.275 OA
ATOM     17  N   UNL     1       4.938   2.832   4.189  0.00  0.00    -0.271 N 
ATOM     18  H   UNL     1       4.596   2.146   4.784  0.00  0.00    +0.156 HD
BRANCH  17  19
ATOM     19  C   UNL     1       5.259   4.093   4.691  0.00  0.00    +0.120 A 
ATOM     20  C   UNL     1       5.740   5.145   3.973  0.00  0.00    +0.068 A 
ATOM     21  C   UNL     1       5.925   6.215   4.853  0.00  0.00    +0.068 A 
ATOM     22  N   UNL     1       5.572   5.827   6.052  0.00  0.00    -0.177 NA
ATOM     23  N   UNL     1       5.143   4.495   5.977  0.00  0.00    -0.264 N 
ATOM     24  H   UNL     1       4.822   3.956   6.717  0.00  0.00    +0.190 HD
BRANCH  21  25
ATOM     25  C   UNL     1       6.444   7.581   4.485  0.00  0.00    +0.040 C 
ATOM     26  C   UNL     1       7.155   7.727   3.138  0.00  0.00    +0.010 C 
ATOM     27  C   UNL     1       7.962   7.771   4.438  0.00  0.00    +0.010 C 
ENDBRANCH  21  25
ENDBRANCH  17  19
ENDBRANCH   1  15
TORSDOF 4
