REMARK  Name = ZINC59435309
REMARK  5 active torsions:
REMARK  status: ('A' for Active; 'I' for Inactive)
REMARK    1  A    between atoms: C_3  and  C_10
REMARK    2  A    between atoms: C_5  and  N_7
REMARK    3  A    between atoms: C_13  and  C_15
REMARK    4  A    between atoms: N_16  and  N_17
REMARK    5  A    between atoms: C_18  and  C_20
REMARK                            x       y       z     vdW  Elec       q    Type
REMARK                         _______ _______ _______ _____ _____    ______ ____
ROOT
ATOM      1  C   UNL     1       3.614   2.112  -0.021  0.00  0.00    +0.136 A 
ATOM      2  C   UNL     1       3.737   3.523  -0.010  0.00  0.00    +0.050 A 
ATOM      3  C   UNL     1       5.062   3.818  -0.023  0.00  0.00    +0.051 A 
ATOM      4  C   UNL     1       5.772   2.530  -0.043  0.00  0.00    +0.148 A 
ATOM      5  O   UNL     1       4.837   1.555  -0.036  0.00  0.00    -0.454 OA
ENDROOT
BRANCH   1   8
ATOM      6  C   UNL     1      -0.017   1.383   0.010  0.00  0.00    +0.003 A 
ATOM      7  C   UNL     1       1.164   2.090   0.002  0.00  0.00    +0.012 A 
ATOM      8  C   UNL     1       2.390   1.397  -0.013  0.00  0.00    +0.019 A 
ATOM      9  C   UNL     1       2.391  -0.011  -0.021  0.00  0.00    +0.044 A 
ATOM     10  C   UNL     1       1.207  -0.692  -0.013  0.00  0.00    +0.127 A 
ATOM     11  C   UNL     1       0.002  -0.004   0.002  0.00  0.00    +0.033 A 
BRANCH  10  12
ATOM     12  N   UNL     1       1.209  -2.172  -0.021  0.00  0.00    +0.056 N 
ATOM     13  O   UNL     1       2.351  -2.829  -0.036  0.00  0.00    -0.126 OA
ATOM     14  O   UNL     1       0.070  -2.832  -0.014  0.00  0.00    -0.126 OA
ENDBRANCH  10  12
ENDBRANCH   1   8
BRANCH   4  15
ATOM     15  C   UNL     1       7.148   2.350  -0.062  0.00  0.00    +0.176 C 
ATOM     16  N   UNL     1       7.657   1.123  -0.079  0.00  0.00    -0.184 NA
BRANCH  16  17
ATOM     17  N   UNL     1       8.936   0.956  -0.096  0.00  0.00    -0.203 N 
ATOM     18  C   UNL     1       9.453  -0.289  -0.114  0.00  0.00    +0.263 C 
ATOM     19  O   UNL     1       8.714  -1.253  -0.113  0.00  0.00    -0.268 OA
ATOM     20  H   UNL     1       9.526   1.726  -0.097  0.00  0.00    +0.178 HD
BRANCH  18  21
ATOM     21  C   UNL     1      10.917  -0.481  -0.133  0.00  0.00    +0.039 A 
ATOM     22  C   UNL     1      11.770   0.626  -0.128  0.00  0.00    +0.013 A 
ATOM     23  C   UNL     1      13.136   0.440  -0.146  0.00  0.00    +0.002 A 
ATOM     24  C   UNL     1      13.663  -0.840  -0.169  0.00  0.00    +0.014 A 
ATOM     25  C   UNL     1      12.824  -1.941  -0.175  0.00  0.00    +0.014 A 
ATOM     26  C   UNL     1      11.455  -1.769  -0.151  0.00  0.00    +0.027 A 
ATOM     27  I   UNL     1      13.635  -3.872  -0.210  0.00  0.00    -0.044 I 
ENDBRANCH  18  21
ENDBRANCH  16  17
ENDBRANCH   4  15
TORSDOF 5
