REMARK  Name = ZINC12464259
REMARK  8 active torsions:
REMARK  status: ('A' for Active; 'I' for Inactive)
REMARK    1  A    between atoms: C_1  and  C_2
REMARK    2  A    between atoms: C_2  and  C_3
REMARK    3  A    between atoms: C_9  and  S_11
REMARK    4  A    between atoms: S_11  and  C_12
REMARK    5  A    between atoms: C_12  and  C_13
REMARK    6  A    between atoms: C_16  and  C_28
REMARK    7  A    between atoms: C_19  and  C_21
REMARK    8  A    between atoms: C_31  and  C_34
REMARK                            x       y       z     vdW  Elec       q    Type
REMARK                         _______ _______ _______ _____ _____    ______ ____
ROOT
ATOM      1  C   UNL     1       1.078   6.727   2.516  0.00  0.00    +0.246 C 
ATOM      2  O   UNL     1       0.643   7.317   3.482  0.00  0.00    -0.273 OA
ATOM      3  N   UNL     1       2.005   7.310   1.731  0.00  0.00    -0.184 N 
ATOM      4  C   UNL     1       2.575   8.652   1.931  0.00  0.00    +0.137 C 
ATOM      5  C   UNL     1       3.568   8.801   0.761  0.00  0.00    +0.087 C 
ATOM      6  C   UNL     1       3.446   7.494   0.011  0.00  0.00    +0.069 C 
ATOM      7  N   UNL     1       2.586   6.738   0.601  0.00  0.00    -0.181 NA
ENDROOT
BRANCH   6   8
ATOM      8  C   UNL     1       4.202   7.136  -1.204  0.00  0.00    -0.002 A 
ATOM      9  C   UNL     1       5.114   8.040  -1.754  0.00  0.00    +0.011 A 
ATOM     10  C   UNL     1       5.821   7.698  -2.888  0.00  0.00    +0.016 A 
ATOM     11  C   UNL     1       5.621   6.465  -3.486  0.00  0.00    +0.018 A 
ATOM     12  C   UNL     1       4.715   5.566  -2.948  0.00  0.00    +0.016 A 
ATOM     13  C   UNL     1       4.006   5.894  -1.812  0.00  0.00    +0.011 A 
ATOM     14 BR   UNL     1       6.589   6.008  -5.045  0.00  0.00    -0.050 Br
ENDBRANCH   6   8
BRANCH   4  15
ATOM     15  C   UNL     1       3.296   8.730   3.252  0.00  0.00    -0.025 A 
ATOM     16  C   UNL     1       4.034   7.652   3.702  0.00  0.00    +0.006 A 
ATOM     17  C   UNL     1       4.699   7.726   4.912  0.00  0.00    +0.004 A 
ATOM     18  C   UNL     1       4.617   8.875   5.676  0.00  0.00    -0.050 A 
ATOM     19  C   UNL     1       3.874   9.951   5.229  0.00  0.00    +0.004 A 
ATOM     20  C   UNL     1       3.213   9.879   4.017  0.00  0.00    +0.006 A 
ATOM     21  C   UNL     1       5.337   8.954   6.997  0.00  0.00    +0.044 C 
ENDBRANCH   4  15
BRANCH   1  22
ATOM     22  C   UNL     1       0.581   5.341   2.193  0.00  0.00    +0.175 C 
BRANCH  22  23
ATOM     23  S   UNL     1      -0.649   4.840   3.422  0.00  0.00    -0.078 S 
BRANCH  23  30
ATOM     24  C   UNL     1      -0.718   1.572   1.248  0.00  0.00    +0.049 A 
ATOM     25  C   UNL     1      -1.634   0.772   1.868  0.00  0.00    +0.093 A 
ATOM     26  C   UNL     1      -2.280   1.247   3.023  0.00  0.00    +0.252 A 
ATOM     27  O   UNL     1      -3.103   0.558   3.603  0.00  0.00    -0.268 OA
ATOM     28  N   UNL     1      -1.970   2.479   3.480  0.00  0.00    -0.302 N 
ATOM     29  H   UNL     1      -2.403   2.827   4.275  0.00  0.00    +0.171 HD
ATOM     30  C   UNL     1      -1.048   3.233   2.819  0.00  0.00    +0.170 A 
ATOM     31  N   UNL     1      -0.443   2.777   1.739  0.00  0.00    -0.228 NA
BRANCH  24  33
ATOM     32  C   UNL     1      -0.753   1.593  -1.232  0.00  0.00    +0.010 C 
ATOM     33  C   UNL     1      -0.013   1.086   0.008  0.00  0.00    +0.052 C 
ENDBRANCH  24  33
ENDBRANCH  23  30
ENDBRANCH  22  23
ENDBRANCH   1  22
TORSDOF 6
