REMARK  Name = ZINC15082945
REMARK  6 active torsions:
REMARK  status: ('A' for Active; 'I' for Inactive)
REMARK    1  A    between atoms: C_1  and  O_2
REMARK    2  A    between atoms: O_2  and  C_3
REMARK    3  A    between atoms: C_6  and  C_9
REMARK    4  A    between atoms: N_22  and  C_23
REMARK    5  A    between atoms: C_30  and  N_34
REMARK    6  A    between atoms: C_31  and  C_32
REMARK                            x       y       z     vdW  Elec       q    Type
REMARK                         _______ _______ _______ _____ _____    ______ ____
ROOT
ATOM      1  C   UNL     1      -1.279  -0.771   0.007  0.00  0.00    +0.103 C 
ATOM      2  C   UNL     1      -1.359  -1.623  -1.229  0.00  0.00    +0.073 A 
ATOM      3  C   UNL     1      -1.147  -2.990  -1.162  0.00  0.00    +0.157 A 
ATOM      4  C   UNL     1      -1.232  -3.731  -2.336  0.00  0.00    +0.100 A 
ATOM      5  C   UNL     1      -1.522  -3.149  -3.575  0.00  0.00    +0.154 A 
ATOM      6  N   UNL     1      -1.726  -1.772  -3.587  0.00  0.00    -0.306 N 
ATOM      7  H   UNL     1      -1.929  -1.331  -4.427  0.00  0.00    +0.170 HD
ATOM      8  C   UNL     1      -1.648  -1.042  -2.466  0.00  0.00    +0.258 A 
ATOM      9  O   UNL     1      -1.835   0.163  -2.528  0.00  0.00    -0.267 OA
ATOM     10  N   UNL     1      -1.566  -3.997  -4.601  0.00  0.00    -0.207 NA
ATOM     11  C   UNL     1      -1.353  -5.290  -4.460  0.00  0.00    +0.165 A 
ATOM     12  S   UNL     1      -1.049  -5.446  -2.756  0.00  0.00    -0.047 S 
ATOM     13  N   UNL     1      -1.367  -6.275  -5.425  0.00  0.00    -0.294 N 
ATOM     14  O   UNL     1      -0.864  -3.588   0.016  0.00  0.00    -0.440 OA
ATOM     15  C   UNL     1      -1.152  -2.968   1.173  0.00  0.00    +0.199 C 
ATOM     16  C   UNL     1      -1.359  -1.634   1.235  0.00  0.00    +0.098 C 
ATOM     17  H   UNL     1      -1.108  -7.182  -5.197  0.00  0.00    +0.154 HD
ENDROOT
BRANCH   1  21
ATOM     18  C   UNL     1       2.421   1.367   0.018  0.00  0.00    +0.120 A 
ATOM     19  C   UNL     1       1.219   2.059   0.021  0.00  0.00    +0.046 A 
ATOM     20  C   UNL     1       0.024   1.366   0.017  0.00  0.00    +0.008 A 
ATOM     21  C   UNL     1       0.026  -0.017   0.011  0.00  0.00    -0.034 A 
ATOM     22  C   UNL     1       1.222  -0.709   0.009  0.00  0.00    +0.008 A 
ATOM     23  C   UNL     1       2.420  -0.020   0.012  0.00  0.00    +0.046 A 
BRANCH  18  25
ATOM     24  C   UNL     1       3.522   3.474   0.028  0.00  0.00    +0.277 C 
ATOM     25  O   UNL     1       3.598   2.047   0.021  0.00  0.00    -0.495 OA
ENDBRANCH  18  25
ENDBRANCH   1  21
BRANCH  13  26
ATOM     26  C   UNL     1      -1.754  -5.967  -6.732  0.00  0.00    +0.033 A 
ATOM     27  C   UNL     1      -2.597  -4.890  -6.973  0.00  0.00    +0.023 A 
ATOM     28  C   UNL     1      -2.973  -4.585  -8.267  0.00  0.00    +0.002 A 
ATOM     29  C   UNL     1      -2.520  -5.358  -9.320  0.00  0.00    +0.000 A 
ATOM     30  C   UNL     1      -1.685  -6.434  -9.084  0.00  0.00    +0.002 A 
ATOM     31  C   UNL     1      -1.300  -6.741  -7.793  0.00  0.00    +0.023 A 
ENDBRANCH  13  26
BRANCH  15  32
ATOM     32  N   UNL     1      -1.238  -3.711   2.323  0.00  0.00    -0.328 N 
ATOM     33  H   UNL     1      -1.091  -4.669   2.294  0.00  0.00    +0.145 HD
ATOM     34  H   UNL     1      -1.445  -3.278   3.166  0.00  0.00    +0.145 HD
ENDBRANCH  15  32
BRANCH  16  35
ATOM     35  C   UNL     1      -1.661  -1.033   2.499  0.00  0.00    +0.101 C 
ATOM     36  N   UNL     1      -1.901  -0.555   3.502  0.00  0.00    -0.191 NA
ENDBRANCH  16  35
TORSDOF 5
