REMARK  Name = ZINC36530958
REMARK  13 active torsions:
REMARK  status: ('A' for Active; 'I' for Inactive)
REMARK    1  A    between atoms: C_1  and  C_2
REMARK    2  A    between atoms: C_5  and  S_8
REMARK    3  A    between atoms: S_8  and  C_11
REMARK    4  A    between atoms: C_11  and  N_12
REMARK    5  A    between atoms: C_13  and  C_15
REMARK    6  A    between atoms: C_15  and  C_17
REMARK    7  A    between atoms: C_15  and  N_25
REMARK    8  A    between atoms: C_20  and  C_24
REMARK    9  A    between atoms: C_22  and  C_23
REMARK   10  A    between atoms: N_25  and  C_26
REMARK   11  A    between atoms: C_27  and  C_29
REMARK   12  A    between atoms: C_30  and  O_36
REMARK   13  A    between atoms: C_34  and  O_35
REMARK                            x       y       z     vdW  Elec       q    Type
REMARK                         _______ _______ _______ _____ _____    ______ ____
ROOT
ATOM      1  C   UNL     1       3.368  -4.846   3.391  0.00  0.00    +0.192 C 
ENDROOT
BRANCH   1   2
ATOM      2  C   UNL     1       2.659  -3.711   4.084  0.00  0.00    -0.015 A 
ATOM      3  C   UNL     1       1.332  -3.448   3.799  0.00  0.00    +0.006 A 
ATOM      4  C   UNL     1       0.681  -2.407   4.434  0.00  0.00    +0.004 A 
ATOM      5  C   UNL     1       1.357  -1.629   5.356  0.00  0.00    -0.050 A 
ATOM      6  C   UNL     1       2.684  -1.893   5.642  0.00  0.00    +0.007 A 
ATOM      7  C   UNL     1       3.333  -2.937   5.009  0.00  0.00    -0.045 A 
ATOM      8  C   UNL     1       4.778  -3.227   5.325  0.00  0.00    +0.044 C 
ATOM      9  C   UNL     1       0.648  -0.494   6.048  0.00  0.00    +0.044 C 
ENDBRANCH   1   2
BRANCH   1  11
ATOM     10  N   UNL     1       2.740  -4.542   1.018  0.00  0.00    -0.294 N 
ATOM     11  C   UNL     1       2.595  -5.244   2.159  0.00  0.00    +0.239 C 
ATOM     12  O   UNL     1       1.844  -6.195   2.196  0.00  0.00    -0.273 OA
ATOM     13  H   UNL     1       3.287  -3.741   1.006  0.00  0.00    +0.150 HD
BRANCH  10  14
ATOM     14  C   UNL     1       2.070  -4.989  -0.206  0.00  0.00    +0.278 C 
BRANCH  14  15
ATOM     15  S   UNL     1       0.487  -4.120  -0.382  0.00  0.00    +0.013 S 
ATOM     16  O   UNL     1      -0.226  -4.151   0.847  0.00  0.00    -0.168 OA
ATOM     17  O   UNL     1      -0.145  -4.496  -1.597  0.00  0.00    -0.168 OA
BRANCH  15  22
ATOM     18  C   UNL     1       1.975   1.677  -1.152  0.00  0.00    +0.044 C 
ATOM     19  C   UNL     1       1.604   0.229  -0.959  0.00  0.00    -0.050 A 
ATOM     20  C   UNL     1       1.474  -0.603  -2.056  0.00  0.00    +0.005 A 
ATOM     21  C   UNL     1       1.133  -1.931  -1.879  0.00  0.00    +0.027 A 
ATOM     22  C   UNL     1       0.923  -2.427  -0.606  0.00  0.00    +0.090 A 
ATOM     23  C   UNL     1       1.054  -1.596   0.490  0.00  0.00    +0.027 A 
ATOM     24  C   UNL     1       1.399  -0.269   0.314  0.00  0.00    +0.005 A 
ENDBRANCH  15  22
ENDBRANCH  14  15
ENDBRANCH  10  14
ENDBRANCH   1  11
BRANCH   1  25
ATOM     25  N   UNL     1       3.461  -5.991   4.300  0.00  0.00    -0.285 N 
ATOM     26  C   UNL     1       2.251  -6.532   4.923  0.00  0.00    +0.133 C 
ATOM     27  C   UNL     1       4.661  -6.546   4.563  0.00  0.00    +0.254 C 
ATOM     28  O   UNL     1       5.665  -6.097   4.046  0.00  0.00    -0.270 OA
BRANCH  27  29
ATOM     29  C   UNL     1       4.755  -7.697   5.476  0.00  0.00    +0.119 A 
ATOM     30  C   UNL     1       4.661  -9.005   4.977  0.00  0.00    +0.133 A 
ATOM     31  C   UNL     1       4.751 -10.081   5.845  0.00  0.00    +0.046 A 
ATOM     32  C   UNL     1       4.933  -9.869   7.199  0.00  0.00    +0.007 A 
ATOM     33  C   UNL     1       5.026  -8.584   7.702  0.00  0.00    +0.046 A 
ATOM     34  C   UNL     1       4.944  -7.494   6.851  0.00  0.00    +0.133 A 
BRANCH  34  35
ATOM     35  O   UNL     1       5.042  -6.235   7.346  0.00  0.00    -0.506 OA
ATOM     36  H   UNL     1       4.195  -5.848   7.607  0.00  0.00    +0.292 HD
ENDBRANCH  34  35
BRANCH  30  37
ATOM     37  O   UNL     1       4.482  -9.215   3.649  0.00  0.00    -0.506 OA
ATOM     38  H   UNL     1       5.306  -9.295   3.149  0.00  0.00    +0.292 HD
ENDBRANCH  30  37
ENDBRANCH  27  29
ENDBRANCH   1  25
TORSDOF 9
