REMARK  Name = ZINC01028303
REMARK  2 active torsions:
REMARK  status: ('A' for Active; 'I' for Inactive)
REMARK    1  A    between atoms: C_6  and  C_7
REMARK    2  A    between atoms: N_8  and  N_9
REMARK                            x       y       z     vdW  Elec       q    Type
REMARK                         _______ _______ _______ _____ _____    ______ ____
ROOT
ATOM      1  N   UNL     1       0.002  -0.004   0.002  0.00  0.00    -0.144 NA
ATOM      2  C   UNL     1      -0.016   1.315   0.009  0.00  0.00    +0.157 C 
ATOM      3  C   UNL     1       1.145   2.230   0.003  0.00  0.00    +0.029 A 
ATOM      4  C   UNL     1       2.521   2.024  -0.011  0.00  0.00    +0.027 A 
ATOM      5  C   UNL     1       3.376   3.109  -0.014  0.00  0.00    +0.019 A 
ATOM      6  C   UNL     1       2.863   4.396  -0.002  0.00  0.00    +0.017 A 
ATOM      7  C   UNL     1       1.500   4.611   0.012  0.00  0.00    +0.025 A 
ATOM      8  C   UNL     1       0.623   3.532   0.015  0.00  0.00    +0.043 A 
ATOM      9  N   UNL     1      -0.766   3.470   0.027  0.00  0.00    -0.280 N 
ATOM     10  C   UNL     1      -1.200   2.198   0.019  0.00  0.00    +0.269 C 
ATOM     11  O   UNL     1      -2.362   1.838   0.021  0.00  0.00    -0.268 OA
ATOM     12 BR   UNL     1       5.247   2.837  -0.033  0.00  0.00    -0.050 Br
ATOM     13  H   UNL     1      -1.348   4.246   0.036  0.00  0.00    +0.155 HD
ENDROOT
BRANCH   1  15
ATOM     14  C   UNL     1       1.146  -1.949  -0.019  0.00  0.00    +0.142 C 
ATOM     15  N   UNL     1       1.128  -0.634  -0.012  0.00  0.00    -0.156 NA
BRANCH  14  21
ATOM     16  C   UNL     1       3.631  -1.951  -0.049  0.00  0.00    +0.011 A 
ATOM     17  C   UNL     1       4.830  -2.631  -0.059  0.00  0.00    +0.022 A 
ATOM     18  C   UNL     1       4.845  -4.016  -0.066  0.00  0.00    +0.059 A 
ATOM     19  C   UNL     1       3.655  -4.731  -0.059  0.00  0.00    +0.060 A 
ATOM     20  C   UNL     1       2.448  -4.066  -0.043  0.00  0.00    +0.031 A 
ATOM     21  C   UNL     1       2.425  -2.665  -0.035  0.00  0.00    -0.004 A 
ATOM     22 CL   UNL     1       3.688  -6.467  -0.068  0.00  0.00    -0.082 Cl
ATOM     23 CL   UNL     1       6.361  -4.863  -0.086  0.00  0.00    -0.082 Cl
ENDBRANCH  14  21
ENDBRANCH   1  15
TORSDOF 2
