REMARK  Name = ZINC10785890
REMARK  5 active torsions:
REMARK  status: ('A' for Active; 'I' for Inactive)
REMARK    1  A    between atoms: C_1  and  O_2
REMARK    2  A    between atoms: O_2  and  C_3
REMARK    3  A    between atoms: C_18  and  C_20
REMARK    4  A    between atoms: N_26  and  S_27
REMARK    5  A    between atoms: S_27  and  C_30
REMARK                            x       y       z     vdW  Elec       q    Type
REMARK                         _______ _______ _______ _____ _____    ______ ____
ROOT
ATOM      1  C   UNL     1       3.644   4.904  -9.800  0.00  0.00    +0.121 A 
ATOM      2  C   UNL     1       3.964   5.898  -8.881  0.00  0.00    +0.048 A 
ATOM      3  C   UNL     1       3.898   5.672  -7.531  0.00  0.00    +0.032 A 
ATOM      4  C   UNL     1       3.498   4.414  -7.027  0.00  0.00    +0.081 A 
ATOM      5  C   UNL     1       3.180   3.427  -7.987  0.00  0.00    +0.044 A 
ATOM      6  C   UNL     1       3.249   3.657  -9.338  0.00  0.00    +0.063 A 
ATOM      7  S   UNL     1       2.742   2.037  -6.970  0.00  0.00    -0.052 S 
ATOM      8  C   UNL     1       2.999   2.825  -5.387  0.00  0.00    +0.162 A 
ATOM      9  N   UNL     1       3.377   4.034  -5.734  0.00  0.00    -0.225 NA
ATOM     10  N   UNL     1       2.836   2.299  -4.121  0.00  0.00    -0.307 N 
ATOM     11  C   UNL     1       3.158   3.296  -3.091  0.00  0.00    +0.126 C 
ATOM     12  C   UNL     1       3.140   2.626  -1.713  0.00  0.00    +0.127 C 
ATOM     13  N   UNL     1       1.847   1.948  -1.540  0.00  0.00    -0.297 N 
ATOM     14  C   UNL     1       1.395   1.031  -2.597  0.00  0.00    +0.127 C 
ATOM     15  C   UNL     1       1.478   1.768  -3.943  0.00  0.00    +0.126 C 
ATOM     16  C   UNL     1       1.098   2.157  -0.438  0.00  0.00    +0.235 C 
ATOM     17  O   UNL     1       1.438   2.988   0.377  0.00  0.00    -0.274 OA
ENDROOT
BRANCH  16  18
ATOM     18  C   UNL     1      -0.161   1.358  -0.220  0.00  0.00    +0.166 C 
ATOM     19  C   UNL     1      -1.377   2.287  -0.289  0.00  0.00    +0.030 C 
ATOM     20  C   UNL     1      -2.638   1.493   0.071  0.00  0.00    +0.003 C 
ATOM     21  C   UNL     1      -2.516   0.956   1.499  0.00  0.00    +0.017 C 
ATOM     22  C   UNL     1      -1.312   0.014   1.586  0.00  0.00    +0.110 C 
ATOM     23  N   UNL     1      -0.119   0.726   1.105  0.00  0.00    -0.164 NA
BRANCH  23  24
ATOM     24  S   UNL     1       1.245   0.814   2.040  0.00  0.00    +0.068 S 
ATOM     25  O   UNL     1       1.208  -0.303   2.918  0.00  0.00    -0.152 OA
ATOM     26  O   UNL     1       2.330   1.050   1.153  0.00  0.00    -0.152 OA
BRANCH  24  27
ATOM     27  C   UNL     1       1.095   2.252   3.047  0.00  0.00    +0.143 A 
ATOM     28  C   UNL     1       0.542   2.378   4.278  0.00  0.00    +0.036 A 
ATOM     29  C   UNL     1       0.539   3.618   4.888  0.00  0.00    +0.010 A 
ATOM     30  C   UNL     1       1.079   4.675   4.231  0.00  0.00    +0.047 A 
ATOM     31  S   UNL     1       1.623   3.923   2.706  0.00  0.00    -0.077 S 
ENDBRANCH  24  27
ENDBRANCH  23  24
ENDBRANCH  16  18
BRANCH   1  33
ATOM     32  C   UNL     1       4.133   6.460 -11.531  0.00  0.00    +0.277 C 
ATOM     33  O   UNL     1       3.718   5.151 -11.135  0.00  0.00    -0.495 OA
ENDBRANCH   1  33
TORSDOF 4
