REMARK  Name = ZINC35679217
REMARK  7 active torsions:
REMARK  status: ('A' for Active; 'I' for Inactive)
REMARK    1  A    between atoms: C_1  and  C_2
REMARK    2  A    between atoms: C_7  and  N_8
REMARK    3  A    between atoms: N_8  and  S_9
REMARK    4  A    between atoms: S_9  and  C_12
REMARK    5  A    between atoms: C_15  and  C_17
REMARK    6  A    between atoms: C_17  and  C_18
REMARK    7  A    between atoms: C_18  and  N_19
REMARK                            x       y       z     vdW  Elec       q    Type
REMARK                         _______ _______ _______ _____ _____    ______ ____
ROOT
ATOM      1  S   UNL     1       0.051  -0.854   3.844  0.00  0.00    +0.098 S 
ATOM      2  O   UNL     1      -1.185  -1.551   3.927  0.00  0.00    -0.148 OA
ATOM      3  O   UNL     1       1.305  -1.518   3.903  0.00  0.00    -0.148 OA
ENDROOT
BRANCH   1   4
ATOM      4  C   UNL     1       0.047   0.334   5.145  0.00  0.00    +0.148 A 
ATOM      5  C   UNL     1      -1.007   0.892   5.789  0.00  0.00    +0.037 A 
ATOM      6  C   UNL     1      -0.769   1.813   6.792  0.00  0.00    +0.013 A 
ATOM      7  C   UNL     1       0.512   2.132   7.101  0.00  0.00    -0.010 A 
ATOM      8  S   UNL     1       1.432   1.110   5.962  0.00  0.00    -0.073 S 
BRANCH   7   9
ATOM      9  C   UNL     1       1.026   3.095   8.140  0.00  0.00    +0.023 C 
BRANCH   9  10
ATOM     10  C   UNL     1       1.230   2.355   9.464  0.00  0.00    -0.081 C 
BRANCH  10  11
ATOM     11  N   UNL     1       1.731   3.293  10.477  0.00  0.00    +0.378 N 
ATOM     12  H   UNL     1       2.610   3.682  10.170  0.00  0.00    -0.090 HD
ATOM     13  H   UNL     1       1.062   4.037  10.607  0.00  0.00    -0.090 HD
ATOM     14  H   UNL     1       1.866   2.805  11.350  0.00  0.00    -0.090 HD
ENDBRANCH  10  11
ENDBRANCH   9  10
ENDBRANCH   7   9
ENDBRANCH   1   4
BRANCH   1  15
ATOM     15  N   UNL     1       0.026  -0.016   2.415  0.00  0.00    -0.097 NA
BRANCH  15  22
ATOM     16  C   UNL     1      -0.018   1.503   0.010  0.00  0.00    +0.046 C 
ATOM     17  C   UNL     1       0.002  -0.004   0.002  0.00  0.00    -0.025 A 
ATOM     18  C   UNL     1       0.006  -0.689  -1.198  0.00  0.00    +0.020 A 
ATOM     19  C   UNL     1       0.024  -2.072  -1.206  0.00  0.00    +0.018 A 
ATOM     20  C   UNL     1       0.039  -2.774  -0.013  0.00  0.00    +0.017 A 
ATOM     21  C   UNL     1       0.035  -2.095   1.189  0.00  0.00    +0.028 A 
ATOM     22  C   UNL     1       0.023  -0.706   1.200  0.00  0.00    +0.077 A 
ATOM     23 BR   UNL     1       0.028  -3.006  -2.850  0.00  0.00    -0.050 Br
ENDBRANCH  15  22
ENDBRANCH   1  15
TORSDOF 6
