REMARK  Name = ZINC45334358
REMARK  7 active torsions:
REMARK  status: ('A' for Active; 'I' for Inactive)
REMARK    1  A    between atoms: C_1  and  C_2
REMARK    2  A    between atoms: C_2  and  C_3
REMARK    3  A    between atoms: C_3  and  C_29
REMARK    4  A    between atoms: N_6  and  C_10
REMARK    5  A    between atoms: C_10  and  C_11
REMARK    6  A    between atoms: C_14  and  C_24
REMARK    7  A    between atoms: C_17  and  C_19
REMARK                            x       y       z     vdW  Elec       q    Type
REMARK                         _______ _______ _______ _____ _____    ______ ____
ROOT
ATOM      1  C   UNL     1      -4.228   1.468   1.421  0.00  0.00    +0.215 C 
ENDROOT
BRANCH   1   5
ATOM      2  C   UNL     1      -1.433  -0.534   0.013  0.00  0.00    +0.138 C 
ATOM      3  C   UNL     1      -2.205   0.042   1.184  0.00  0.00    +0.251 C 
ATOM      4  O   UNL     1      -1.958  -0.098   2.363  0.00  0.00    -0.272 OA
ATOM      5  N   UNL     1      -3.222   0.740   0.642  0.00  0.00    -0.215 N 
ATOM      6  C   UNL     1      -3.200   0.687  -0.695  0.00  0.00    +0.310 C 
ATOM      7  O   UNL     1      -4.016   1.240  -1.406  0.00  0.00    -0.252 OA
ATOM      8  N   UNL     1      -2.175  -0.046  -1.163  0.00  0.00    -0.281 N 
ATOM      9  H   UNL     1      -1.964  -0.220  -2.094  0.00  0.00    +0.152 HD
BRANCH   2  10
ATOM     10  C   UNL     1      -1.441  -2.040   0.057  0.00  0.00    -0.015 A 
ATOM     11  C   UNL     1      -0.412  -2.718   0.685  0.00  0.00    +0.007 A 
ATOM     12  C   UNL     1      -0.418  -4.099   0.726  0.00  0.00    +0.020 A 
ATOM     13  C   UNL     1      -1.454  -4.804   0.139  0.00  0.00    +0.041 A 
ATOM     14  C   UNL     1      -2.483  -4.125  -0.489  0.00  0.00    +0.020 A 
ATOM     15  C   UNL     1      -2.479  -2.743  -0.524  0.00  0.00    +0.007 A 
ATOM     16 CL   UNL     1      -1.462  -6.539   0.190  0.00  0.00    -0.084 Cl
ENDBRANCH   2  10
BRANCH   2  18
ATOM     17  C   UNL     1      -0.019   1.526   0.010  0.00  0.00    +0.007 C 
ATOM     18  C   UNL     1       0.002  -0.004   0.002  0.00  0.00    +0.037 C 
ENDBRANCH   2  18
ENDBRANCH   1   5
BRANCH   1  19
ATOM     19  C   UNL     1      -3.756   2.880   1.656  0.00  0.00    +0.253 C 
ATOM     20  O   UNL     1      -2.685   3.243   1.216  0.00  0.00    -0.272 OA
ATOM     21  N   UNL     1      -4.524   3.739   2.354  0.00  0.00    -0.183 N 
ATOM     22  C   UNL     1      -4.188   5.141   2.650  0.00  0.00    +0.144 C 
ATOM     23  C   UNL     1      -5.399   5.641   3.462  0.00  0.00    +0.090 C 
ATOM     24  C   UNL     1      -6.310   4.436   3.538  0.00  0.00    +0.104 C 
ATOM     25  N   UNL     1      -5.769   3.447   2.909  0.00  0.00    -0.178 NA
BRANCH  24  26
ATOM     26  C   UNL     1      -7.610   4.399   4.215  0.00  0.00    +0.150 A 
ATOM     27  C   UNL     1      -8.441   3.319   4.297  0.00  0.00    +0.051 A 
ATOM     28  C   UNL     1      -9.567   3.731   5.032  0.00  0.00    +0.042 A 
ATOM     29  C   UNL     1      -9.376   5.025   5.361  0.00  0.00    +0.196 A 
ATOM     30  O   UNL     1      -8.190   5.424   4.871  0.00  0.00    -0.462 OA
ENDBRANCH  24  26
BRANCH  22  31
ATOM     31  C   UNL     1      -4.038   5.930   1.375  0.00  0.00    +0.013 A 
ATOM     32  C   UNL     1      -3.141   6.900   1.072  0.00  0.00    +0.013 A 
ATOM     33  C   UNL     1      -3.190   7.493  -0.175  0.00  0.00    +0.008 A 
ATOM     34  C   UNL     1      -4.134   7.088  -1.059  0.00  0.00    +0.045 A 
ATOM     35  S   UNL     1      -4.991   5.825  -0.131  0.00  0.00    -0.100 S 
ENDBRANCH  22  31
ENDBRANCH   1  19
TORSDOF 6
