REMARK  Name = ZINC12497938
REMARK  10 active torsions:
REMARK  status: ('A' for Active; 'I' for Inactive)
REMARK    1  A    between atoms: C_1  and  C_2
REMARK    2  A    between atoms: C_2  and  C_3
REMARK    3  A    between atoms: C_3  and  C_4
REMARK    4  A    between atoms: C_4  and  C_33
REMARK    5  A    between atoms: C_9  and  C_11
REMARK    6  A    between atoms: C_16  and  C_17
REMARK    7  A    between atoms: N_20  and  C_23
REMARK    8  A    between atoms: C_33  and  O_35
REMARK    9  A    between atoms: O_35  and  C_36
REMARK   10  A    between atoms: C_36  and  C_37
REMARK                            x       y       z     vdW  Elec       q    Type
REMARK                         _______ _______ _______ _____ _____    ______ ____
ROOT
ATOM      1  C   UNL     1       2.330   6.935   0.190  0.00  0.00    +0.044 C 
ATOM      2  C   UNL     1       1.824   5.628  -0.372  0.00  0.00    +0.086 C 
ATOM      3  C   UNL     1       0.436   5.591   0.382  0.00  0.00    +0.077 C 
ATOM      4  C   UNL     1      -0.088   6.948   0.081  0.00  0.00    -0.026 C 
ATOM      5  C   UNL     1       0.004   4.242   0.025  0.00  0.00    +0.229 C 
ATOM      6  O   UNL     1      -1.125   3.864  -0.208  0.00  0.00    -0.275 OA
ATOM      7  N   UNL     1       1.156   3.496   0.009  0.00  0.00    -0.210 N 
ATOM      8  C   UNL     1       2.285   4.272   0.008  0.00  0.00    +0.229 C 
ATOM      9  O   UNL     1       3.418   3.923   0.262  0.00  0.00    -0.275 OA
ATOM     10  N   UNL     1       1.127   7.812   0.067  0.00  0.00    +0.395 N 
ATOM     11  H   UNL     1       1.169   8.337  -0.814  0.00  0.00    -0.083 HD
ATOM     12  H   UNL     1       1.095   8.469   0.856  0.00  0.00    -0.083 HD
ENDROOT
BRANCH   7  13
ATOM     13  C   UNL     1       1.175   2.093   0.002  0.00  0.00    +0.048 A 
ATOM     14  C   UNL     1       2.386   1.415  -0.014  0.00  0.00    +0.028 A 
ATOM     15  C   UNL     1       2.406   0.034  -0.023  0.00  0.00    +0.051 A 
ATOM     16  C   UNL     1       1.216  -0.680  -0.016  0.00  0.00    +0.162 A 
ATOM     17  C   UNL     1       0.002  -0.004   0.002  0.00  0.00    +0.164 A 
ATOM     18  C   UNL     1      -0.017   1.382   0.010  0.00  0.00    +0.073 A 
ATOM     19  O   UNL     1      -1.175  -0.687   0.017  0.00  0.00    -0.485 OA
ATOM     20  C   UNL     1      -1.125  -2.066  -0.365  0.00  0.00    +0.270 C 
ATOM     21  C   UNL     1       0.058  -2.723   0.359  0.00  0.00    +0.270 C 
ATOM     22  O   UNL     1       1.256  -2.041  -0.029  0.00  0.00    -0.485 OA
ENDBRANCH   7  13
BRANCH   4  23
ATOM     23  C   UNL     1      -0.765   6.964  -1.265  0.00  0.00    -0.058 A 
ATOM     24  C   UNL     1      -0.062   7.358  -2.388  0.00  0.00    +0.002 A 
ATOM     25  C   UNL     1      -0.683   7.373  -3.623  0.00  0.00    +0.000 A 
ATOM     26  C   UNL     1      -2.007   6.993  -3.735  0.00  0.00    +0.000 A 
ATOM     27  C   UNL     1      -2.711   6.599  -2.612  0.00  0.00    +0.003 A 
ATOM     28  C   UNL     1      -2.088   6.580  -1.378  0.00  0.00    -0.049 A 
ATOM     29  C   UNL     1      -2.853   6.144  -0.154  0.00  0.00    +0.044 C 
ENDBRANCH   4  23
BRANCH   1  30
ATOM     30  C   UNL     1       2.733   6.777   1.634  0.00  0.00    +0.297 C 
ATOM     31  O   UNL     1       3.062   5.693   2.054  0.00  0.00    -0.252 OA
BRANCH  30  32
ATOM     32  O   UNL     1       2.726   7.840   2.453  0.00  0.00    -0.466 OA
BRANCH  32  33
ATOM     33  C   UNL     1       3.126   7.614   3.830  0.00  0.00    +0.228 C 
ATOM     34  C   UNL     1       3.056   8.932   4.604  0.00  0.00    +0.048 C 
ENDBRANCH  32  33
ENDBRANCH  30  32
ENDBRANCH   1  30
BRANCH   1  35
ATOM     35  C   UNL     1       3.494   7.472  -0.645  0.00  0.00    -0.001 C 
BRANCH  35  37
ATOM     36  C   UNL     1       5.145   9.332  -0.884  0.00  0.00    +0.004 C 
ATOM     37  C   UNL     1       3.981   8.794  -0.049  0.00  0.00    -0.004 C 
ENDBRANCH  35  37
ENDBRANCH   1  35
TORSDOF 7
