REMARK  Name = ZINC28568997
REMARK  10 active torsions:
REMARK  status: ('A' for Active; 'I' for Inactive)
REMARK    1  A    between atoms: C_1  and  C_2
REMARK    2  A    between atoms: C_5  and  S_18
REMARK    3  A    between atoms: C_6  and  N_8
REMARK    4  A    between atoms: N_8  and  C_9
REMARK    5  A    between atoms: C_10  and  C_17
REMARK    6  A    between atoms: C_12  and  C_16
REMARK    7  A    between atoms: C_14  and  C_15
REMARK    8  A    between atoms: S_18  and  C_21
REMARK    9  A    between atoms: C_24  and  C_27
REMARK   10  A    between atoms: C_27  and  O_28
REMARK                            x       y       z     vdW  Elec       q    Type
REMARK                         _______ _______ _______ _____ _____    ______ ____
ROOT
ATOM      1  C   UNL     1       6.018   3.257  -0.322  0.00  0.00    +0.065 C 
ATOM      2  C   UNL     1       6.055   1.777  -0.039  0.00  0.00    +0.040 A 
ATOM      3  C   UNL     1       7.262   1.167   0.237  0.00  0.00    +0.025 A 
ATOM      4  C   UNL     1       7.291  -0.197   0.498  0.00  0.00    +0.032 A 
ATOM      5  C   UNL     1       6.098  -0.898   0.476  0.00  0.00    +0.133 A 
ATOM      6  C   UNL     1       4.920  -0.220   0.185  0.00  0.00    +0.149 A 
ATOM      7  N   UNL     1       4.934   1.082  -0.058  0.00  0.00    -0.235 NA
ENDROOT
BRANCH   5   8
ATOM      8  S   UNL     1       6.074  -2.629   0.807  0.00  0.00    +0.028 S 
ATOM      9  O   UNL     1       5.229  -3.217  -0.172  0.00  0.00    -0.164 OA
ATOM     10  O   UNL     1       7.427  -3.027   0.984  0.00  0.00    -0.164 OA
BRANCH   8  11
ATOM     11  C   UNL     1       5.276  -2.851   2.362  0.00  0.00    +0.094 A 
ATOM     12  C   UNL     1       5.988  -2.683   3.535  0.00  0.00    +0.028 A 
ATOM     13  C   UNL     1       5.361  -2.853   4.755  0.00  0.00    +0.008 A 
ATOM     14  C   UNL     1       4.023  -3.200   4.802  0.00  0.00    -0.022 A 
ATOM     15  C   UNL     1       3.313  -3.373   3.629  0.00  0.00    +0.008 A 
ATOM     16  C   UNL     1       3.939  -3.199   2.409  0.00  0.00    +0.028 A 
BRANCH  14  17
ATOM     17  C   UNL     1       3.340  -3.389   6.131  0.00  0.00    +0.191 C 
BRANCH  17  18
ATOM     18  O   UNL     1       3.462  -4.753   6.540  0.00  0.00    -0.390 OA
ATOM     19  H   UNL     1       3.022  -5.084   7.492  0.00  0.00    +0.210 HD
ENDBRANCH  17  18
ENDBRANCH  14  17
ENDBRANCH   8  11
ENDBRANCH   5   8
BRANCH   6  20
ATOM     20  N   UNL     1       3.715  -0.913   0.155  0.00  0.00    -0.297 N 
ATOM     21  H   UNL     1       3.688  -1.981   0.418  0.00  0.00    +0.154 HD
BRANCH  20  22
ATOM     22  C   UNL     1       2.538  -0.254  -0.210  0.00  0.00    +0.038 A 
ATOM     23  C   UNL     1       2.431   0.338  -1.462  0.00  0.00    -0.029 A 
ATOM     24  C   UNL     1       1.266   0.988  -1.820  0.00  0.00    +0.008 A 
ATOM     25  C   UNL     1       0.207   1.051  -0.933  0.00  0.00    -0.050 A 
ATOM     26  C   UNL     1       0.310   0.463   0.314  0.00  0.00    +0.008 A 
ATOM     27  C   UNL     1       1.472  -0.189   0.678  0.00  0.00    -0.029 A 
ATOM     28  C   UNL     1       1.583  -0.830   2.038  0.00  0.00    +0.045 C 
ATOM     29  C   UNL     1      -1.060   1.767  -1.324  0.00  0.00    +0.044 C 
ATOM     30  C   UNL     1       3.584   0.270  -2.430  0.00  0.00    +0.045 C 
ENDBRANCH  20  22
ENDBRANCH   6  20
TORSDOF 6
