REMARK  Name = ZINC04667210
REMARK  5 active torsions:
REMARK  status: ('A' for Active; 'I' for Inactive)
REMARK    1  A    between atoms: C_1  and  O_2
REMARK    2  A    between atoms: O_2  and  C_3
REMARK    3  A    between atoms: C_5  and  S_10
REMARK    4  A    between atoms: S_10  and  N_13
REMARK    5  A    between atoms: N_13  and  C_14
REMARK                            x       y       z     vdW  Elec       q    Type
REMARK                         _______ _______ _______ _____ _____    ______ ____
ROOT
ATOM      1  S   UNL     1      -2.139   5.907  -1.246  0.00  0.00    +0.059 S 
ATOM      2  O   UNL     1      -1.538   7.134  -1.636  0.00  0.00    -0.153 OA
ATOM      3  O   UNL     1      -2.153   4.764  -2.089  0.00  0.00    -0.153 OA
ENDROOT
BRANCH   1   6
ATOM      4  C   UNL     1      -5.476   7.776  -0.004  0.00  0.00    +0.140 A 
ATOM      5  C   UNL     1      -4.153   7.490  -0.306  0.00  0.00    +0.075 A 
ATOM      6  C   UNL     1      -3.820   6.270  -0.861  0.00  0.00    +0.109 A 
ATOM      7  C   UNL     1      -4.805   5.335  -1.121  0.00  0.00    +0.030 A 
ATOM      8  C   UNL     1      -6.124   5.614  -0.816  0.00  0.00    +0.025 A 
ATOM      9  C   UNL     1      -6.463   6.834  -0.261  0.00  0.00    +0.083 A 
ATOM     10 CL   UNL     1      -8.120   7.187   0.116  0.00  0.00    -0.080 Cl
BRANCH   4  12
ATOM     11  C   UNL     1      -4.739   9.896   0.779  0.00  0.00    +0.277 C 
ATOM     12  O   UNL     1      -5.806   8.976   0.542  0.00  0.00    -0.494 OA
ENDBRANCH   4  12
ENDBRANCH   1   6
BRANCH   1  13
ATOM     13  N   UNL     1      -1.403   5.447   0.164  0.00  0.00    -0.184 NA
ATOM     14  H   UNL     1      -0.800   6.056   0.618  0.00  0.00    +0.149 HD
BRANCH  13  15
ATOM     15  C   UNL     1      -1.663   4.119   0.727  0.00  0.00    +0.041 C 
ATOM     16  C   UNL     1      -0.994   3.056  -0.147  0.00  0.00    +0.027 C 
ATOM     17  C   UNL     1      -1.265   1.669   0.441  0.00  0.00    -0.009 C 
ATOM     18  C   UNL     1      -0.696   1.596   1.859  0.00  0.00    +0.007 C 
ATOM     19  C   UNL     1      -1.364   2.660   2.732  0.00  0.00    -0.009 C 
ATOM     20  C   UNL     1      -1.093   4.046   2.145  0.00  0.00    +0.027 C 
ATOM     21  C   UNL     1      -2.873   2.410   2.775  0.00  0.00    +0.007 C 
ATOM     22  C   UNL     1      -3.442   2.483   1.357  0.00  0.00    -0.009 C 
ATOM     23  C   UNL     1      -2.774   1.420   0.483  0.00  0.00    +0.007 C 
ATOM     24  C   UNL     1      -3.171   3.870   0.769  0.00  0.00    +0.027 C 
ENDBRANCH  13  15
ENDBRANCH   1  13
TORSDOF 4
