REMARK  Name = ZINC07788564
REMARK  8 active torsions:
REMARK  status: ('A' for Active; 'I' for Inactive)
REMARK    1  A    between atoms: C_3  and  N_11
REMARK    2  A    between atoms: C_5  and  S_7
REMARK    3  A    between atoms: S_7  and  N_10
REMARK    4  A    between atoms: C_12  and  C_14
REMARK    5  A    between atoms: C_14  and  N_15
REMARK    6  A    between atoms: N_15  and  C_16
REMARK    7  A    between atoms: N_15  and  C_24
REMARK    8  A    between atoms: C_16  and  C_17
REMARK                            x       y       z     vdW  Elec       q    Type
REMARK                         _______ _______ _______ _____ _____    ______ ____
ROOT
ATOM      1  N   UNL     1       5.647   2.526   1.600  0.00  0.00    -0.287 N 
ATOM      2  C   UNL     1       5.210   3.785   1.399  0.00  0.00    +0.201 C 
ATOM      3  O   UNL     1       5.248   4.593   2.303  0.00  0.00    -0.278 OA
ATOM      4  H   UNL     1       5.688   1.903   0.859  0.00  0.00    +0.155 HD
ENDROOT
BRANCH   1   7
ATOM      5  C   UNL     1       5.794   2.228   5.262  0.00  0.00    +0.004 A 
ATOM      6  C   UNL     1       5.403   2.633   4.001  0.00  0.00    +0.023 A 
ATOM      7  C   UNL     1       6.041   2.119   2.880  0.00  0.00    +0.035 A 
ATOM      8  C   UNL     1       7.071   1.200   3.031  0.00  0.00    +0.051 A 
ATOM      9  C   UNL     1       7.457   0.800   4.295  0.00  0.00    +0.107 A 
ATOM     10  C   UNL     1       6.820   1.313   5.410  0.00  0.00    +0.028 A 
BRANCH   9  11
ATOM     11  S   UNL     1       8.764  -0.367   4.488  0.00  0.00    +0.056 S 
ATOM     12  O   UNL     1       8.570  -0.989   5.750  0.00  0.00    -0.153 OA
ATOM     13  O   UNL     1       8.830  -1.106   3.276  0.00  0.00    -0.153 OA
BRANCH  11  14
ATOM     14  N   UNL     1      10.176   0.493   4.596  0.00  0.00    -0.204 NA
ATOM     15  H   UNL     1      10.159   1.461   4.548  0.00  0.00    +0.144 HD
ATOM     16  H   UNL     1      11.019   0.027   4.707  0.00  0.00    +0.144 HD
ENDBRANCH  11  14
ENDBRANCH   9  11
ENDBRANCH   1   7
BRANCH   2  17
ATOM     17  C   UNL     1       4.673   4.189   0.050  0.00  0.00    +0.020 C 
BRANCH  17  18
ATOM     18  N   UNL     1       4.399   5.633   0.044  0.00  0.00    +0.390 N 
ATOM     19  H   UNL     1       3.804   5.865   0.825  0.00  0.00    -0.080 HD
BRANCH  18  20
ATOM     20  C   UNL     1       3.727   5.999  -1.210  0.00  0.00    -0.068 C 
ATOM     21  C   UNL     1       2.501   6.909  -1.114  0.00  0.00    -0.017 C 
ATOM     22  C   UNL     1       2.329   5.427  -1.455  0.00  0.00    -0.017 C 
ENDBRANCH  18  20
BRANCH  18  23
ATOM     23  C   UNL     1       5.664   6.372   0.156  0.00  0.00    -0.042 C 
BRANCH  23  24
ATOM     24  C   UNL     1       5.376   7.846   0.274  0.00  0.00    -0.064 A 
ATOM     25  C   UNL     1       5.282   8.625  -0.865  0.00  0.00    +0.004 A 
ATOM     26  C   UNL     1       5.018   9.977  -0.758  0.00  0.00    +0.038 A 
ATOM     27  C   UNL     1       4.846  10.552   0.490  0.00  0.00    +0.123 A 
ATOM     28  C   UNL     1       4.940   9.771   1.629  0.00  0.00    +0.038 A 
ATOM     29  C   UNL     1       5.199   8.418   1.520  0.00  0.00    +0.004 A 
ATOM     30  F   UNL     1       4.588  11.873   0.595  0.00  0.00    -0.205 F 
ENDBRANCH  23  24
ENDBRANCH  18  23
ENDBRANCH  17  18
ENDBRANCH   2  17
TORSDOF 8
