REMARK  Name = ZINC04618277
REMARK  5 active torsions:
REMARK  status: ('A' for Active; 'I' for Inactive)
REMARK    1  A    between atoms: C_1  and  C_2
REMARK    2  A    between atoms: C_5  and  C_19
REMARK    3  A    between atoms: C_6  and  N_8
REMARK    4  A    between atoms: N_8  and  S_9
REMARK    5  A    between atoms: S_9  and  C_12
REMARK                            x       y       z     vdW  Elec       q    Type
REMARK                         _______ _______ _______ _____ _____    ______ ____
ROOT
ATOM      1  N   UNL     1      -0.032   0.009  -2.411  0.00  0.00    -0.216 N 
ATOM      2  H   UNL     1       0.491   0.822  -2.499  0.00  0.00    +0.174 HD
ENDROOT
BRANCH   1   8
ATOM      3  C   UNL     1      -0.434  -4.077   0.289  0.00  0.00    +0.044 C 
ATOM      4  C   UNL     1      -0.374  -2.575   0.179  0.00  0.00    -0.049 A 
ATOM      5  C   UNL     1      -0.467  -1.794   1.316  0.00  0.00    +0.004 A 
ATOM      6  C   UNL     1      -0.413  -0.416   1.219  0.00  0.00    +0.005 A 
ATOM      7  C   UNL     1      -0.265   0.185  -0.015  0.00  0.00    -0.028 A 
ATOM      8  C   UNL     1      -0.176  -0.596  -1.161  0.00  0.00    +0.051 A 
ATOM      9  C   UNL     1      -0.226  -1.980  -1.059  0.00  0.00    +0.028 A 
ATOM     10  C   UNL     1      -0.207   1.688  -0.120  0.00  0.00    +0.046 C 
ENDBRANCH   1   8
BRANCH   1  11
ATOM     11  S   UNL     1      -0.754  -0.659  -3.743  0.00  0.00    +0.072 S 
ATOM     12  O   UNL     1      -0.539   0.244  -4.818  0.00  0.00    -0.150 OA
ATOM     13  O   UNL     1      -0.336  -2.017  -3.793  0.00  0.00    -0.150 OA
BRANCH  11  14
ATOM     14  C   UNL     1      -2.490  -0.678  -3.440  0.00  0.00    +0.109 A 
ATOM     15  C   UNL     1      -3.074  -1.774  -2.833  0.00  0.00    +0.030 A 
ATOM     16  C   UNL     1      -4.435  -1.787  -2.592  0.00  0.00    +0.017 A 
ATOM     17  C   UNL     1      -5.214  -0.708  -2.966  0.00  0.00    +0.018 A 
ATOM     18  C   UNL     1      -4.630   0.387  -3.578  0.00  0.00    +0.017 A 
ATOM     19  C   UNL     1      -3.268   0.401  -3.814  0.00  0.00    +0.030 A 
ATOM     20 BR   UNL     1      -7.077  -0.727  -2.641  0.00  0.00    -0.050 Br
ENDBRANCH  11  14
ENDBRANCH   1  11
TORSDOF 3
