REMARK  Name = ZINC06104054
REMARK  5 active torsions:
REMARK  status: ('A' for Active; 'I' for Inactive)
REMARK    1  A    between atoms: C_1  and  C_2
REMARK    2  A    between atoms: C_2  and  C_4
REMARK    3  A    between atoms: C_2  and  S_16
REMARK    4  A    between atoms: S_16  and  C_17
REMARK    5  A    between atoms: C_20  and  C_22
REMARK                            x       y       z     vdW  Elec       q    Type
REMARK                         _______ _______ _______ _____ _____    ______ ____
ROOT
ATOM      1  C   UNL     1       0.364  -4.743   1.409  0.00  0.00    +0.027 C 
ATOM      2  C   UNL     1       0.198  -4.232  -0.024  0.00  0.00    +0.119 C 
ENDROOT
BRANCH   2   3
ATOM      3  C   UNL     1       0.118  -2.727  -0.015  0.00  0.00    +0.124 A 
ATOM      4  N   UNL     1      -1.110  -2.147   0.001  0.00  0.00    -0.309 N 
ATOM      5  H   UNL     1      -1.929  -2.720   0.006  0.00  0.00    +0.170 HD
ATOM      6  C   UNL     1      -1.235  -0.799   0.009  0.00  0.00    +0.259 A 
ATOM      7  O   UNL     1      -2.329  -0.266   0.022  0.00  0.00    -0.267 OA
ATOM      8  C   UNL     1       0.002  -0.004   0.002  0.00  0.00    +0.065 A 
ATOM      9  C   UNL     1      -0.017   1.389   0.010  0.00  0.00    +0.015 A 
ATOM     10  C   UNL     1       1.173   2.084   0.002  0.00  0.00    +0.001 A 
ATOM     11  C   UNL     1       2.386   1.408  -0.013  0.00  0.00    +0.002 A 
ATOM     12  C   UNL     1       2.426   0.032  -0.021  0.00  0.00    +0.028 A 
ATOM     13  C   UNL     1       1.234  -0.695  -0.013  0.00  0.00    +0.078 A 
ATOM     14  N   UNL     1       1.227  -2.051  -0.021  0.00  0.00    -0.233 NA
ENDBRANCH   2   3
BRANCH   2  15
ATOM     15  S   UNL     1       1.617  -4.755  -1.019  0.00  0.00    -0.055 S 
BRANCH  15  16
ATOM     16  C   UNL     1       1.386  -6.501  -0.986  0.00  0.00    +0.278 A 
ATOM     17  N   UNL     1       0.420  -7.147  -0.379  0.00  0.00    -0.101 NA
ATOM     18  N   UNL     1       0.568  -8.411  -0.567  0.00  0.00    -0.111 NA
ATOM     19  C   UNL     1       1.625  -8.621  -1.296  0.00  0.00    +0.221 A 
ATOM     20  O   UNL     1       2.166  -7.421  -1.584  0.00  0.00    -0.415 OA
BRANCH  19  21
ATOM     21  C   UNL     1       2.147  -9.963  -1.741  0.00  0.00    +0.077 C 
ATOM     22  C   UNL     1       1.082 -10.671  -2.581  0.00  0.00    +0.013 C 
ATOM     23  C   UNL     1       1.612 -12.033  -3.034  0.00  0.00    +0.001 C 
ATOM     24  C   UNL     1       1.942 -12.885  -1.806  0.00  0.00    +0.000 C 
ATOM     25  C   UNL     1       3.007 -12.177  -0.966  0.00  0.00    +0.001 C 
ATOM     26  C   UNL     1       2.477 -10.815  -0.514  0.00  0.00    +0.013 C 
ENDBRANCH  19  21
ENDBRANCH  15  16
ENDBRANCH   2  15
TORSDOF 4
