REMARK  Name = ZINC14548277
REMARK  6 active torsions:
REMARK  status: ('A' for Active; 'I' for Inactive)
REMARK    1  A    between atoms: C_1  and  C_2
REMARK    2  A    between atoms: C_2  and  C_3
REMARK    3  A    between atoms: C_2  and  C_4
REMARK    4  A    between atoms: N_6  and  C_7
REMARK    5  A    between atoms: C_20  and  C_23
REMARK    6  A    between atoms: C_32  and  O_33
REMARK                            x       y       z     vdW  Elec       q    Type
REMARK                         _______ _______ _______ _____ _____    ______ ____
ROOT
ATOM      1  C   UNL     1       7.279   6.570   0.728  0.00  0.00    +0.034 A 
ATOM      2  C   UNL     1       6.943   7.063  -0.526  0.00  0.00    +0.025 A 
ATOM      3  C   UNL     1       5.675   6.865  -1.030  0.00  0.00    +0.025 A 
ATOM      4  C   UNL     1       4.724   6.171  -0.290  0.00  0.00    +0.031 A 
ATOM      5  C   UNL     1       5.071   5.665   0.968  0.00  0.00    -0.018 A 
ATOM      6  C   UNL     1       6.337   5.870   1.470  0.00  0.00    +0.029 A 
ATOM      7  C   UNL     1       4.035   4.914   1.710  0.00  0.00    +0.049 C 
ATOM      8  C   UNL     1       4.045   4.822   3.193  0.00  0.00    -0.023 C 
ATOM      9  C   UNL     1       2.791   4.731   3.620  0.00  0.00    -0.030 C 
ATOM     10  C   UNL     1       1.828   4.791   2.433  0.00  0.00    +0.033 C 
ATOM     11  C   UNL     1       2.656   5.571   1.403  0.00  0.00    +0.029 C 
ATOM     12  C   UNL     1       2.388   5.282  -0.063  0.00  0.00    +0.109 C 
ATOM     13  N   UNL     1       3.431   6.015  -0.811  0.00  0.00    -0.336 N 
ATOM     14  H   UNL     1       3.218   6.395  -1.678  0.00  0.00    +0.147 HD
ENDROOT
BRANCH  12  15
ATOM     15  C   UNL     1       2.497   3.803  -0.330  0.00  0.00    +0.022 A 
ATOM     16  C   UNL     1       1.391   2.963  -0.121  0.00  0.00    -0.009 A 
ATOM     17  C   UNL     1       0.165   3.474   0.338  0.00  0.00    +0.009 A 
ATOM     18  C   UNL     1      -0.886   2.631   0.530  0.00  0.00    +0.001 A 
ATOM     19  C   UNL     1      -0.768   1.266   0.273  0.00  0.00    +0.001 A 
ATOM     20  C   UNL     1       0.405   0.736  -0.167  0.00  0.00    +0.008 A 
ATOM     21  C   UNL     1       1.513   1.574  -0.378  0.00  0.00    -0.017 A 
ATOM     22  C   UNL     1       2.739   1.061  -0.838  0.00  0.00    +0.012 A 
ATOM     23  C   UNL     1       3.791   1.901  -1.031  0.00  0.00    +0.046 A 
ATOM     24  C   UNL     1       3.673   3.271  -0.778  0.00  0.00    +0.122 A 
BRANCH  24  25
ATOM     25  O   UNL     1       4.743   4.085  -0.981  0.00  0.00    -0.506 OA
ATOM     26  H   UNL     1       4.794   4.452  -1.874  0.00  0.00    +0.292 HD
ENDBRANCH  24  25
ENDBRANCH  12  15
BRANCH   1  29
ATOM     27  C   UNL     1       9.631   6.773   0.418  0.00  0.00    +0.220 C 
ATOM     28  O   UNL     1       9.469   6.672  -0.780  0.00  0.00    -0.275 OA
ATOM     29  N   UNL     1       8.566   6.778   1.243  0.00  0.00    -0.285 N 
ATOM     30  H   UNL     1       8.690   6.925   2.194  0.00  0.00    +0.155 HD
BRANCH  27  32
ATOM     31  C   UNL     1      11.289   5.727   1.936  0.00  0.00    +0.017 C 
ATOM     32  C   UNL     1      11.023   6.894   0.983  0.00  0.00    +0.069 C 
ATOM     33  C   UNL     1      12.041   6.862  -0.159  0.00  0.00    +0.017 C 
ENDBRANCH  27  32
ENDBRANCH   1  29
TORSDOF 4
