REMARK  Name = ZINC38687549
REMARK  11 active torsions:
REMARK  status: ('A' for Active; 'I' for Inactive)
REMARK    1  A    between atoms: C_1  and  C_2
REMARK    2  A    between atoms: C_2  and  C_3
REMARK    3  A    between atoms: C_3  and  C_4
REMARK    4  A    between atoms: C_4  and  O_5
REMARK    5  A    between atoms: O_5  and  C_6
REMARK    6  A    between atoms: C_9  and  C_12
REMARK    7  A    between atoms: C_17  and  O_26
REMARK    8  A    between atoms: C_21  and  N_25
REMARK    9  A    between atoms: C_22  and  C_23
REMARK   10  A    between atoms: O_26  and  C_27
REMARK   11  A    between atoms: C_27  and  C_29
REMARK                            x       y       z     vdW  Elec       q    Type
REMARK                         _______ _______ _______ _____ _____    ______ ____
ROOT
ATOM      1  C   UNL     1       1.909  -8.078   3.058  0.00  0.00    +0.098 C 
ATOM      2  C   UNL     1       3.365  -8.464   3.076  0.00  0.00    +0.008 A 
ATOM      3  C   UNL     1       4.051  -8.585   1.881  0.00  0.00    +0.012 A 
ATOM      4  C   UNL     1       5.387  -8.937   1.878  0.00  0.00    +0.047 A 
ATOM      5  C   UNL     1       6.044  -9.172   3.077  0.00  0.00    +0.135 A 
ATOM      6  C   UNL     1       5.359  -9.053   4.275  0.00  0.00    +0.093 A 
ATOM      7  C   UNL     1       4.017  -8.697   4.276  0.00  0.00    +0.138 A 
ATOM      8  O   UNL     1       3.361  -8.584   5.457  0.00  0.00    -0.441 OA
ATOM      9  C   UNL     1       2.018  -8.629   5.485  0.00  0.00    +0.199 C 
ATOM     10  C   UNL     1       1.274  -8.397   4.382  0.00  0.00    +0.098 C 
ENDROOT
BRANCH   1  14
ATOM     11  C   UNL     1       1.564  -3.888   2.295  0.00  0.00    +0.121 A 
ATOM     12  C   UNL     1       0.990  -4.802   1.423  0.00  0.00    +0.046 A 
ATOM     13  C   UNL     1       1.103  -6.156   1.672  0.00  0.00    +0.008 A 
ATOM     14  C   UNL     1       1.788  -6.600   2.788  0.00  0.00    -0.034 A 
ATOM     15  C   UNL     1       2.360  -5.691   3.659  0.00  0.00    +0.008 A 
ATOM     16  C   UNL     1       2.255  -4.336   3.411  0.00  0.00    +0.046 A 
BRANCH  11  17
ATOM     17  O   UNL     1       1.455  -2.555   2.052  0.00  0.00    -0.492 OA
BRANCH  17  18
ATOM     18  C   UNL     1       0.729  -2.166   0.884  0.00  0.00    +0.229 C 
BRANCH  18  19
ATOM     19  C   UNL     1       0.713  -0.639   0.779  0.00  0.00    +0.041 C 
BRANCH  19  21
ATOM     20  C   UNL     1      -0.080   1.304  -0.577  0.00  0.00    +0.004 C 
ATOM     21  C   UNL     1      -0.064  -0.223  -0.472  0.00  0.00    -0.000 C 
ENDBRANCH  19  21
ENDBRANCH  18  19
ENDBRANCH  17  18
ENDBRANCH  11  17
ENDBRANCH   1  14
BRANCH   9  22
ATOM     22  N   UNL     1       1.385  -8.917   6.669  0.00  0.00    -0.328 N 
ATOM     23  H   UNL     1       1.907  -9.085   7.469  0.00  0.00    +0.145 HD
ATOM     24  H   UNL     1       0.417  -8.952   6.705  0.00  0.00    +0.145 HD
ENDBRANCH   9  22
BRANCH  10  25
ATOM     25  C   UNL     1      -0.153  -8.457   4.479  0.00  0.00    +0.101 C 
ATOM     26  N   UNL     1      -1.286  -8.506   4.556  0.00  0.00    -0.191 NA
ENDBRANCH  10  25
BRANCH   5  27
ATOM     27  O   UNL     1       7.358  -9.520   3.076  0.00  0.00    -0.423 OA
BRANCH  27  28
ATOM     28  C   UNL     1       7.679 -10.772   3.441  0.00  0.00    +0.357 C 
ATOM     29  O   UNL     1       6.808 -11.581   3.656  0.00  0.00    -0.246 OA
BRANCH  28  30
ATOM     30  C   UNL     1       9.127 -11.168   3.581  0.00  0.00    +0.319 C 
ATOM     31  C   UNL     1       9.766 -10.389   4.738  0.00  0.00    +0.285 C 
ATOM     32  O   UNL     1      11.133 -10.799   4.853  0.00  0.00    -0.484 OA
ATOM     33  C   UNL     1      11.376 -12.138   4.814  0.00  0.00    +0.162 A 
ATOM     34  C   UNL     1      12.591 -12.623   5.273  0.00  0.00    +0.049 A 
ATOM     35  C   UNL     1      12.853 -13.980   5.238  0.00  0.00    +0.004 A 
ATOM     36  C   UNL     1      11.905 -14.857   4.745  0.00  0.00    +0.004 A 
ATOM     37  C   UNL     1      10.691 -14.380   4.288  0.00  0.00    +0.049 A 
ATOM     38  C   UNL     1      10.421 -13.020   4.322  0.00  0.00    +0.163 A 
ATOM     39  O   UNL     1       9.218 -12.566   3.875  0.00  0.00    -0.470 OA
ENDBRANCH  28  30
ENDBRANCH  27  28
ENDBRANCH   5  27
TORSDOF 10
