REMARK  Name = ZINC12309502
REMARK  13 active torsions:
REMARK  status: ('A' for Active; 'I' for Inactive)
REMARK    1  A    between atoms: C_1  and  C_2
REMARK    2  A    between atoms: C_2  and  C_3
REMARK    3  A    between atoms: C_9  and  N_10
REMARK    4  A    between atoms: N_10  and  O_11
REMARK    5  A    between atoms: O_11  and  C_12
REMARK    6  A    between atoms: C_12  and  C_13
REMARK    7  A    between atoms: N_15  and  C_16
REMARK    8  A    between atoms: C_19  and  C_22
REMARK    9  A    between atoms: C_22  and  O_24
REMARK   10  A    between atoms: O_24  and  C_25
REMARK   11  A    between atoms: C_25  and  C_26
REMARK   12  A    between atoms: N_29  and  C_34
REMARK   13  A    between atoms: N_32  and  C_33
REMARK                            x       y       z     vdW  Elec       q    Type
REMARK                         _______ _______ _______ _____ _____    ______ ____
ROOT
ATOM      1  N   UNL     1      -1.050   6.178   0.726  0.00  0.00    -0.264 N 
ATOM      2  H   UNL     1      -1.024   7.273   0.629  0.00  0.00    +0.194 HD
ENDROOT
BRANCH   1   9
ATOM      3  C   UNL     1       1.367   6.103   1.032  0.00  0.00    -0.006 A 
ATOM      4  C   UNL     1       2.425   5.300   1.227  0.00  0.00    +0.090 A 
ATOM      5  N   UNL     1       2.326   3.938   1.126  0.00  0.00    -0.347 N 
ATOM      6  H   UNL     1       3.134   3.297   1.512  0.00  0.00    +0.167 HD
ATOM      7  C   UNL     1       1.250   3.332   0.558  0.00  0.00    +0.129 A 
ATOM      8  C   UNL     1       0.088   4.061   0.324  0.00  0.00    +0.106 A 
ATOM      9  C   UNL     1       0.068   5.488   0.696  0.00  0.00    +0.082 A 
ATOM     10  C   UNL     1      -1.030   3.421  -0.260  0.00  0.00    +0.268 A 
ATOM     11  O   UNL     1      -2.058   4.038  -0.470  0.00  0.00    -0.267 OA
ATOM     12  N   UNL     1      -0.934   2.113  -0.583  0.00  0.00    -0.263 N 
ATOM     13  C   UNL     1       0.198   1.427  -0.346  0.00  0.00    +0.333 A 
ATOM     14  O   UNL     1       0.248   0.251  -0.647  0.00  0.00    -0.246 OA
ATOM     15  N   UNL     1       1.278   2.006   0.209  0.00  0.00    -0.282 N 
ATOM     16  C   UNL     1       2.490   1.216   0.442  0.00  0.00    +0.155 C 
ATOM     17  C   UNL     1      -2.079   1.432  -1.194  0.00  0.00    +0.157 C 
BRANCH   3  19
ATOM     18  C   UNL     1       1.872   8.191  -0.205  0.00  0.00    +0.009 C 
ATOM     19  C   UNL     1       1.503   7.599   1.156  0.00  0.00    +0.035 C 
ENDBRANCH   3  19
ENDBRANCH   1   9
BRANCH   1  20
ATOM     20  O   UNL     1      -2.290   5.511   0.882  0.00  0.00    -0.265 OA
BRANCH  20  21
ATOM     21  C   UNL     1      -3.421   6.383   0.897  0.00  0.00    +0.288 C 
BRANCH  21  22
ATOM     22  C   UNL     1      -4.679   5.571   1.067  0.00  0.00    +0.246 C 
ATOM     23  O   UNL     1      -4.613   4.364   1.166  0.00  0.00    -0.273 OA
ATOM     24  N   UNL     1      -5.878   6.186   1.110  0.00  0.00    -0.284 N 
ATOM     25  H   UNL     1      -5.945   7.271   0.946  0.00  0.00    +0.155 HD
BRANCH  24  26
ATOM     26  C   UNL     1      -7.032   5.446   1.363  0.00  0.00    +0.033 A 
ATOM     27  C   UNL     1      -7.152   4.154   0.862  0.00  0.00    +0.024 A 
ATOM     28  C   UNL     1      -8.288   3.419   1.114  0.00  0.00    +0.017 A 
ATOM     29  C   UNL     1      -9.327   3.976   1.864  0.00  0.00    +0.059 A 
ATOM     30  C   UNL     1      -9.206   5.277   2.361  0.00  0.00    +0.017 A 
ATOM     31  C   UNL     1      -8.065   6.005   2.110  0.00  0.00    +0.024 A 
BRANCH  29  32
ATOM     32  C   UNL     1     -10.548   3.194   2.132  0.00  0.00    +0.339 C 
ATOM     33  O   UNL     1     -11.451   3.680   2.784  0.00  0.00    -0.245 OA
BRANCH  32  34
ATOM     34  O   UNL     1     -10.664   1.940   1.652  0.00  0.00    -0.461 OA
BRANCH  34  35
ATOM     35  C   UNL     1     -11.893   1.229   1.954  0.00  0.00    +0.229 C 
ATOM     36  C   UNL     1     -11.841  -0.167   1.331  0.00  0.00    +0.048 C 
ENDBRANCH  34  35
ENDBRANCH  32  34
ENDBRANCH  29  32
ENDBRANCH  24  26
ENDBRANCH  21  22
ENDBRANCH  20  21
ENDBRANCH   1  20
TORSDOF 9
