REMARK  Name = ZINC59719381
REMARK  8 active torsions:
REMARK  status: ('A' for Active; 'I' for Inactive)
REMARK    1  A    between atoms: C_1  and  C_2
REMARK    2  A    between atoms: C_2  and  C_4
REMARK    3  A    between atoms: N_6  and  C_28
REMARK    4  A    between atoms: C_7  and  C_12
REMARK    5  A    between atoms: N_10  and  C_11
REMARK    6  A    between atoms: C_17  and  O_18
REMARK    7  A    between atoms: O_18  and  C_19
REMARK    8  A    between atoms: C_19  and  C_20
REMARK                            x       y       z     vdW  Elec       q    Type
REMARK                         _______ _______ _______ _____ _____    ______ ____
ROOT
ATOM      1  C   UNL     1      -0.795  -1.213  -0.979  0.00  0.00    +0.195 C 
ATOM      2  N   UNL     1      -0.903  -0.284  -1.897  0.00  0.00    -0.158 NA
ATOM      3  N   UNL     1      -0.204  -0.432  -3.109  0.00  0.00    -0.199 N 
ATOM      4  C   UNL     1       0.874  -1.432  -3.170  0.00  0.00    +0.215 C 
ATOM      5  N   UNL     1       0.400  -2.647  -2.481  0.00  0.00    -0.213 NA
ATOM      6  N   UNL     1       0.019  -2.332  -1.201  0.00  0.00    -0.248 N 
ATOM      7  C   UNL     1       0.454  -3.162  -0.075  0.00  0.00    +0.151 C 
ATOM      8  H   UNL     1       1.111  -3.363  -2.479  0.00  0.00    +0.147 HD
ENDROOT
BRANCH   3   9
ATOM      9  C   UNL     1      -0.524   0.346  -4.221  0.00  0.00    +0.054 A 
ATOM     10  C   UNL     1       0.174   0.181  -5.411  0.00  0.00    +0.026 A 
ATOM     11  C   UNL     1      -0.145   0.953  -6.511  0.00  0.00    +0.022 A 
ATOM     12  C   UNL     1      -1.159   1.891  -6.428  0.00  0.00    +0.041 A 
ATOM     13  C   UNL     1      -1.857   2.059  -5.245  0.00  0.00    +0.022 A 
ATOM     14  C   UNL     1      -1.546   1.285  -4.144  0.00  0.00    +0.026 A 
ATOM     15 CL   UNL     1      -1.558   2.860  -7.813  0.00  0.00    -0.084 Cl
ENDBRANCH   3   9
BRANCH   4  16
ATOM     16  C   UNL     1       2.104  -0.900  -2.480  0.00  0.00    +0.032 A 
ATOM     17  C   UNL     1       1.984   0.073  -1.506  0.00  0.00    +0.010 A 
ATOM     18  C   UNL     1       3.112   0.562  -0.873  0.00  0.00    +0.001 A 
ATOM     19  C   UNL     1       4.362   0.079  -1.213  0.00  0.00    +0.004 A 
ATOM     20  C   UNL     1       4.487  -0.893  -2.186  0.00  0.00    +0.046 A 
ATOM     21  C   UNL     1       3.356  -1.390  -2.819  0.00  0.00    +0.127 A 
BRANCH  21  22
ATOM     22  O   UNL     1       3.476  -2.350  -3.772  0.00  0.00    -0.487 OA
BRANCH  22  23
ATOM     23  C   UNL     1       4.797  -2.808  -4.070  0.00  0.00    +0.266 C 
BRANCH  23  24
ATOM     24  C   UNL     1       4.733  -3.864  -5.143  0.00  0.00    +0.008 A 
ATOM     25  C   UNL     1       3.512  -4.235  -5.676  0.00  0.00    +0.010 A 
ATOM     26  C   UNL     1       3.453  -5.204  -6.659  0.00  0.00    +0.020 A 
ATOM     27  C   UNL     1       4.615  -5.803  -7.112  0.00  0.00    +0.042 A 
ATOM     28  C   UNL     1       5.837  -5.432  -6.580  0.00  0.00    +0.040 A 
ATOM     29  C   UNL     1       5.896  -4.459  -5.598  0.00  0.00    +0.049 A 
ATOM     30 CL   UNL     1       7.429  -3.989  -4.934  0.00  0.00    -0.083 Cl
ATOM     31 CL   UNL     1       4.540  -7.021  -8.347  0.00  0.00    -0.083 Cl
ENDBRANCH  23  24
ENDBRANCH  22  23
ENDBRANCH  21  22
ENDBRANCH   4  16
BRANCH   1  33
ATOM     32  C   UNL     1      -2.259   0.183   0.543  0.00  0.00    +0.095 C 
ATOM     33  C   UNL     1      -1.498  -1.083   0.243  0.00  0.00    +0.195 C 
ATOM     34  O   UNL     1      -1.487  -1.991   1.050  0.00  0.00    -0.289 OA
ENDBRANCH   1  33
TORSDOF 6
