REMARK  Name = ZINC64002129
REMARK  7 active torsions:
REMARK  status: ('A' for Active; 'I' for Inactive)
REMARK    1  A    between atoms: C_1  and  C_2
REMARK    2  A    between atoms: C_2  and  N_3
REMARK    3  A    between atoms: C_6  and  C_8
REMARK    4  A    between atoms: C_17  and  N_21
REMARK    5  A    between atoms: N_21  and  C_22
REMARK    6  A    between atoms: C_22  and  C_23
REMARK    7  A    between atoms: C_23  and  C_24
REMARK                            x       y       z     vdW  Elec       q    Type
REMARK                         _______ _______ _______ _____ _____    ______ ____
ROOT
ATOM      1  N   UNL     1       0.717  -0.266  -1.290  0.00  0.00    -0.268 N 
ATOM      2  C   UNL     1       0.085  -0.776  -2.360  0.00  0.00    +0.043 A 
ATOM      3  C   UNL     1       1.032  -1.312  -3.168  0.00  0.00    +0.004 A 
ATOM      4  C   UNL     1       2.260  -1.092  -2.522  0.00  0.00    +0.151 A 
ATOM      5  N   UNL     1       1.987  -0.451  -1.398  0.00  0.00    -0.166 NA
ATOM      6  C   UNL     1       0.751  -1.994  -4.478  0.00  0.00    +0.023 C 
ATOM      7  C   UNL     1      -0.744  -2.333  -4.534  0.00  0.00    -0.067 C 
ATOM      8  C   UNL     1      -1.564  -1.093  -4.165  0.00  0.00    -0.009 C 
ATOM      9  C   UNL     1      -1.389  -0.785  -2.673  0.00  0.00    +0.054 C 
ENDROOT
BRANCH   4  10
ATOM     10  C   UNL     1       3.597  -1.492  -3.007  0.00  0.00    +0.267 C 
ATOM     11  O   UNL     1       3.722  -1.972  -4.116  0.00  0.00    -0.268 OA
ATOM     12  N   UNL     1       4.677  -1.325  -2.219  0.00  0.00    -0.292 N 
ATOM     13  C   UNL     1       4.535  -0.887  -0.821  0.00  0.00    +0.136 C 
ATOM     14  C   UNL     1       5.333  -1.847   0.070  0.00  0.00    +0.179 C 
ATOM     15  O   UNL     1       6.668  -1.953  -0.430  0.00  0.00    -0.377 OA
ATOM     16  C   UNL     1       6.759  -2.502  -1.747  0.00  0.00    +0.179 C 
ATOM     17  C   UNL     1       6.034  -1.581  -2.729  0.00  0.00    +0.136 C 
ENDBRANCH   4  10
BRANCH   7  18
ATOM     18  N   UNL     1      -1.098  -2.767  -5.892  0.00  0.00    +0.381 N 
ATOM     19  H   UNL     1      -0.974  -1.998  -6.534  0.00  0.00    -0.086 HD
ATOM     20  H   UNL     1      -0.501  -3.533  -6.166  0.00  0.00    -0.086 HD
BRANCH  18  21
ATOM     21  C   UNL     1      -2.500  -3.205  -5.917  0.00  0.00    -0.078 C 
BRANCH  21  22
ATOM     22  C   UNL     1      -2.868  -3.658  -7.332  0.00  0.00    +0.014 C 
BRANCH  22  23
ATOM     23  C   UNL     1      -4.306  -4.107  -7.357  0.00  0.00    -0.043 C 
ATOM     24  C   UNL     1      -5.383  -3.368  -7.708  0.00  0.00    -0.001 A 
ATOM     25  C   UNL     1      -5.532  -1.977  -8.153  0.00  0.00    +0.010 A 
ATOM     26  C   UNL     1      -6.768  -1.509  -8.438  0.00  0.00    +0.001 A 
ATOM     27  C   UNL     1      -7.908  -2.316  -8.319  0.00  0.00    +0.002 A 
ATOM     28  C   UNL     1      -7.851  -3.603  -7.917  0.00  0.00    +0.026 A 
ATOM     29  C   UNL     1      -6.601  -4.200  -7.591  0.00  0.00    +0.043 A 
ATOM     30  N   UNL     1      -6.290  -5.407  -7.184  0.00  0.00    -0.380 N 
ATOM     31  C   UNL     1      -4.836  -5.478  -7.002  0.00  0.00    +0.144 C 
ATOM     32  H   UNL     1      -6.916  -6.132  -7.032  0.00  0.00    +0.160 HD
ENDBRANCH  22  23
ENDBRANCH  21  22
ENDBRANCH  18  21
ENDBRANCH   7  18
BRANCH   1  34
ATOM     33  C   UNL     1      -0.044   1.905  -0.460  0.00  0.00    +0.029 C 
ATOM     34  C   UNL     1       0.058   0.407  -0.167  0.00  0.00    +0.140 C 
ENDBRANCH   1  34
TORSDOF 6
