REMARK  Name = ZINC28994852
REMARK  10 active torsions:
REMARK  status: ('A' for Active; 'I' for Inactive)
REMARK    1  A    between atoms: C_1  and  C_2
REMARK    2  A    between atoms: C_2  and  C_4
REMARK    3  A    between atoms: C_2  and  N_14
REMARK    4  A    between atoms: C_15  and  C_17
REMARK    5  A    between atoms: C_17  and  C_18
REMARK    6  A    between atoms: C_18  and  N_19
REMARK    7  A    between atoms: N_19  and  C_20
REMARK    8  A    between atoms: C_23  and  S_29
REMARK    9  A    between atoms: C_25  and  N_26
REMARK   10  A    between atoms: S_29  and  N_32
REMARK                            x       y       z     vdW  Elec       q    Type
REMARK                         _______ _______ _______ _____ _____    ______ ____
ROOT
ATOM      1  C   UNL     1      -4.365  -0.541  -2.487  0.00  0.00    +0.111 C 
ENDROOT
BRANCH   1   2
ATOM      2  N   UNL     1      -5.634  -1.272  -2.512  0.00  0.00    -0.342 N 
ATOM      3  H   UNL     1      -6.077  -1.504  -1.681  0.00  0.00    +0.146 HD
BRANCH   2   4
ATOM      4  C   UNL     1      -6.207  -1.634  -3.733  0.00  0.00    +0.058 A 
ATOM      5  C   UNL     1      -5.641  -1.199  -4.925  0.00  0.00    +0.027 A 
ATOM      6  C   UNL     1      -6.209  -1.559  -6.130  0.00  0.00    +0.030 A 
ATOM      7  C   UNL     1      -7.342  -2.353  -6.152  0.00  0.00    +0.107 A 
ATOM      8  C   UNL     1      -7.909  -2.788  -4.968  0.00  0.00    +0.063 A 
ATOM      9  C   UNL     1      -7.341  -2.436  -3.759  0.00  0.00    +0.149 A 
BRANCH   9  10
ATOM     10  N   UNL     1      -7.945  -2.906  -2.493  0.00  0.00    +0.058 N 
ATOM     11  O   UNL     1      -7.236  -3.221  -1.565  0.00  0.00    -0.126 OA
ATOM     12  O   UNL     1      -9.147  -2.976  -2.385  0.00  0.00    -0.126 OA
ENDBRANCH   9  10
BRANCH   7  13
ATOM     13  S   UNL     1      -8.064  -2.811  -7.693  0.00  0.00    +0.056 S 
ATOM     14  O   UNL     1      -9.430  -3.104  -7.430  0.00  0.00    -0.153 OA
ATOM     15  O   UNL     1      -7.665  -1.827  -8.637  0.00  0.00    -0.153 OA
BRANCH  13  16
ATOM     16  N   UNL     1      -7.357  -4.232  -8.162  0.00  0.00    -0.204 NA
ATOM     17  H   UNL     1      -6.678  -4.644  -7.604  0.00  0.00    +0.144 HD
ATOM     18  H   UNL     1      -7.622  -4.654  -8.995  0.00  0.00    +0.144 HD
ENDBRANCH  13  16
ENDBRANCH   7  13
ENDBRANCH   2   4
ENDBRANCH   1   2
BRANCH   1  19
ATOM     19  C   UNL     1      -3.961  -0.270  -1.036  0.00  0.00    +0.114 C 
BRANCH  19  21
ATOM     20  N   UNL     1      -2.102   0.832   0.168  0.00  0.00    -0.312 N 
ATOM     21  C   UNL     1      -2.655   0.482  -1.010  0.00  0.00    +0.215 C 
ATOM     22  O   UNL     1      -2.102   0.772  -2.050  0.00  0.00    -0.276 OA
ATOM     23  H   UNL     1      -2.545   0.599   1.000  0.00  0.00    +0.149 HD
BRANCH  20  25
ATOM     24  C   UNL     1      -1.104   3.061   0.043  0.00  0.00    +0.028 C 
ATOM     25  C   UNL     1      -0.833   1.562   0.193  0.00  0.00    +0.076 C 
BRANCH  25  26
ATOM     26  C   UNL     1      -0.122   1.304   1.523  0.00  0.00    -0.010 C 
ATOM     27  C   UNL     1       0.149  -0.195   1.674  0.00  0.00    +0.012 C 
ATOM     28  C   UNL     1       0.860  -0.453   3.003  0.00  0.00    -0.010 C 
ATOM     29  C   UNL     1       2.186   0.310   3.030  0.00  0.00    +0.007 C 
ATOM     30  C   UNL     1       1.915   1.808   2.879  0.00  0.00    -0.010 C 
ATOM     31  C   UNL     1       1.204   2.067   1.550  0.00  0.00    +0.012 C 
ATOM     32  C   UNL     1       1.030   2.284   4.032  0.00  0.00    +0.007 C 
ATOM     33  C   UNL     1      -0.296   1.521   4.006  0.00  0.00    -0.010 C 
ATOM     34  C   UNL     1      -0.025   0.023   4.157  0.00  0.00    +0.007 C 
ATOM     35  C   UNL     1      -1.007   1.780   2.676  0.00  0.00    +0.012 C 
ENDBRANCH  25  26
ENDBRANCH  20  25
ENDBRANCH  19  21
ENDBRANCH   1  19
TORSDOF 9
