REMARK  Name = ZINC21657769
REMARK  4 active torsions:
REMARK  status: ('A' for Active; 'I' for Inactive)
REMARK    1  A    between atoms: C_1  and  C_2
REMARK    2  A    between atoms: CA_10  and  C_12
REMARK    3  A    between atoms: N_15  and  C_16
REMARK    4  A    between atoms: C_19  and  C_23
REMARK                            x       y       z     vdW  Elec       q    Type
REMARK                         _______ _______ _______ _____ _____    ______ ____
ROOT
ATOM      1  C   UNL     1      -2.486   0.828   0.587  0.00  0.00    +0.044 C 
ATOM      2  C   UNL     1      -1.194   1.572   0.812  0.00  0.00    -0.050 A 
ATOM      3  C   UNL     1      -1.229   2.876   1.302  0.00  0.00    +0.005 A 
ATOM      4  C   UNL     1      -0.082   3.577   1.512  0.00  0.00    +0.026 A 
ATOM      5  C   UNL     1       1.163   2.980   1.236  0.00  0.00    +0.049 A 
ATOM      6  C   UNL     1       1.193   1.651   0.741  0.00  0.00    +0.022 A 
ATOM      7  C   UNL     1      -0.009   0.959   0.538  0.00  0.00    +0.015 A 
ATOM      8  C   UNL     1       2.443   1.049   0.463  0.00  0.00    +0.051 A 
ATOM      9  C   UNL     1       3.589   1.795   0.689  0.00  0.00    +0.059 A 
ATOM     10  CA  UNL     1       3.477   3.100   1.178  0.00  0.00    +0.131 A 
ATOM     11  N   UNL     1       2.301   3.646   1.433  0.00  0.00    -0.349 N 
ATOM     12  N   UNL     1       2.519  -0.248  -0.022  0.00  0.00    -0.354 N 
ATOM     13  H   UNL     1       2.276   4.676   1.816  0.00  0.00    +0.166 HD
ATOM     14  H   UNL     1       1.601  -0.781  -0.313  0.00  0.00    +0.166 HD
ENDROOT
BRANCH  12  15
ATOM     15  C   UNL     1       3.760  -0.878  -0.142  0.00  0.00    +0.041 A 
ATOM     16  C   UNL     1       4.045  -1.649  -1.262  0.00  0.00    +0.026 A 
ATOM     17  C   UNL     1       5.274  -2.266  -1.381  0.00  0.00    +0.007 A 
ATOM     18  C   UNL     1       6.220  -2.125  -0.381  0.00  0.00    -0.032 A 
ATOM     19  C   UNL     1       5.938  -1.362   0.739  0.00  0.00    +0.046 A 
ATOM     20  C   UNL     1       4.711  -0.738   0.861  0.00  0.00    +0.046 A 
ATOM     21 CL   UNL     1       7.128  -1.189   1.991  0.00  0.00    -0.083 Cl
ATOM     22  C   UNL     1       7.559  -2.804  -0.511  0.00  0.00    +0.045 C 
ENDBRANCH  12  15
BRANCH  10  23
ATOM     23  C   UNL     1       4.708   3.890   1.418  0.00  0.00    +0.402 C 
ATOM     24  O   UNL     1       5.796   3.403   1.190  0.00  0.00    -0.239 OA
ATOM     25  OXT UNL     1       4.619   5.149   1.889  0.00  0.00    -0.239 OA
ENDBRANCH  10  23
TORSDOF 2
