REMARK  Name = ZINC45621000
REMARK  6 active torsions:
REMARK  status: ('A' for Active; 'I' for Inactive)
REMARK    1  A    between atoms: C_1  and  C_2
REMARK    2  A    between atoms: C_2  and  C_22
REMARK    3  A    between atoms: N_5  and  C_9
REMARK    4  A    between atoms: C_9  and  C_10
REMARK    5  A    between atoms: N_12  and  C_13
REMARK    6  A    between atoms: C_16  and  N_20
REMARK                            x       y       z     vdW  Elec       q    Type
REMARK                         _______ _______ _______ _____ _____    ______ ____
ROOT
ATOM      1  C   UNL     1      -2.586  -3.390   1.258  0.00  0.00    +0.235 C 
ATOM      2  O   UNL     1      -1.713  -3.756   0.499  0.00  0.00    -0.274 OA
ATOM      3  N   UNL     1      -3.573  -4.239   1.608  0.00  0.00    -0.284 N 
ATOM      4  H   UNL     1      -4.233  -3.970   2.266  0.00  0.00    +0.155 HD
ENDROOT
BRANCH   3   5
ATOM      5  C   UNL     1      -3.646  -5.509   1.020  0.00  0.00    +0.036 A 
ATOM      6  C   UNL     1      -4.883  -6.080   0.753  0.00  0.00    +0.045 A 
ATOM      7  C   UNL     1      -4.956  -7.332   0.173  0.00  0.00    +0.065 A 
ATOM      8  C   UNL     1      -3.791  -8.020  -0.141  0.00  0.00    +0.062 A 
ATOM      9  C   UNL     1      -2.553  -7.449   0.127  0.00  0.00    +0.065 A 
ATOM     10  C   UNL     1      -2.482  -6.194   0.701  0.00  0.00    +0.045 A 
ATOM     11 CL   UNL     1      -1.097  -8.308  -0.266  0.00  0.00    -0.082 Cl
ATOM     12 CL   UNL     1      -6.503  -8.046  -0.161  0.00  0.00    -0.082 Cl
BRANCH   8  13
ATOM     13  N   UNL     1      -3.864  -9.290  -0.728  0.00  0.00    -0.356 N 
ATOM     14  H   UNL     1      -4.728  -9.689  -0.915  0.00  0.00    +0.142 HD
ATOM     15  H   UNL     1      -3.051  -9.770  -0.948  0.00  0.00    +0.142 HD
ENDBRANCH   8  13
ENDBRANCH   3   5
BRANCH   1  16
ATOM     16  C   UNL     1      -2.566  -1.988   1.811  0.00  0.00    +0.214 C 
BRANCH  16  21
ATOM     17  C   UNL     1      -0.022   1.530   0.019  0.00  0.00    +0.042 C 
ATOM     18  C   UNL     1      -0.003   0.000   0.003  0.00  0.00    +0.113 C 
ATOM     19  C   UNL     1      -1.407  -0.552   0.145  0.00  0.00    +0.247 C 
ATOM     20  O   UNL     1      -2.341  -0.382  -0.609  0.00  0.00    -0.273 OA
ATOM     21  N   UNL     1      -1.401  -1.272   1.284  0.00  0.00    -0.215 N 
ATOM     22  C   UNL     1      -0.201  -1.252   1.875  0.00  0.00    +0.310 C 
ATOM     23  O   UNL     1       0.050  -1.829   2.915  0.00  0.00    -0.252 OA
ATOM     24  N   UNL     1       0.697  -0.522   1.190  0.00  0.00    -0.285 N 
ATOM     25  H   UNL     1       1.624  -0.369   1.430  0.00  0.00    +0.151 HD
BRANCH  18  26
ATOM     26  C   UNL     1       0.655  -0.515  -1.279  0.00  0.00    +0.021 C 
ATOM     27  C   UNL     1       1.789  -1.531  -1.133  0.00  0.00    +0.006 C 
ATOM     28  C   UNL     1       2.100  -0.093  -1.551  0.00  0.00    +0.006 C 
ENDBRANCH  18  26
ENDBRANCH  16  21
ENDBRANCH   1  16
TORSDOF 5
