REMARK  Name = ZINC63600808
REMARK  4 active torsions:
REMARK  status: ('A' for Active; 'I' for Inactive)
REMARK    1  A    between atoms: C_1  and  C_2
REMARK    2  A    between atoms: N_4  and  C_5
REMARK    3  A    between atoms: C_11  and  N_15
REMARK    4  A    between atoms: C_16  and  C_18
REMARK                            x       y       z     vdW  Elec       q    Type
REMARK                         _______ _______ _______ _____ _____    ______ ____
ROOT
ATOM      1  C   UNL     1      -1.050  -2.339  -0.086  0.00  0.00    +0.224 C 
ATOM      2  N   UNL     1      -2.454  -2.728  -0.273  0.00  0.00    -0.316 N 
ATOM      3  C   UNL     1      -3.047  -3.502   0.727  0.00  0.00    +0.043 A 
ATOM      4  C   UNL     1      -4.375  -3.966   0.721  0.00  0.00    +0.026 A 
ATOM      5  C   UNL     1      -4.871  -4.723   1.756  0.00  0.00    +0.025 A 
ATOM      6  C   UNL     1      -4.075  -5.056   2.844  0.00  0.00    +0.035 A 
ATOM      7  C   UNL     1      -2.759  -4.610   2.874  0.00  0.00    +0.040 A 
ATOM      8  C   UNL     1      -2.269  -3.852   1.835  0.00  0.00    +0.034 A 
ATOM      9  S   UNL     1      -0.675  -3.121   1.534  0.00  0.00    -0.082 S 
ATOM     10  H   UNL     1      -2.950  -2.458  -1.061  0.00  0.00    +0.149 HD
ENDROOT
BRANCH   1  14
ATOM     11  C   UNL     1       0.451   1.182  -0.002  0.00  0.00    +0.109 C 
ATOM     12  C   UNL     1       0.309  -0.316  -0.077  0.00  0.00    +0.212 C 
ATOM     13  O   UNL     1       1.295  -1.013  -0.197  0.00  0.00    -0.276 OA
ATOM     14  N   UNL     1      -0.912  -0.882  -0.012  0.00  0.00    -0.288 N 
ATOM     15  H   UNL     1      -1.700  -0.325   0.084  0.00  0.00    +0.151 HD
ENDBRANCH   1  14
BRANCH   6  16
ATOM     16  N   UNL     1      -4.590  -5.829   3.894  0.00  0.00    -0.284 N 
ATOM     17  C   UNL     1      -4.156  -5.629   5.154  0.00  0.00    +0.244 C 
ATOM     18  O   UNL     1      -3.392  -4.718   5.395  0.00  0.00    -0.273 OA
ATOM     19  H   UNL     1      -5.258  -6.509   3.713  0.00  0.00    +0.155 HD
BRANCH  17  20
ATOM     20  C   UNL     1      -4.620  -6.537   6.264  0.00  0.00    +0.190 C 
ATOM     21  C   UNL     1      -6.119  -6.430   6.433  0.00  0.00    +0.016 C 
ATOM     22  C   UNL     1      -6.323  -5.985   7.693  0.00  0.00    -0.004 A 
ATOM     23  C   UNL     1      -7.540  -5.680   8.456  0.00  0.00    +0.010 A 
ATOM     24  C   UNL     1      -7.423  -5.240   9.729  0.00  0.00    +0.001 A 
ATOM     25  C   UNL     1      -6.172  -5.067  10.338  0.00  0.00    +0.002 A 
ATOM     26  C   UNL     1      -5.010  -5.327   9.702  0.00  0.00    +0.026 A 
ATOM     27  C   UNL     1      -5.014  -5.795   8.359  0.00  0.00    +0.043 A 
ATOM     28  N   UNL     1      -4.038  -6.112   7.542  0.00  0.00    -0.370 N 
ATOM     29  H   UNL     1      -3.090  -6.071   7.747  0.00  0.00    +0.161 HD
ENDBRANCH  17  20
ENDBRANCH   6  16
TORSDOF 3
