REMARK  Name = ZINC23486125
REMARK  4 active torsions:
REMARK  status: ('A' for Active; 'I' for Inactive)
REMARK    1  A    between atoms: C_10  and  C_11
REMARK    2  A    between atoms: N_12  and  N_13
REMARK    3  A    between atoms: C_14  and  C_16
REMARK    4  A    between atoms: C_18  and  N_24
REMARK                            x       y       z     vdW  Elec       q    Type
REMARK                         _______ _______ _______ _____ _____    ______ ____
ROOT
ATOM      1  N   UNL     1      -1.191   1.869   0.025  0.00  0.00    -0.202 N 
ATOM      2  C   UNL     1      -0.014   1.212   0.024  0.00  0.00    +0.283 C 
ATOM      3  O   UNL     1       0.002  -0.004   0.025  0.00  0.00    -0.267 OA
ATOM      4  H   UNL     1      -1.206   2.969   0.025  0.00  0.00    +0.178 HD
ENDROOT
BRANCH   2   5
ATOM      5  C   UNL     1       1.257   1.969   0.016  0.00  0.00    +0.149 A 
ATOM      6  C   UNL     1       2.468   1.282   0.015  0.00  0.00    +0.094 A 
ATOM      7  C   UNL     1       3.658   2.011   0.001  0.00  0.00    +0.067 A 
ATOM      8  C   UNL     1       3.581   3.403   0.001  0.00  0.00    +0.100 A 
ATOM      9  C   UNL     1       2.337   4.013   0.009  0.00  0.00    +0.150 A 
ATOM     10  N   UNL     1       1.232   3.298   0.016  0.00  0.00    -0.228 NA
ATOM     11 CL   UNL     1       2.235   5.746   0.009  0.00  0.00    -0.060 Cl
ATOM     12 CL   UNL     1       5.029   4.362  -0.008  0.00  0.00    -0.078 Cl
ATOM     13 CL   UNL     1       2.498  -0.453   0.023  0.00  0.00    -0.079 Cl
BRANCH   7  14
ATOM     14  N   UNL     1       4.892   1.364  -0.006  0.00  0.00    -0.356 N 
ATOM     15  H   UNL     1       5.821   1.952  -0.017  0.00  0.00    +0.142 HD
ATOM     16  H   UNL     1       4.936   0.265  -0.001  0.00  0.00    +0.142 HD
ENDBRANCH   7  14
ENDBRANCH   2   5
BRANCH   1  18
ATOM     17  C   UNL     1      -3.529   1.787   0.029  0.00  0.00    +0.139 C 
ATOM     18  N   UNL     1      -2.394   1.153   0.027  0.00  0.00    -0.187 NA
BRANCH  17  28
ATOM     19  C   UNL     1      -4.865  -3.184  -0.306  0.00  0.00    +0.001 A 
ATOM     20  C   UNL     1      -3.648  -2.506  -0.311  0.00  0.00    +0.001 A 
ATOM     21  C   UNL     1      -3.602  -1.148  -0.204  0.00  0.00    +0.009 A 
ATOM     22  C   UNL     1      -4.793  -0.422  -0.093  0.00  0.00    -0.009 A 
ATOM     23  C   UNL     1      -6.033  -1.108  -0.081  0.00  0.00    -0.017 A 
ATOM     24  C   UNL     1      -6.042  -2.509  -0.194  0.00  0.00    +0.008 A 
ATOM     25  C   UNL     1      -7.226  -0.376   0.036  0.00  0.00    +0.008 A 
ATOM     26  C   UNL     1      -7.201   0.980   0.144  0.00  0.00    +0.001 A 
ATOM     27  C   UNL     1      -6.011   1.694   0.144  0.00  0.00    +0.010 A 
ATOM     28  C   UNL     1      -4.792   1.034   0.030  0.00  0.00    +0.002 A 
ENDBRANCH  17  28
ENDBRANCH   1  18
TORSDOF 4
