REMARK  Name = ZINC28910179
REMARK  10 active torsions:
REMARK  status: ('A' for Active; 'I' for Inactive)
REMARK    1  A    between atoms: C_1  and  C_2
REMARK    2  A    between atoms: C_2  and  C_4
REMARK    3  A    between atoms: C_2  and  N_17
REMARK    4  A    between atoms: N_6  and  C_7
REMARK    5  A    between atoms: C_12  and  C_13
REMARK    6  A    between atoms: N_17  and  C_18
REMARK    7  A    between atoms: C_21  and  N_24
REMARK    8  A    between atoms: C_25  and  C_27
REMARK    9  A    between atoms: C_27  and  C_28
REMARK   10  A    between atoms: C_27  and  C_29
REMARK                            x       y       z     vdW  Elec       q    Type
REMARK                         _______ _______ _______ _____ _____    ______ ____
ROOT
ATOM      1  C   UNL     1       0.361   1.696  -0.207  0.00  0.00    +0.038 C 
ATOM      2  C   UNL     1       0.309   0.167  -0.239  0.00  0.00    +0.154 C 
ENDROOT
BRANCH   2   3
ATOM      3  C   UNL     1       1.056  -0.336  -1.447  0.00  0.00    +0.237 C 
ATOM      4  O   UNL     1       2.012  -1.069  -1.306  0.00  0.00    -0.273 OA
ATOM      5  N   UNL     1       0.663   0.029  -2.683  0.00  0.00    -0.283 N 
ATOM      6  H   UNL     1      -0.148   0.548  -2.800  0.00  0.00    +0.155 HD
BRANCH   5   7
ATOM      7  C   UNL     1       1.423  -0.342  -3.797  0.00  0.00    +0.045 A 
ATOM      8  C   UNL     1       2.779  -0.609  -3.657  0.00  0.00    +0.024 A 
ATOM      9  C   UNL     1       3.527  -0.975  -4.758  0.00  0.00    +0.002 A 
ATOM     10  C   UNL     1       2.928  -1.075  -6.001  0.00  0.00    +0.001 A 
ATOM     11  C   UNL     1       1.578  -0.810  -6.144  0.00  0.00    +0.014 A 
ATOM     12  C   UNL     1       0.823  -0.451  -5.045  0.00  0.00    +0.076 A 
BRANCH  12  13
ATOM     13  C   UNL     1      -0.649  -0.169  -5.200  0.00  0.00    +0.419 C 
ATOM     14  F   UNL     1      -1.018  -0.343  -6.538  0.00  0.00    -0.166 F 
ATOM     15  F   UNL     1      -1.380  -1.050  -4.396  0.00  0.00    -0.166 F 
ATOM     16  F   UNL     1      -0.916   1.148  -4.810  0.00  0.00    -0.166 F 
ENDBRANCH  12  13
ENDBRANCH   5   7
ENDBRANCH   2   3
BRANCH   2  17
ATOM     17  N   UNL     1       0.928  -0.368   0.977  0.00  0.00    -0.333 N 
ATOM     18  H   UNL     1       1.861  -0.630   0.970  0.00  0.00    +0.147 HD
BRANCH  17  19
ATOM     19  C   UNL     1       0.172  -0.500   2.147  0.00  0.00    +0.028 A 
ATOM     20  C   UNL     1      -1.166  -0.129   2.154  0.00  0.00    +0.025 A 
ATOM     21  C   UNL     1      -1.912  -0.259   3.309  0.00  0.00    +0.025 A 
ATOM     22  C   UNL     1      -1.323  -0.761   4.463  0.00  0.00    +0.034 A 
ATOM     23  C   UNL     1       0.015  -1.131   4.455  0.00  0.00    +0.025 A 
ATOM     24  C   UNL     1       0.759  -1.007   3.299  0.00  0.00    +0.025 A 
BRANCH  22  25
ATOM     25  N   UNL     1      -2.080  -0.892   5.635  0.00  0.00    -0.285 N 
ATOM     26  C   UNL     1      -3.383  -1.231   5.561  0.00  0.00    +0.220 C 
ATOM     27  O   UNL     1      -3.922  -1.337   4.480  0.00  0.00    -0.275 OA
ATOM     28  H   UNL     1      -1.667  -0.740   6.499  0.00  0.00    +0.155 HD
BRANCH  26  29
ATOM     29  C   UNL     1      -4.169  -1.478   6.823  0.00  0.00    +0.069 C 
ATOM     30  C   UNL     1      -5.610  -1.844   6.462  0.00  0.00    +0.017 C 
ATOM     31  C   UNL     1      -3.532  -2.628   7.605  0.00  0.00    +0.017 C 
ENDBRANCH  26  29
ENDBRANCH  22  25
ENDBRANCH  17  19
ENDBRANCH   2  17
TORSDOF 7
