REMARK  Name = ZINC63044708
REMARK  6 active torsions:
REMARK  status: ('A' for Active; 'I' for Inactive)
REMARK    1  A    between atoms: C_1  and  C_2
REMARK    2  A    between atoms: C_2  and  C_3
REMARK    3  A    between atoms: C_3  and  C_5
REMARK    4  A    between atoms: C_3  and  C_15
REMARK    5  A    between atoms: C_8  and  N_12
REMARK    6  A    between atoms: C_15  and  C_17
REMARK                            x       y       z     vdW  Elec       q    Type
REMARK                         _______ _______ _______ _____ _____    ______ ____
ROOT
ATOM      1  C   UNL     1       2.171  -0.124  -1.114  0.00  0.00    -0.025 A 
ATOM      2  C   UNL     1       2.871  -0.492   0.020  0.00  0.00    +0.007 A 
ATOM      3  C   UNL     1       4.204  -0.150   0.151  0.00  0.00    +0.033 A 
ATOM      4  C   UNL     1       4.838   0.561  -0.851  0.00  0.00    +0.128 A 
ATOM      5  C   UNL     1       4.139   0.929  -1.985  0.00  0.00    +0.053 A 
ATOM      6  C   UNL     1       2.806   0.582  -2.120  0.00  0.00    +0.047 A 
ATOM      7 CL   UNL     1       1.930   1.037  -3.547  0.00  0.00    -0.083 Cl
ENDROOT
BRANCH   4   8
ATOM      8  N   UNL     1       6.264   0.928  -0.710  0.00  0.00    +0.056 N 
ATOM      9  O   UNL     1       6.876   0.607   0.283  0.00  0.00    -0.126 OA
ATOM     10  O   UNL     1       6.819   1.550  -1.586  0.00  0.00    -0.126 OA
ENDBRANCH   4   8
BRANCH   1  11
ATOM     11  C   UNL     1       0.718  -0.497  -1.257  0.00  0.00    +0.033 C 
BRANCH  11  12
ATOM     12  C   UNL     1       0.593  -2.015  -1.403  0.00  0.00    +0.061 C 
ATOM     13  C   UNL     1      -0.862  -2.381  -1.703  0.00  0.00    +0.020 C 
ATOM     14 BR   UNL     1       1.156  -2.884   0.269  0.00  0.00    -0.088 Br
ENDBRANCH  11  12
BRANCH  11  16
ATOM     15  C   UNL     1      -0.030   1.488   0.062  0.00  0.00    +0.004 C 
ATOM     16  C   UNL     1      -0.050  -0.040  -0.015  0.00  0.00    +0.006 C 
ENDBRANCH  11  16
ENDBRANCH   1  11
TORSDOF 4
