REMARK  Name = ZINC16805085
REMARK  9 active torsions:
REMARK  status: ('A' for Active; 'I' for Inactive)
REMARK    1  A    between atoms: C_1  and  C_2
REMARK    2  A    between atoms: C_5  and  C_13
REMARK    3  A    between atoms: C_6  and  C_7
REMARK    4  A    between atoms: C_6  and  C_8
REMARK    5  A    between atoms: C_10  and  O_12
REMARK    6  A    between atoms: N_15  and  N_16
REMARK    7  A    between atoms: C_17  and  C_18
REMARK    8  A    between atoms: C_21  and  O_25
REMARK    9  A    between atoms: C_23  and  O_24
REMARK                            x       y       z     vdW  Elec       q    Type
REMARK                         _______ _______ _______ _____ _____    ______ ____
ROOT
ATOM      1  C   UNL     1       0.996  -3.258   1.638  0.00  0.00    +0.239 C 
ATOM      2  O   UNL     1       1.606  -2.969   2.646  0.00  0.00    -0.273 OA
ATOM      3  N   UNL     1       0.794  -4.552   1.320  0.00  0.00    -0.207 N 
ATOM      4  H   UNL     1       0.305  -4.782   0.514  0.00  0.00    +0.177 HD
ENDROOT
BRANCH   1   9
ATOM      5  C   UNL     1      -0.019   1.526   0.010  0.00  0.00    +0.014 C 
ATOM      6  C   UNL     1       0.002  -0.004   0.002  0.00  0.00    +0.000 C 
ATOM      7  C   UNL     1      -1.389  -0.705   0.062  0.00  0.00    +0.011 C 
ATOM      8  C   UNL     1      -1.084  -2.139   0.552  0.00  0.00    +0.017 C 
ATOM      9  C   UNL     1       0.463  -2.169   0.743  0.00  0.00    +0.057 C 
ATOM     10  C   UNL     1       0.727  -0.695   1.211  0.00  0.00    -0.013 C 
ATOM     11  C   UNL     1       0.042  -0.385   2.543  0.00  0.00    +0.012 C 
ATOM     12  C   UNL     1       2.220  -0.363   1.250  0.00  0.00    +0.012 C 
ATOM     13  C   UNL     1       1.036  -2.118  -0.707  0.00  0.00    +0.048 C 
ATOM     14  C   UNL     1       0.744  -0.669  -1.197  0.00  0.00    +0.122 C 
BRANCH  14  15
ATOM     15  O   UNL     1       1.952   0.037  -1.489  0.00  0.00    -0.391 OA
ATOM     16  H   UNL     1       2.455  -0.333  -2.227  0.00  0.00    +0.210 HD
ENDBRANCH  14  15
ENDBRANCH   1   9
BRANCH   3  17
ATOM     17  N   UNL     1       1.289  -5.564   2.153  0.00  0.00    -0.188 NA
ATOM     18  C   UNL     1       1.094  -6.810   1.846  0.00  0.00    +0.142 C 
BRANCH  18  19
ATOM     19  C   UNL     1       1.614  -7.874   2.722  0.00  0.00    +0.036 A 
ATOM     20  C   UNL     1       1.411  -9.216   2.391  0.00  0.00    +0.016 A 
ATOM     21  C   UNL     1       1.900 -10.209   3.212  0.00  0.00    +0.046 A 
ATOM     22  C   UNL     1       2.595  -9.879   4.371  0.00  0.00    +0.120 A 
ATOM     23  C   UNL     1       2.801  -8.549   4.708  0.00  0.00    +0.091 A 
ATOM     24  C   UNL     1       2.320  -7.544   3.887  0.00  0.00    +0.129 A 
BRANCH  24  25
ATOM     25  O   UNL     1       2.526  -6.242   4.213  0.00  0.00    -0.506 OA
ATOM     26  H   UNL     1       1.830  -5.859   4.764  0.00  0.00    +0.292 HD
ENDBRANCH  24  25
BRANCH  22  27
ATOM     27  O   UNL     1       3.073 -10.863   5.176  0.00  0.00    -0.507 OA
ATOM     28  H   UNL     1       3.970 -11.151   4.955  0.00  0.00    +0.292 HD
ENDBRANCH  22  27
ENDBRANCH  18  19
ENDBRANCH   3  17
TORSDOF 6
