REMARK  Name = ZINC39324534
REMARK  7 active torsions:
REMARK  status: ('A' for Active; 'I' for Inactive)
REMARK    1  A    between atoms: C_1  and  C_2
REMARK    2  A    between atoms: C_2  and  C_3
REMARK    3  A    between atoms: C_3  and  N_4
REMARK    4  A    between atoms: C_7  and  C_8
REMARK    5  A    between atoms: C_18  and  C_26
REMARK    6  A    between atoms: C_20  and  C_24
REMARK    7  A    between atoms: C_21  and  N_23
REMARK                            x       y       z     vdW  Elec       q    Type
REMARK                         _______ _______ _______ _____ _____    ______ ____
ROOT
ATOM      1  N   UNL     1       0.117  -2.079  -1.165  0.00  0.00    -0.294 NA
ATOM      2  C   UNL     1       1.100  -2.455  -0.132  0.00  0.00    +0.123 C 
ATOM      3  C   UNL     1       1.188  -3.967  -0.136  0.00  0.00    +0.010 C 
ATOM      4  C   UNL     1       1.266  -4.664   1.012  0.00  0.00    +0.019 C 
ATOM      5  C   UNL     1       1.183  -4.648  -1.447  0.00  0.00    +0.136 C 
ATOM      6  C   UNL     1       0.896  -3.954  -2.550  0.00  0.00    -0.000 C 
ATOM      7  C   UNL     1       0.584  -2.481  -2.493  0.00  0.00    +0.120 C 
ATOM      8  C   UNL     1       0.878  -4.637  -3.897  0.00  0.00    +0.098 C 
ATOM      9  C   UNL     1       0.783  -6.127  -3.729  0.00  0.00    +0.098 C 
ATOM     10  C   UNL     1       1.085  -6.711  -2.543  0.00  0.00    +0.199 C 
ATOM     11  O   UNL     1       1.473  -5.971  -1.490  0.00  0.00    -0.441 OA
ENDROOT
BRANCH   4  12
ATOM     12  C   UNL     1       1.432  -3.957   2.293  0.00  0.00    +0.011 A 
ATOM     13  C   UNL     1       2.192  -2.786   2.356  0.00  0.00    +0.011 A 
ATOM     14  C   UNL     1       2.342  -2.129   3.559  0.00  0.00    +0.001 A 
ATOM     15  C   UNL     1       1.742  -2.626   4.704  0.00  0.00    +0.003 A 
ATOM     16  C   UNL     1       0.988  -3.784   4.652  0.00  0.00    +0.039 A 
ATOM     17  C   UNL     1       0.824  -4.451   3.453  0.00  0.00    +0.131 A 
ATOM     18  F   UNL     1       0.083  -5.580   3.401  0.00  0.00    -0.205 F 
ENDBRANCH   4  12
BRANCH   8  19
ATOM     19  C   UNL     1       2.145  -4.303  -4.641  0.00  0.00    +0.000 A 
ATOM     20  C   UNL     1       3.372  -4.652  -4.109  0.00  0.00    +0.007 A 
ATOM     21  C   UNL     1       4.535  -4.346  -4.792  0.00  0.00    +0.000 A 
ATOM     22  C   UNL     1       4.471  -3.690  -6.007  0.00  0.00    +0.003 A 
ATOM     23  C   UNL     1       3.246  -3.341  -6.542  0.00  0.00    +0.038 A 
ATOM     24  C   UNL     1       2.081  -3.652  -5.861  0.00  0.00    +0.127 A 
ATOM     25  F   UNL     1       0.882  -3.315  -6.385  0.00  0.00    -0.205 F 
ENDBRANCH   8  19
BRANCH  10  26
ATOM     26  N   UNL     1       0.991  -8.074  -2.415  0.00  0.00    -0.328 N 
ATOM     27  H   UNL     1       0.711  -8.614  -3.171  0.00  0.00    +0.145 HD
ATOM     28  H   UNL     1       1.205  -8.498  -1.569  0.00  0.00    +0.145 HD
ENDBRANCH  10  26
BRANCH   9  29
ATOM     29  C   UNL     1       0.370  -6.939  -4.834  0.00  0.00    +0.101 C 
ATOM     30  N   UNL     1       0.042  -7.583  -5.710  0.00  0.00    -0.191 NA
ENDBRANCH   9  29
BRANCH   1  31
ATOM     31  C   UNL     1      -0.168  -0.639  -1.121  0.00  0.00    +0.085 C 
BRANCH  31  33
ATOM     32  C   UNL     1      -1.180   1.199   0.235  0.00  0.00    +0.005 C 
ATOM     33  C   UNL     1      -0.883  -0.301   0.189  0.00  0.00    +0.012 C 
ENDBRANCH  31  33
ENDBRANCH   1  31
TORSDOF 6
