REMARK  Name = ZINC38959517
REMARK  7 active torsions:
REMARK  status: ('A' for Active; 'I' for Inactive)
REMARK    1  A    between atoms: C_1  and  C_2
REMARK    2  A    between atoms: C_2  and  C_3
REMARK    3  A    between atoms: C_3  and  N_4
REMARK    4  A    between atoms: N_4  and  C_5
REMARK    5  A    between atoms: C_5  and  C_6
REMARK    6  A    between atoms: C_12  and  C_18
REMARK    7  A    between atoms: C_19  and  C_21
REMARK                            x       y       z     vdW  Elec       q    Type
REMARK                         _______ _______ _______ _____ _____    ______ ____
ROOT
ATOM      1  C   UNL     1      -0.357  -2.613  -2.012  0.00  0.00    +0.125 C 
ENDROOT
BRANCH   1   2
ATOM      2  C   UNL     1       0.034  -2.905  -3.462  0.00  0.00    +0.116 C 
ATOM      3  C   UNL     1      -0.970  -3.892  -4.025  0.00  0.00    -0.003 C 
ATOM      4  C   UNL     1      -1.664  -3.513  -5.136  0.00  0.00    -0.007 A 
ATOM      5  C   UNL     1      -2.652  -4.404  -5.745  0.00  0.00    +0.010 A 
ATOM      6  C   UNL     1      -3.318  -3.984  -6.851  0.00  0.00    +0.004 A 
ATOM      7  C   UNL     1      -3.079  -2.729  -7.411  0.00  0.00    -0.049 A 
ATOM      8  C   UNL     1      -2.176  -1.856  -6.894  0.00  0.00    +0.027 A 
ATOM      9  C   UNL     1      -1.431  -2.193  -5.748  0.00  0.00    +0.041 A 
ATOM     10  N   UNL     1      -0.548  -1.329  -5.250  0.00  0.00    -0.284 N 
ATOM     11  C   UNL     1       0.183  -1.582  -4.178  0.00  0.00    +0.226 C 
ATOM     12  O   UNL     1       0.974  -0.752  -3.770  0.00  0.00    -0.275 OA
ATOM     13  C   UNL     1      -3.853  -2.326  -8.640  0.00  0.00    +0.044 C 
ATOM     14  H   UNL     1      -0.437  -0.474  -5.694  0.00  0.00    +0.155 HD
ENDBRANCH   1   2
BRANCH   1  15
ATOM     15  N   UNL     1       0.743  -1.917  -1.340  0.00  0.00    -0.296 N 
ATOM     16  C   UNL     1       1.772  -2.620  -0.828  0.00  0.00    +0.248 C 
ATOM     17  O   UNL     1       2.638  -2.054  -0.190  0.00  0.00    -0.270 OA
BRANCH  16  18
ATOM     18  C   UNL     1       1.848  -4.081  -1.041  0.00  0.00    +0.051 A 
ATOM     19  C   UNL     1       0.822  -4.911  -0.584  0.00  0.00    +0.014 A 
ATOM     20  C   UNL     1       0.899  -6.273  -0.787  0.00  0.00    +0.001 A 
ATOM     21  C   UNL     1       1.990  -6.818  -1.442  0.00  0.00    +0.001 A 
ATOM     22  C   UNL     1       3.009  -6.003  -1.897  0.00  0.00    +0.016 A 
ATOM     23  C   UNL     1       2.943  -4.637  -1.707  0.00  0.00    +0.030 A 
ATOM     24 BR   UNL     1       4.334  -3.522  -2.338  0.00  0.00    -0.050 Br
ENDBRANCH  16  18
BRANCH  15  25
ATOM     25  C   UNL     1       0.725  -0.457  -1.226  0.00  0.00    +0.108 C 
BRANCH  25  27
ATOM     26  C   UNL     1       0.001   1.469   0.192  0.00  0.00    +0.005 C 
ATOM     27  C   UNL     1       0.020  -0.056   0.072  0.00  0.00    +0.016 C 
ENDBRANCH  25  27
ENDBRANCH  15  25
ENDBRANCH   1  15
TORSDOF 5
