REMARK  Name = ZINC07524291
REMARK  15 active torsions:
REMARK  status: ('A' for Active; 'I' for Inactive)
REMARK    1  A    between atoms: C_1  and  C_2
REMARK    2  A    between atoms: C_4  and  C_28
REMARK    3  A    between atoms: C_5  and  N_9
REMARK    4  A    between atoms: C_6  and  C_8
REMARK    5  A    between atoms: C_10  and  C_12
REMARK    6  A    between atoms: C_12  and  N_13
REMARK    7  A    between atoms: N_13  and  C_14
REMARK    8  A    between atoms: N_13  and  C_15
REMARK    9  A    between atoms: C_15  and  C_16
REMARK   10  A    between atoms: C_16  and  C_18
REMARK   11  A    between atoms: C_20  and  C_27
REMARK   12  A    between atoms: N_21  and  C_24
REMARK   13  A    between atoms: C_22  and  C_23
REMARK   14  A    between atoms: C_24  and  C_25
REMARK   15  A    between atoms: C_24  and  C_26
REMARK                            x       y       z     vdW  Elec       q    Type
REMARK                         _______ _______ _______ _____ _____    ______ ____
ROOT
ATOM      1  N   UNL     1       0.435  -6.671   2.603  0.00  0.00    +0.388 N 
ATOM      2  C   UNL     1      -0.778  -6.165   3.259  0.00  0.00    -0.095 C 
ATOM      3  H   UNL     1       1.248  -6.359   3.114  0.00  0.00    -0.081 HD
ENDROOT
BRANCH   1   4
ATOM      4  C   UNL     1       0.497  -6.161   1.227  0.00  0.00    +0.019 C 
BRANCH   4   6
ATOM      5  N   UNL     1       0.732  -3.973   0.097  0.00  0.00    -0.287 N 
ATOM      6  C   UNL     1       0.652  -4.662   1.253  0.00  0.00    +0.201 C 
ATOM      7  O   UNL     1       0.707  -4.076   2.313  0.00  0.00    -0.278 OA
ATOM      8  H   UNL     1       0.765  -4.447  -0.749  0.00  0.00    +0.155 HD
BRANCH   5  13
ATOM      9  C   UNL     1       0.866   1.698   0.178  0.00  0.00    +0.044 C 
ATOM     10  C   UNL     1       0.830   0.191   0.157  0.00  0.00    -0.050 A 
ATOM     11  C   UNL     1       1.780  -0.531   0.855  0.00  0.00    +0.008 A 
ATOM     12  C   UNL     1       1.750  -1.912   0.837  0.00  0.00    -0.029 A 
ATOM     13  C   UNL     1       0.764  -2.575   0.118  0.00  0.00    +0.039 A 
ATOM     14  C   UNL     1      -0.188  -1.846  -0.582  0.00  0.00    -0.029 A 
ATOM     15  C   UNL     1      -0.156  -0.465  -0.556  0.00  0.00    +0.008 A 
ATOM     16  C   UNL     1      -1.260  -2.561  -1.365  0.00  0.00    +0.045 C 
ATOM     17  C   UNL     1       2.786  -2.699   1.598  0.00  0.00    +0.045 C 
ENDBRANCH   5  13
ENDBRANCH   4   6
ENDBRANCH   1   4
BRANCH   1  18
ATOM     18  C   UNL     1       0.405  -8.139   2.581  0.00  0.00    +0.002 C 
BRANCH  18  19
ATOM     19  C   UNL     1       0.465  -8.665   3.992  0.00  0.00    +0.149 C 
ATOM     20  O   UNL     1       0.528  -7.891   4.925  0.00  0.00    -0.294 OA
BRANCH  19  21
ATOM     21  C   UNL     1       0.448 -10.108   4.238  0.00  0.00    +0.036 A 
ATOM     22  C   UNL     1       0.382 -11.177   3.231  0.00  0.00    +0.034 A 
ATOM     23  C   UNL     1       0.390 -12.336   3.910  0.00  0.00    +0.017 A 
ATOM     24  N   UNL     1       0.456 -12.072   5.247  0.00  0.00    -0.345 N 
ATOM     25  C   UNL     1       0.497 -10.745   5.463  0.00  0.00    +0.027 A 
ATOM     26  C   UNL     1       0.580 -10.071   6.808  0.00  0.00    +0.064 C 
ATOM     27  C   UNL     1       0.335 -13.710   3.292  0.00  0.00    +0.063 C 
BRANCH  24  28
ATOM     28  C   UNL     1       0.483 -13.091   6.300  0.00  0.00    +0.081 C 
ATOM     29  C   UNL     1      -0.864 -13.815   6.345  0.00  0.00    +0.030 C 
ATOM     30  C   UNL     1       1.594 -14.101   6.003  0.00  0.00    +0.030 C 
ENDBRANCH  24  28
ENDBRANCH  19  21
ENDBRANCH  18  19
ENDBRANCH   1  18
TORSDOF 7
