REMARK  Name = ZINC64044603
REMARK  12 active torsions:
REMARK  status: ('A' for Active; 'I' for Inactive)
REMARK    1  A    between atoms: C_1  and  C_2
REMARK    2  A    between atoms: C_9  and  C_26
REMARK    3  A    between atoms: N_10  and  C_11
REMARK    4  A    between atoms: C_13  and  C_22
REMARK    5  A    between atoms: C_14  and  O_21
REMARK    6  A    between atoms: C_15  and  C_17
REMARK    7  A    between atoms: C_17  and  C_18
REMARK    8  A    between atoms: C_17  and  C_19
REMARK    9  A    between atoms: C_17  and  C_20
REMARK   10  A    between atoms: C_22  and  C_23
REMARK   11  A    between atoms: C_22  and  C_24
REMARK   12  A    between atoms: C_22  and  C_25
REMARK                            x       y       z     vdW  Elec       q    Type
REMARK                         _______ _______ _______ _____ _____    ______ ____
ROOT
ATOM      1  C   UNL     1      -0.018   1.503   0.010  0.00  0.00    +0.044 C 
ATOM      2  C   UNL     1       0.002  -0.004   0.002  0.00  0.00    -0.048 A 
ATOM      3  C   UNL     1       0.006  -0.684  -1.210  0.00  0.00    +0.005 A 
ATOM      4  C   UNL     1       0.024  -2.062  -1.240  0.00  0.00    +0.028 A 
ATOM      5  C   UNL     1       0.040  -2.777  -0.049  0.00  0.00    +0.074 A 
ATOM      6  C   UNL     1       0.036  -2.088   1.182  0.00  0.00    +0.090 A 
ATOM      7  C   UNL     1       0.022  -0.684   1.184  0.00  0.00    +0.033 A 
ATOM      8  N   UNL     1       0.053  -3.009   2.159  0.00  0.00    -0.227 NA
ATOM      9  C   UNL     1       0.066  -4.216   1.633  0.00  0.00    +0.145 A 
ATOM     10  N   UNL     1       0.059  -4.120   0.260  0.00  0.00    -0.292 N 
ENDROOT
BRANCH   9  11
ATOM     11  C   UNL     1       0.087  -5.427   2.366  0.00  0.00    +0.023 C 
ATOM     12  C   UNL     1       0.090  -5.571   3.744  0.00  0.00    +0.006 A 
ATOM     13  C   UNL     1       0.075  -4.633   4.805  0.00  0.00    +0.010 A 
ATOM     14  C   UNL     1       0.083  -5.069   6.087  0.00  0.00    +0.001 A 
ATOM     15  C   UNL     1       0.106  -6.434   6.400  0.00  0.00    +0.002 A 
ATOM     16  C   UNL     1       0.121  -7.388   5.441  0.00  0.00    +0.026 A 
ATOM     17  C   UNL     1       0.114  -7.011   4.069  0.00  0.00    +0.043 A 
ATOM     18  N   UNL     1       0.125  -7.729   2.970  0.00  0.00    -0.380 N 
ATOM     19  C   UNL     1       0.103  -6.833   1.809  0.00  0.00    +0.152 C 
ATOM     20  H   UNL     1       0.141  -8.698   2.932  0.00  0.00    +0.160 HD
ENDBRANCH   9  11
BRANCH  10  21
ATOM     21  C   UNL     1       0.069  -5.184  -0.651  0.00  0.00    +0.049 A 
ATOM     22  C   UNL     1      -1.013  -6.053  -0.715  0.00  0.00    +0.034 A 
ATOM     23  C   UNL     1      -1.002  -7.102  -1.613  0.00  0.00    +0.002 A 
ATOM     24  C   UNL     1       0.089  -7.288  -2.450  0.00  0.00    +0.124 A 
ATOM     25  C   UNL     1       1.169  -6.421  -2.386  0.00  0.00    +0.002 A 
ATOM     26  C   UNL     1       1.158  -5.368  -1.493  0.00  0.00    +0.034 A 
BRANCH  25  27
ATOM     27  C   UNL     1       2.354  -6.624  -3.295  0.00  0.00    -0.009 C 
ATOM     28  C   UNL     1       3.398  -5.539  -3.024  0.00  0.00    +0.015 C 
ATOM     29  C   UNL     1       2.969  -8.000  -3.032  0.00  0.00    +0.015 C 
ATOM     30  C   UNL     1       1.898  -6.540  -4.753  0.00  0.00    +0.015 C 
ENDBRANCH  25  27
BRANCH  23  31
ATOM     31  C   UNL     1      -2.175  -8.045  -1.683  0.00  0.00    -0.009 C 
ATOM     32  C   UNL     1      -3.233  -7.620  -0.663  0.00  0.00    +0.015 C 
ATOM     33  C   UNL     1      -2.778  -8.006  -3.089  0.00  0.00    +0.015 C 
ATOM     34  C   UNL     1      -1.706  -9.467  -1.369  0.00  0.00    +0.015 C 
ENDBRANCH  23  31
BRANCH  24  35
ATOM     35  O   UNL     1       0.099  -8.322  -3.333  0.00  0.00    -0.506 OA
ATOM     36  H   UNL     1      -0.277  -8.105  -4.197  0.00  0.00    +0.292 HD
ENDBRANCH  24  35
ENDBRANCH  10  21
TORSDOF 5
