REMARK  Name = ZINC39606487
REMARK  10 active torsions:
REMARK  status: ('A' for Active; 'I' for Inactive)
REMARK    1  A    between atoms: C_1  and  C_2
REMARK    2  A    between atoms: C_2  and  C_3
REMARK    3  A    between atoms: C_3  and  C_5
REMARK    4  A    between atoms: C_3  and  C_6
REMARK    5  A    between atoms: C_6  and  N_7
REMARK    6  A    between atoms: C_8  and  C_10
REMARK    7  A    between atoms: C_21  and  C_23
REMARK    8  A    between atoms: C_24  and  C_34
REMARK    9  A    between atoms: C_27  and  C_28
REMARK   10  A    between atoms: C_30  and  C_33
REMARK                            x       y       z     vdW  Elec       q    Type
REMARK                         _______ _______ _______ _____ _____    ______ ____
ROOT
ATOM      1  C   UNL     1       1.840  -4.281  -4.174  0.00  0.00    +0.100 C 
ATOM      2  C   UNL     1       0.959  -3.840  -5.364  0.00  0.00    +0.121 C 
ATOM      3  N   UNL     1       1.013  -4.979  -6.311  0.00  0.00    -0.296 N 
ATOM      4  C   UNL     1       0.964  -6.181  -5.446  0.00  0.00    +0.115 C 
ATOM      5  C   UNL     1       1.840  -5.818  -4.230  0.00  0.00    -0.004 C 
ATOM      6  C   UNL     1       3.260  -6.339  -4.429  0.00  0.00    -0.010 C 
ATOM      7  C   UNL     1       3.242  -7.870  -4.425  0.00  0.00    -0.082 C 
ATOM      8  N   UNL     1       2.696  -8.352  -3.150  0.00  0.00    +0.379 N 
ATOM      9  C   UNL     1       1.299  -7.923  -3.010  0.00  0.00    -0.082 C 
ATOM     10  C   UNL     1       1.235  -6.395  -2.954  0.00  0.00    -0.010 C 
ATOM     11  C   UNL     1       1.089  -4.931  -7.656  0.00  0.00    +0.252 C 
ATOM     12  O   UNL     1       1.125  -5.963  -8.300  0.00  0.00    -0.270 OA
ATOM     13  H   UNL     1       2.742  -9.360  -3.126  0.00  0.00    -0.086 HD
ATOM     14  H   UNL     1       3.240  -7.975  -2.389  0.00  0.00    -0.086 HD
ENDROOT
BRANCH  11  15
ATOM     15  C   UNL     1       1.128  -3.631  -8.346  0.00  0.00    +0.108 A 
ATOM     16  C   UNL     1       2.290  -2.892  -8.681  0.00  0.00    +0.093 A 
ATOM     17  N   UNL     1       1.918  -1.801  -9.280  0.00  0.00    -0.082 NA
ATOM     18  O   UNL     1       0.506  -1.782  -9.362  0.00  0.00    -0.352 OA
ATOM     19  C   UNL     1       0.035  -2.904  -8.795  0.00  0.00    +0.201 A 
ATOM     20  C   UNL     1       3.712  -3.301  -8.392  0.00  0.00    +0.070 C 
BRANCH  19  21
ATOM     21  C   UNL     1      -1.386  -3.292  -8.669  0.00  0.00    +0.152 A 
ATOM     22  C   UNL     1      -2.500  -2.549  -9.134  0.00  0.00    +0.079 A 
ATOM     23  C   UNL     1      -3.615  -3.236  -8.831  0.00  0.00    +0.135 A 
ATOM     24  O   UNL     1      -3.256  -4.366  -8.202  0.00  0.00    -0.359 OA
ATOM     25  N   UNL     1      -1.843  -4.390  -8.112  0.00  0.00    -0.075 NA
ATOM     26  C   UNL     1      -5.026  -2.810  -9.142  0.00  0.00    +0.089 C 
ENDBRANCH  19  21
ENDBRANCH  11  15
BRANCH   1  28
ATOM     27  N   UNL     1       2.042  -3.550  -1.819  0.00  0.00    -0.315 N 
ATOM     28  C   UNL     1       1.243  -3.804  -2.875  0.00  0.00    +0.218 C 
ATOM     29  O   UNL     1       0.044  -3.650  -2.779  0.00  0.00    -0.275 OA
ATOM     30  H   UNL     1       3.001  -3.673  -1.896  0.00  0.00    +0.149 HD
BRANCH  27  31
ATOM     31  C   UNL     1       1.461  -3.086  -0.557  0.00  0.00    +0.107 C 
BRANCH  31  32
ATOM     32  C   UNL     1       2.576  -2.873   0.469  0.00  0.00    +0.003 C 
ATOM     33  C   UNL     1       3.233  -4.217   0.795  0.00  0.00    +0.009 C 
BRANCH  32  35
ATOM     34  C   UNL     1       3.116  -1.944   2.725  0.00  0.00    +0.004 C 
ATOM     35  C   UNL     1       1.987  -2.272   1.746  0.00  0.00    +0.001 C 
ENDBRANCH  32  35
ENDBRANCH  31  32
ENDBRANCH  27  31
ENDBRANCH   1  28
TORSDOF 6
