REMARK  Name = ZINC13747778
REMARK  6 active torsions:
REMARK  status: ('A' for Active; 'I' for Inactive)
REMARK    1  A    between atoms: C_1  and  C_2
REMARK    2  A    between atoms: C_2  and  C_3
REMARK    3  A    between atoms: C_2  and  O_4
REMARK    4  A    between atoms: O_4  and  C_5
REMARK    5  A    between atoms: C_10  and  C_11
REMARK    6  A    between atoms: N_12  and  N_13
REMARK                            x       y       z     vdW  Elec       q    Type
REMARK                         _______ _______ _______ _____ _____    ______ ____
ROOT
ATOM      1  C   UNL     1      -1.724   0.801   1.633  0.00  0.00    +0.130 A 
ATOM      2  C   UNL     1      -2.037  -0.400   1.017  0.00  0.00    +0.047 A 
ATOM      3  C   UNL     1      -3.095  -1.160   1.477  0.00  0.00    +0.019 A 
ATOM      4  C   UNL     1      -3.857  -0.724   2.549  0.00  0.00    +0.019 A 
ATOM      5  C   UNL     1      -3.563   0.472   3.170  0.00  0.00    +0.028 A 
ATOM      6  C   UNL     1      -2.492   1.247   2.717  0.00  0.00    +0.037 A 
ATOM      7 BR   UNL     1      -5.306  -1.772   3.162  0.00  0.00    -0.050 Br
ENDROOT
BRANCH   6   8
ATOM      8  C   UNL     1      -2.172   2.526   3.376  0.00  0.00    +0.142 C 
ATOM      9  N   UNL     1      -1.176   3.242   2.953  0.00  0.00    -0.186 NA
BRANCH   9  10
ATOM     10  N   UNL     1      -0.872   4.458   3.579  0.00  0.00    -0.191 N 
ATOM     11  C   UNL     1       0.162   5.202   3.139  0.00  0.00    +0.317 C 
ATOM     12  O   UNL     1       0.427   6.257   3.683  0.00  0.00    -0.251 OA
ATOM     13  N   UNL     1       0.903   4.777   2.097  0.00  0.00    -0.312 N 
ATOM     14  H   UNL     1      -1.405   4.764   4.330  0.00  0.00    +0.179 HD
ATOM     15  H   UNL     1       0.692   3.935   1.663  0.00  0.00    +0.147 HD
ATOM     16  H   UNL     1       1.647   5.312   1.780  0.00  0.00    +0.147 HD
ENDBRANCH   9  10
ENDBRANCH   6   8
BRANCH   1  17
ATOM     17  O   UNL     1      -0.682   1.547   1.184  0.00  0.00    -0.489 OA
BRANCH  17  19
ATOM     18  C   UNL     1       1.526   1.592   0.202  0.00  0.00    +0.051 C 
ATOM     19  C   UNL     1       0.126   0.977   0.151  0.00  0.00    +0.167 C 
ATOM     20  C   UNL     1      -0.509   1.265  -1.210  0.00  0.00    +0.051 C 
ENDBRANCH  17  19
ENDBRANCH   1  17
TORSDOF 4
