REMARK  Name = ZINC03659978
REMARK  8 active torsions:
REMARK  status: ('A' for Active; 'I' for Inactive)
REMARK    1  A    between atoms: C_1  and  C_2
REMARK    2  A    between atoms: C_5  and  C_8
REMARK    3  A    between atoms: C_8  and  C_10
REMARK    4  A    between atoms: C_12  and  C_31
REMARK    5  A    between atoms: C_14  and  C_27
REMARK    6  A    between atoms: C_14  and  C_29
REMARK    7  A    between atoms: C_36  and  O_37
REMARK    8  A    between atoms: O_37  and  C_38
REMARK                            x       y       z     vdW  Elec       q    Type
REMARK                         _______ _______ _______ _____ _____    ______ ____
ROOT
ATOM      1  C   UNL     1       2.573  -2.882  -0.038  0.00  0.00    +0.155 C 
ATOM      2  C   UNL     1       3.221  -2.809  -1.448  0.00  0.00    +0.087 C 
ATOM      3  C   UNL     1       3.884  -4.196  -1.656  0.00  0.00    +0.173 C 
ATOM      4  C   UNL     1       3.632  -4.929  -0.336  0.00  0.00    +0.132 C 
ATOM      5  N   UNL     1       2.373  -4.321   0.170  0.00  0.00    -0.309 N 
ATOM      6  C   UNL     1       2.120  -4.777   1.442  0.00  0.00    +0.038 A 
ATOM      7  C   UNL     1       1.696  -3.966   2.476  0.00  0.00    +0.025 A 
ATOM      8  C   UNL     1       1.468  -4.508   3.728  0.00  0.00    +0.022 A 
ATOM      9  C   UNL     1       1.662  -5.861   3.955  0.00  0.00    +0.042 A 
ATOM     10  C   UNL     1       2.083  -6.688   2.931  0.00  0.00    +0.029 A 
ATOM     11  C   UNL     1       2.314  -6.158   1.668  0.00  0.00    -0.003 A 
ATOM     12  C   UNL     1       2.759  -7.006   0.538  0.00  0.00    +0.007 C 
ATOM     13  C   UNL     1       3.419  -6.407  -0.469  0.00  0.00    -0.002 C 
ATOM     14 CL   UNL     1       1.373  -6.521   5.534  0.00  0.00    -0.084 Cl
ENDROOT
BRANCH   2  15
ATOM     15  C   UNL     1       4.261  -1.719  -1.491  0.00  0.00    +0.002 A 
ATOM     16  C   UNL     1       5.349  -1.768  -0.641  0.00  0.00    +0.007 A 
ATOM     17  C   UNL     1       6.304  -0.770  -0.680  0.00  0.00    +0.001 A 
ATOM     18  C   UNL     1       6.173   0.281  -1.570  0.00  0.00    +0.004 A 
ATOM     19  C   UNL     1       5.087   0.335  -2.421  0.00  0.00    +0.046 A 
ATOM     20  C   UNL     1       4.130  -0.669  -2.388  0.00  0.00    +0.124 A 
BRANCH  20  21
ATOM     21  O   UNL     1       3.064  -0.622  -3.229  0.00  0.00    -0.495 OA
ATOM     22  C   UNL     1       2.994   0.488  -4.126  0.00  0.00    +0.277 C 
ENDBRANCH  20  21
ENDBRANCH   2  15
BRANCH   1  23
ATOM     23  C   UNL     1       1.254  -2.154  -0.022  0.00  0.00    +0.184 C 
ATOM     24  O   UNL     1       0.216  -2.781  -0.016  0.00  0.00    -0.290 OA
BRANCH  23  29
ATOM     25  C   UNL     1       1.141   3.593   0.010  0.00  0.00    +0.044 C 
ATOM     26  C   UNL     1       1.170   2.087   0.002  0.00  0.00    -0.050 A 
ATOM     27  C   UNL     1      -0.017   1.375   0.010  0.00  0.00    +0.004 A 
ATOM     28  C   UNL     1       0.002  -0.004   0.002  0.00  0.00    +0.012 A 
ATOM     29  C   UNL     1       1.225  -0.683  -0.013  0.00  0.00    +0.019 A 
ATOM     30  C   UNL     1       2.420   0.043  -0.021  0.00  0.00    +0.012 A 
ATOM     31  C   UNL     1       2.384   1.422  -0.013  0.00  0.00    +0.004 A 
ENDBRANCH  23  29
ENDBRANCH   1  23
BRANCH   3  32
ATOM     32  C   UNL     1       3.245  -4.910  -2.773  0.00  0.00    +0.087 C 
ATOM     33  N   UNL     1       2.752  -5.462  -3.635  0.00  0.00    -0.195 NA
ENDBRANCH   3  32
BRANCH   3  34
ATOM     34  C   UNL     1       5.328  -4.046  -1.899  0.00  0.00    +0.087 C 
ATOM     35  N   UNL     1       6.442  -3.931  -2.087  0.00  0.00    -0.195 NA
ENDBRANCH   3  34
TORSDOF 6
