REMARK  Name = ZINC38617797
REMARK  8 active torsions:
REMARK  status: ('A' for Active; 'I' for Inactive)
REMARK    1  A    between atoms: C_1  and  O_2
REMARK    2  A    between atoms: O_2  and  C_3
REMARK    3  A    between atoms: C_6  and  C_9
REMARK    4  A    between atoms: C_11  and  C_15
REMARK    5  A    between atoms: C_19  and  S_30
REMARK    6  A    between atoms: N_21  and  C_22
REMARK    7  A    between atoms: C_27  and  O_28
REMARK    8  A    between atoms: O_28  and  C_29
REMARK                            x       y       z     vdW  Elec       q    Type
REMARK                         _______ _______ _______ _____ _____    ______ ____
ROOT
ATOM      1  C   UNL     1       4.797  -4.741   5.501  0.00  0.00    +0.188 C 
ATOM      2  N   UNL     1       5.713  -3.872   4.717  0.00  0.00    -0.232 NA
ATOM      3  N   UNL     1       7.044  -4.391   5.071  0.00  0.00    -0.226 NA
ATOM      4  C   UNL     1       6.936  -4.734   6.507  0.00  0.00    +0.214 C 
ATOM      5  N   UNL     1       5.503  -4.960   6.780  0.00  0.00    -0.283 N 
ATOM      6  H   UNL     1       5.618  -2.905   4.992  0.00  0.00    +0.143 HD
ATOM      7  H   UNL     1       7.272  -5.206   4.520  0.00  0.00    +0.143 HD
ENDROOT
BRANCH   5   8
ATOM      8  C   UNL     1       4.927  -5.310   8.006  0.00  0.00    +0.075 A 
ATOM      9  C   UNL     1       4.776  -6.646   8.348  0.00  0.00    +0.027 A 
ATOM     10  C   UNL     1       4.207  -6.989   9.559  0.00  0.00    +0.002 A 
ATOM     11  C   UNL     1       3.787  -6.003  10.434  0.00  0.00    +0.004 A 
ATOM     12  C   UNL     1       3.935  -4.669  10.100  0.00  0.00    +0.047 A 
ATOM     13  C   UNL     1       4.509  -4.317   8.890  0.00  0.00    +0.141 A 
BRANCH  13  14
ATOM     14  O   UNL     1       4.660  -3.006   8.563  0.00  0.00    -0.493 OA
ATOM     15  C   UNL     1       4.209  -2.043   9.518  0.00  0.00    +0.277 C 
ENDBRANCH  13  14
ENDBRANCH   5   8
BRANCH   1  18
ATOM     16  C   UNL     1       2.577  -2.541   4.295  0.00  0.00    +0.091 C 
ATOM     17  C   UNL     1       2.697  -3.875   4.440  0.00  0.00    +0.034 C 
ATOM     18  C   UNL     1       3.462  -4.032   5.742  0.00  0.00    +0.189 C 
ATOM     19  N   UNL     1       3.679  -2.642   6.174  0.00  0.00    -0.176 NA
ATOM     20  N   UNL     1       3.173  -1.896   5.332  0.00  0.00    -0.154 NA
BRANCH  16  24
ATOM     21  C   UNL     1       0.626  -0.618   1.041  0.00  0.00    +0.120 A 
ATOM     22  C   UNL     1       1.202   0.142   2.050  0.00  0.00    +0.046 A 
ATOM     23  C   UNL     1       1.835  -0.479   3.107  0.00  0.00    +0.013 A 
ATOM     24  C   UNL     1       1.896  -1.870   3.161  0.00  0.00    +0.002 A 
ATOM     25  C   UNL     1       1.317  -2.631   2.146  0.00  0.00    +0.013 A 
ATOM     26  C   UNL     1       0.681  -2.005   1.095  0.00  0.00    +0.046 A 
BRANCH  21  28
ATOM     27  C   UNL     1      -0.017   1.425   0.010  0.00  0.00    +0.277 C 
ATOM     28  O   UNL     1       0.002  -0.004   0.002  0.00  0.00    -0.495 OA
ENDBRANCH  21  28
ENDBRANCH  16  24
ENDBRANCH   1  18
BRANCH   4  29
ATOM     29  S   UNL     1       7.879  -6.244   6.858  0.00  0.00    -0.139 S 
ATOM     30  H   UNL     1       9.145  -5.917   6.542  0.00  0.00    +0.105 HD
ENDBRANCH   4  29
TORSDOF 6
