REMARK  Name = ZINC28054232
REMARK  7 active torsions:
REMARK  status: ('A' for Active; 'I' for Inactive)
REMARK    1  A    between atoms: C_1  and  C_2
REMARK    2  A    between atoms: C_5  and  C_8
REMARK    3  A    between atoms: C_19  and  C_21
REMARK    4  A    between atoms: C_25  and  O_29
REMARK    5  A    between atoms: C_26  and  O_27
REMARK    6  A    between atoms: O_27  and  C_28
REMARK    7  A    between atoms: O_29  and  C_30
REMARK                            x       y       z     vdW  Elec       q    Type
REMARK                         _______ _______ _______ _____ _____    ______ ____
ROOT
ATOM      1  C   UNL     1      -1.320  -2.300  -2.016  0.00  0.00    +0.174 C 
ATOM      2  C   UNL     1      -1.741  -1.036  -1.308  0.00  0.00    +0.026 C 
ATOM      3  C   UNL     1      -2.510  -0.113  -1.890  0.00  0.00    +0.050 C 
ATOM      4  C   UNL     1      -2.874   1.095  -1.111  0.00  0.00    +0.038 A 
ATOM      5  C   UNL     1      -3.357   2.241  -1.730  0.00  0.00    +0.013 A 
ATOM      6  C   UNL     1      -3.688   3.341  -0.962  0.00  0.00    +0.001 A 
ATOM      7  C   UNL     1      -3.537   3.304   0.413  0.00  0.00    +0.004 A 
ATOM      8  C   UNL     1      -3.054   2.167   1.037  0.00  0.00    +0.046 A 
ATOM      9  C   UNL     1      -2.720   1.059   0.281  0.00  0.00    +0.131 A 
ATOM     10  O   UNL     1      -2.237  -0.073   0.853  0.00  0.00    -0.479 OA
ATOM     11  C   UNL     1      -1.267  -0.812   0.111  0.00  0.00    +0.238 C 
ATOM     12  N   UNL     1      -2.986  -0.254  -3.199  0.00  0.00    -0.282 N 
ATOM     13  C   UNL     1      -2.878  -1.507  -3.781  0.00  0.00    +0.240 A 
ATOM     14  N   UNL     1      -2.103  -2.478  -3.231  0.00  0.00    -0.201 N 
ATOM     15  N   UNL     1      -2.245  -3.584  -4.067  0.00  0.00    -0.042 NA
ATOM     16  N   UNL     1      -3.046  -3.227  -5.018  0.00  0.00    -0.021 NA
ATOM     17  N   UNL     1      -3.419  -2.004  -4.856  0.00  0.00    -0.092 NA
ATOM     18  H   UNL     1      -3.422   0.609  -3.721  0.00  0.00    +0.155 HD
ENDROOT
BRANCH   1  23
ATOM     19  C   UNL     1       4.284  -1.957  -3.381  0.00  0.00    +0.044 C 
ATOM     20  C   UNL     1       2.823  -2.047  -3.026  0.00  0.00    -0.050 A 
ATOM     21  C   UNL     1       2.392  -2.979  -2.100  0.00  0.00    +0.004 A 
ATOM     22  C   UNL     1       1.052  -3.061  -1.774  0.00  0.00    +0.006 A 
ATOM     23  C   UNL     1       0.141  -2.211  -2.372  0.00  0.00    -0.019 A 
ATOM     24  C   UNL     1       0.571  -1.282  -3.301  0.00  0.00    +0.006 A 
ATOM     25  C   UNL     1       1.912  -1.197  -3.625  0.00  0.00    +0.004 A 
ENDBRANCH   1  23
BRANCH  11  26
ATOM     26  C   UNL     1       0.030  -0.045   0.086  0.00  0.00    +0.042 A 
ATOM     27  C   UNL     1       0.292   0.837  -0.946  0.00  0.00    +0.011 A 
ATOM     28  C   UNL     1       1.480   1.542  -0.972  0.00  0.00    +0.004 A 
ATOM     29  C   UNL     1       2.413   1.369   0.035  0.00  0.00    +0.049 A 
ATOM     30  C   UNL     1       2.156   0.487   1.072  0.00  0.00    +0.162 A 
ATOM     31  C   UNL     1       0.959  -0.224   1.097  0.00  0.00    +0.168 A 
BRANCH  31  32
ATOM     32  O   UNL     1       0.703  -1.091   2.113  0.00  0.00    -0.491 OA
ATOM     33  C   UNL     1       1.227  -2.414   1.985  0.00  0.00    +0.277 C 
ENDBRANCH  31  32
BRANCH  30  34
ATOM     34  O   UNL     1       3.072   0.315   2.063  0.00  0.00    -0.491 OA
ATOM     35  C   UNL     1       4.277   1.077   1.971  0.00  0.00    +0.277 C 
ENDBRANCH  30  34
ENDBRANCH  11  26
TORSDOF 4
