REMARK  Name = ZINC64058384
REMARK  4 active torsions:
REMARK  status: ('A' for Active; 'I' for Inactive)
REMARK    1  A    between atoms: C_8  and  C_16
REMARK    2  A    between atoms: N_18  and  C_19
REMARK    3  A    between atoms: C_19  and  C_20
REMARK    4  A    between atoms: C_25  and  C_31
REMARK                            x       y       z     vdW  Elec       q    Type
REMARK                         _______ _______ _______ _____ _____    ______ ____
ROOT
ATOM      1  C   UNL     1       3.366  -2.176  -2.423  0.00  0.00    +0.219 C 
ATOM      2  O   UNL     1       2.814  -1.096  -2.411  0.00  0.00    -0.275 OA
ATOM      3  N   UNL     1       3.721  -2.739  -3.595  0.00  0.00    -0.311 N 
ATOM      4  H   UNL     1       4.162  -3.602  -3.604  0.00  0.00    +0.149 HD
ENDROOT
BRANCH   1  11
ATOM      5  C   UNL     1      -0.016   1.347   0.009  0.00  0.00    +0.001 A 
ATOM      6  C   UNL     1       1.165   2.101   0.002  0.00  0.00    +0.002 A 
ATOM      7  C   UNL     1       2.390   1.534  -0.009  0.00  0.00    +0.026 A 
ATOM      8  C   UNL     1       2.530   0.120  -0.014  0.00  0.00    +0.043 A 
ATOM      9  N   UNL     1       3.592  -0.653  -0.047  0.00  0.00    -0.377 N 
ATOM     10  C   UNL     1       3.156  -2.044   0.048  0.00  0.00    +0.118 C 
ATOM     11  C   UNL     1       3.655  -2.889  -1.127  0.00  0.00    +0.101 C 
ATOM     12  C   UNL     1       2.925  -4.236  -1.102  0.00  0.00    +0.015 C 
ATOM     13  C   UNL     1       1.430  -4.058  -1.357  0.00  0.00    +0.005 C 
ATOM     14  C   UNL     1       0.797  -3.238  -0.219  0.00  0.00    +0.033 C 
ATOM     15  C   UNL     1       1.639  -1.997  -0.033  0.00  0.00    -0.038 C 
ATOM     16  C   UNL     1       1.294  -0.702  -0.015  0.00  0.00    -0.001 A 
ATOM     17  C   UNL     1       0.002  -0.004   0.002  0.00  0.00    +0.010 A 
ATOM     18  H   UNL     1       4.511  -0.351  -0.121  0.00  0.00    +0.160 HD
ENDBRANCH   1  11
BRANCH   3  19
ATOM     19  C   UNL     1       3.440  -2.046  -4.855  0.00  0.00    +0.149 C 
BRANCH  19  20
ATOM     20  C   UNL     1       3.941  -2.893  -6.026  0.00  0.00    +0.195 C 
ATOM     21  C   UNL     1       3.715  -2.160  -7.369  0.00  0.00    +0.085 C 
ATOM     22  C   UNL     1       3.359  -3.307  -8.296  0.00  0.00    -0.000 A 
ATOM     23  C   UNL     1       3.308  -3.401  -9.668  0.00  0.00    +0.016 A 
ATOM     24  C   UNL     1       2.949  -4.607 -10.269  0.00  0.00    -0.013 A 
ATOM     25  C   UNL     1       2.645  -5.708  -9.471  0.00  0.00    +0.032 A 
ATOM     26  C   UNL     1       2.695  -5.605  -8.098  0.00  0.00    +0.083 A 
ATOM     27  C   UNL     1       3.050  -4.399  -7.494  0.00  0.00    +0.143 A 
ATOM     28  O   UNL     1       3.146  -4.082  -6.170  0.00  0.00    -0.485 OA
ATOM     29 CL   UNL     1       2.314  -6.983  -7.114  0.00  0.00    -0.080 Cl
BRANCH  24  30
ATOM     30  C   UNL     1       2.891  -4.716 -11.747  0.00  0.00    +0.018 A 
ATOM     31  C   UNL     1       3.198  -3.623 -12.561  0.00  0.00    +0.122 A 
ATOM     32  N   UNL     1       3.134  -3.764 -13.874  0.00  0.00    -0.243 NA
ATOM     33  C   UNL     1       2.787  -4.914 -14.416  0.00  0.00    +0.221 A 
ATOM     34  N   UNL     1       2.489  -5.970 -13.685  0.00  0.00    -0.243 NA
ATOM     35  C   UNL     1       2.533  -5.918 -12.365  0.00  0.00    +0.122 A 
ENDBRANCH  24  30
ENDBRANCH  19  20
ENDBRANCH   3  19
TORSDOF 4
