REMARK  Name = ZINC09360969
REMARK  6 active torsions:
REMARK  status: ('A' for Active; 'I' for Inactive)
REMARK    1  A    between atoms: C_4  and  O_7
REMARK    2  A    between atoms: O_7  and  C_8
REMARK    3  A    between atoms: C_8  and  C_9
REMARK    4  A    between atoms: N_11  and  C_12
REMARK    5  A    between atoms: C_12  and  N_14
REMARK    6  A    between atoms: C_18  and  C_21
REMARK                            x       y       z     vdW  Elec       q    Type
REMARK                         _______ _______ _______ _____ _____    ______ ____
ROOT
ATOM      1  N   UNL     1       6.572  -5.761  -0.163  0.00  0.00    -0.169 NA
ATOM      2  C   UNL     1       7.804  -6.254  -0.246  0.00  0.00    +0.162 A 
ATOM      3  N   UNL     1       8.184  -7.556  -0.375  0.00  0.00    -0.335 N 
ATOM      4  H   UNL     1       7.521  -8.262  -0.417  0.00  0.00    +0.168 HD
ATOM      5  C   UNL     1       9.519  -7.848  -0.444  0.00  0.00    +0.055 A 
ATOM      6  C   UNL     1      10.376  -6.803  -0.378  0.00  0.00    +0.074 A 
ATOM      7  S   UNL     1       9.262  -5.419  -0.225  0.00  0.00    -0.060 S 
ENDROOT
BRANCH   5   8
ATOM      8  C   UNL     1      10.001  -9.236  -0.583  0.00  0.00    +0.007 A 
ATOM      9  C   UNL     1      10.859  -9.779   0.362  0.00  0.00    +0.010 A 
ATOM     10  C   UNL     1      11.316 -11.084   0.237  0.00  0.00    +0.001 A 
ATOM     11  C   UNL     1      10.938 -11.867  -0.813  0.00  0.00    +0.008 A 
ATOM     12  C   UNL     1      10.070 -11.358  -1.795  0.00  0.00    -0.017 A 
ATOM     13  C   UNL     1       9.588 -10.031  -1.681  0.00  0.00    -0.009 A 
ATOM     14  C   UNL     1       8.718  -9.527  -2.657  0.00  0.00    +0.009 A 
ATOM     15  C   UNL     1       8.342 -10.320  -3.700  0.00  0.00    +0.001 A 
ATOM     16  C   UNL     1       8.810 -11.627  -3.810  0.00  0.00    +0.001 A 
ATOM     17  C   UNL     1       9.666 -12.145  -2.887  0.00  0.00    +0.008 A 
ENDBRANCH   5   8
BRANCH   1  18
ATOM     18  C   UNL     1       6.381  -4.440  -0.156  0.00  0.00    +0.163 C 
ATOM     19  S   UNL     1       7.725  -3.380  -0.106  0.00  0.00    -0.016 S 
BRANCH  18  22
ATOM     20  C   UNL     1       4.936  -2.606  -0.183  0.00  0.00    +0.256 C 
ATOM     21  O   UNL     1       5.888  -1.856  -0.148  0.00  0.00    -0.272 OA
ATOM     22  N   UNL     1       5.129  -3.940  -0.190  0.00  0.00    -0.263 N 
ATOM     23  H   UNL     1       4.368  -4.540  -0.218  0.00  0.00    +0.157 HD
BRANCH  20  24
ATOM     24  C   UNL     1       3.537  -2.047  -0.220  0.00  0.00    +0.324 C 
BRANCH  24  25
ATOM     25  O   UNL     1       3.594  -0.619  -0.205  0.00  0.00    -0.483 OA
BRANCH  25  29
ATOM     26  C   UNL     1      -0.002   1.400  -0.296  0.00  0.00    +0.000 A 
ATOM     27  C   UNL     1       1.186   2.107  -0.253  0.00  0.00    +0.004 A 
ATOM     28  C   UNL     1       2.391   1.433  -0.223  0.00  0.00    +0.045 A 
ATOM     29  C   UNL     1       2.410   0.046  -0.235  0.00  0.00    +0.121 A 
ATOM     30  C   UNL     1       1.217  -0.661  -0.278  0.00  0.00    +0.045 A 
ATOM     31  C   UNL     1       0.014   0.018  -0.309  0.00  0.00    +0.004 A 
ENDBRANCH  25  29
ENDBRANCH  24  25
ENDBRANCH  20  24
ENDBRANCH  18  22
ENDBRANCH   1  18
TORSDOF 6
