REMARK  Name = ZINC19641836
REMARK  5 active torsions:
REMARK  status: ('A' for Active; 'I' for Inactive)
REMARK    1  A    between atoms: C_4  and  N_7
REMARK    2  A    between atoms: C_8  and  C_10
REMARK    3  A    between atoms: C_14  and  N_15
REMARK    4  A    between atoms: C_16  and  C_18
REMARK    5  A    between atoms: C_27  and  C_29
REMARK                            x       y       z     vdW  Elec       q    Type
REMARK                         _______ _______ _______ _____ _____    ______ ____
ROOT
ATOM      1  C   UNL     1      -3.377  -2.373   2.456  0.00  0.00    +0.069 A 
ATOM      2  C   UNL     1      -3.554  -3.393   3.476  0.00  0.00    -0.023 A 
ATOM      3  C   UNL     1      -2.722  -3.298   4.535  0.00  0.00    -0.004 A 
ATOM      4  S   UNL     1      -1.710  -1.887   4.191  0.00  0.00    -0.077 S 
ATOM      5  C   UNL     1      -2.382  -1.427   2.662  0.00  0.00    +0.084 A 
ATOM      6  C   UNL     1      -2.678  -4.197   5.732  0.00  0.00    +0.043 C 
ATOM      7  C   UNL     1      -3.970  -5.027   5.762  0.00  0.00    +0.005 C 
ATOM      8  C   UNL     1      -4.210  -5.615   4.368  0.00  0.00    +0.005 C 
ATOM      9  C   UNL     1      -4.597  -4.501   3.393  0.00  0.00    +0.037 C 
ENDROOT
BRANCH   1  11
ATOM     10  N   UNL     1      -5.366  -1.646   1.250  0.00  0.00    -0.308 N 
ATOM     11  C   UNL     1      -4.215  -2.346   1.253  0.00  0.00    +0.247 C 
ATOM     12  O   UNL     1      -3.870  -2.956   0.258  0.00  0.00    -0.270 OA
ATOM     13  H   UNL     1      -5.678  -1.095   2.150  0.00  0.00    +0.149 HD
BRANCH  10  17
ATOM     14  C   UNL     1      -8.030  -0.208  -1.756  0.00  0.00    +0.000 C 
ATOM     15  C   UNL     1      -8.528  -1.304  -0.812  0.00  0.00    +0.002 C 
ATOM     16  C   UNL     1      -7.654  -1.332   0.443  0.00  0.00    +0.022 C 
ATOM     17  C   UNL     1      -6.204  -1.619   0.048  0.00  0.00    +0.073 C 
ATOM     18  C   UNL     1      -5.705  -0.523  -0.896  0.00  0.00    +0.022 C 
ATOM     19  C   UNL     1      -6.580  -0.495  -2.151  0.00  0.00    +0.002 C 
ENDBRANCH  10  17
ENDBRANCH   1  11
BRANCH   5  20
ATOM     20  N   UNL     1      -2.018  -0.368   1.844  0.00  0.00    -0.279 N 
ATOM     21  C   UNL     1      -1.020   0.458   2.216  0.00  0.00    +0.222 C 
ATOM     22  O   UNL     1      -0.441   0.275   3.266  0.00  0.00    -0.275 OA
ATOM     23  H   UNL     1      -2.544  -0.203   0.892  0.00  0.00    +0.155 HD
BRANCH  21  24
ATOM     24  C   UNL     1      -0.625   1.609   1.327  0.00  0.00    +0.092 C 
ATOM     25  C   UNL     1      -1.501   2.861   1.637  0.00  0.00    +0.002 C 
ATOM     26  C   UNL     1      -1.472   3.008   3.189  0.00  0.00    +0.004 C 
ATOM     27  C   UNL     1       0.009   3.443   3.510  0.00  0.00    +0.004 C 
ATOM     28  C   UNL     1       0.682   3.539   2.107  0.00  0.00    +0.004 C 
ATOM     29  C   UNL     1      -0.521   4.013   1.218  0.00  0.00    +0.008 C 
ATOM     30  C   UNL     1       0.821   2.058   1.639  0.00  0.00    +0.117 C 
BRANCH  30  31
ATOM     31  C   UNL     1       1.677   1.977   0.401  0.00  0.00    +0.360 C 
ATOM     32  O   UNL     1       2.166   2.980  -0.062  0.00  0.00    -0.246 OA
ATOM     33  O   UNL     1       1.897   0.790  -0.186  0.00  0.00    -0.246 OA
ENDBRANCH  30  31
ENDBRANCH  21  24
ENDBRANCH   5  20
TORSDOF 5
