REMARK  Name = ZINC08964093
REMARK  9 active torsions:
REMARK  status: ('A' for Active; 'I' for Inactive)
REMARK    1  A    between atoms: C_1  and  N_2
REMARK    2  A    between atoms: C_9  and  C_11
REMARK    3  A    between atoms: C_11  and  C_13
REMARK    4  A    between atoms: C_11  and  N_61
REMARK    5  A    between atoms: C_13  and  N_14
REMARK    6  A    between atoms: C_15  and  C_17
REMARK    7  A    between atoms: N_19  and  C_20
REMARK    8  A    between atoms: C_25  and  S_26
REMARK    9  A    between atoms: S_26  and  C_27
REMARK                            x       y       z     vdW  Elec       q    Type
REMARK                         _______ _______ _______ _____ _____    ______ ____
ROOT
ATOM      1  C   UNL     1      -3.547   6.065  -0.910  0.00  0.00    -0.020 C 
ENDROOT
BRANCH   1  10
ATOM      2  C   UNL     1      -1.116   1.523   3.005  0.00  0.00    +0.129 C 
ATOM      3  N   UNL     1      -2.154   1.383   1.974  0.00  0.00    -0.332 N 
ATOM      4  C   UNL     1      -1.696   0.500   0.879  0.00  0.00    +0.109 C 
ATOM      5  C   UNL     1      -2.433   1.075  -0.353  0.00  0.00    +0.056 C 
ATOM      6  C   UNL     1      -2.672   2.519   0.040  0.00  0.00    -0.025 A 
ATOM      7  C   UNL     1      -2.483   2.625   1.413  0.00  0.00    +0.033 A 
ATOM      8  C   UNL     1      -2.639   3.868   2.024  0.00  0.00    +0.023 A 
ATOM      9  C   UNL     1      -2.981   4.973   1.272  0.00  0.00    +0.004 A 
ATOM     10  C   UNL     1      -3.172   4.855  -0.093  0.00  0.00    -0.059 A 
ATOM     11  C   UNL     1      -3.017   3.625  -0.707  0.00  0.00    +0.007 A 
ENDBRANCH   1  10
BRANCH   1  16
ATOM     12  C   UNL     1      -1.329   6.976  -0.491  0.00  0.00    -0.078 C 
ATOM     13  C   UNL     1      -0.720   8.401  -0.480  0.00  0.00    -0.020 C 
ATOM     14  C   UNL     1      -1.716   9.209  -1.343  0.00  0.00    -0.020 C 
ATOM     15  C   UNL     1      -3.030   8.406  -1.299  0.00  0.00    -0.078 C 
ATOM     16  N   UNL     1      -2.773   7.252  -0.437  0.00  0.00    +0.385 N 
ATOM     17  H   UNL     1      -3.049   7.471   0.527  0.00  0.00    -0.081 HD
ENDBRANCH   1  16
BRANCH   1  18
ATOM     18  C   UNL     1      -5.046   6.334  -0.762  0.00  0.00    +0.094 C 
BRANCH  18  19
ATOM     19  N   UNL     1      -5.802   5.232  -1.364  0.00  0.00    -0.309 N 
ATOM     20  C   UNL     1      -7.146   5.298  -1.438  0.00  0.00    +0.299 C 
ATOM     21  O   UNL     1      -7.730   6.271  -1.006  0.00  0.00    -0.265 OA
ATOM     22  H   UNL     1      -5.335   4.455  -1.709  0.00  0.00    +0.149 HD
BRANCH  20  23
ATOM     23  C   UNL     1      -7.916   4.176  -2.051  0.00  0.00    +0.303 C 
ATOM     24  O   UNL     1      -7.331   3.203  -2.482  0.00  0.00    -0.265 OA
ATOM     25  N   UNL     1      -9.260   4.242  -2.124  0.00  0.00    -0.277 N 
ATOM     26  H   UNL     1      -9.732   4.985  -1.717  0.00  0.00    +0.155 HD
BRANCH  25  27
ATOM     27  C   UNL     1      -9.974   3.239  -2.788  0.00  0.00    +0.047 A 
ATOM     28  C   UNL     1      -9.517   1.929  -2.767  0.00  0.00    +0.024 A 
ATOM     29  C   UNL     1     -10.228   0.939  -3.420  0.00  0.00    +0.002 A 
ATOM     30  C   UNL     1     -11.389   1.251  -4.104  0.00  0.00    +0.001 A 
ATOM     31  C   UNL     1     -11.849   2.554  -4.136  0.00  0.00    +0.016 A 
ATOM     32  C   UNL     1     -11.145   3.554  -3.480  0.00  0.00    +0.029 A 
BRANCH  32  33
ATOM     33  S   UNL     1     -11.729   5.216  -3.519  0.00  0.00    -0.127 S 
ATOM     34  C   UNL     1     -13.243   5.126  -4.513  0.00  0.00    +0.090 C 
ENDBRANCH  32  33
ENDBRANCH  25  27
ENDBRANCH  20  23
ENDBRANCH  18  19
ENDBRANCH   1  18
TORSDOF 7
