REMARK  Name = ZINC63541383
REMARK  6 active torsions:
REMARK  status: ('A' for Active; 'I' for Inactive)
REMARK    1  A    between atoms: C_1  and  C_2
REMARK    2  A    between atoms: C_5  and  S_8
REMARK    3  A    between atoms: S_8  and  N_11
REMARK    4  A    between atoms: C_16  and  C_18
REMARK    5  A    between atoms: C_18  and  S_19
REMARK    6  A    between atoms: S_19  and  C_20
REMARK                            x       y       z     vdW  Elec       q    Type
REMARK                         _______ _______ _______ _____ _____    ______ ____
ROOT
ATOM      1  N   UNL     1       1.651  -4.999  -0.034  0.00  0.00    -0.158 NA
ATOM      2  C   UNL     1       2.480  -5.233  -1.228  0.00  0.00    +0.130 C 
ATOM      3  C   UNL     1       3.934  -5.210  -0.715  0.00  0.00    +0.126 C 
ATOM      4  N   UNL     1       3.827  -5.653   0.688  0.00  0.00    -0.285 N 
ATOM      5  C   UNL     1       2.489  -5.252   1.144  0.00  0.00    +0.218 C 
ATOM      6  C   UNL     1       4.770  -6.293   1.408  0.00  0.00    +0.227 C 
ATOM      7  O   UNL     1       4.548  -6.602   2.559  0.00  0.00    -0.275 OA
ENDROOT
BRANCH   1   8
ATOM      8  S   UNL     1       0.063  -4.530  -0.023  0.00  0.00    +0.062 S 
ATOM      9  O   UNL     1      -0.476  -4.950   1.223  0.00  0.00    -0.153 OA
ATOM     10  O   UNL     1      -0.490  -4.937  -1.267  0.00  0.00    -0.153 OA
BRANCH   8  15
ATOM     11  C   UNL     1      -0.018   1.503   0.010  0.00  0.00    +0.044 C 
ATOM     12  C   UNL     1       0.002  -0.004   0.002  0.00  0.00    -0.050 A 
ATOM     13  C   UNL     1       0.006  -0.689  -1.199  0.00  0.00    +0.005 A 
ATOM     14  C   UNL     1       0.025  -2.071  -1.206  0.00  0.00    +0.029 A 
ATOM     15  C   UNL     1       0.040  -2.768  -0.013  0.00  0.00    +0.106 A 
ATOM     16  C   UNL     1       0.037  -2.084   1.188  0.00  0.00    +0.029 A 
ATOM     17  C   UNL     1       0.023  -0.702   1.195  0.00  0.00    +0.005 A 
ENDBRANCH   8  15
ENDBRANCH   1   8
BRANCH   6  18
ATOM     18  C   UNL     1       6.100  -6.624   0.781  0.00  0.00    +0.168 C 
BRANCH  18  19
ATOM     19  S   UNL     1       7.144  -7.478   1.995  0.00  0.00    -0.106 S 
BRANCH  19  20
ATOM     20  C   UNL     1       8.686  -7.802   1.096  0.00  0.00    +0.236 C 
ATOM     21  N   UNL     1       9.248  -6.544   0.589  0.00  0.00    -0.355 N 
ATOM     22  C   UNL     1       9.300  -6.635  -0.709  0.00  0.00    +0.061 A 
ATOM     23  C   UNL     1       9.759  -5.713  -1.757  0.00  0.00    +0.027 A 
ATOM     24  C   UNL     1       9.692  -6.089  -3.050  0.00  0.00    +0.002 A 
ATOM     25  C   UNL     1       9.195  -7.343  -3.450  0.00  0.00    +0.002 A 
ATOM     26  C   UNL     1       8.750  -8.262  -2.570  0.00  0.00    +0.027 A 
ATOM     27  C   UNL     1       8.775  -7.961  -1.132  0.00  0.00    +0.061 A 
ATOM     28  N   UNL     1       8.418  -8.639  -0.080  0.00  0.00    -0.355 N 
ATOM     29  H   UNL     1       9.528  -5.784   1.123  0.00  0.00    +0.162 HD
ATOM     30  H   UNL     1       8.043  -9.534  -0.073  0.00  0.00    +0.162 HD
ENDBRANCH  19  20
ENDBRANCH  18  19
ENDBRANCH   6  18
TORSDOF 5
