REMARK  Name = ZINC39654573
REMARK  8 active torsions:
REMARK  status: ('A' for Active; 'I' for Inactive)
REMARK    1  A    between atoms: C_1  and  C_2
REMARK    2  A    between atoms: C_2  and  C_3
REMARK    3  A    between atoms: C_6  and  C_9
REMARK    4  A    between atoms: C_9  and  C_10
REMARK    5  A    between atoms: C_10  and  N_11
REMARK    6  A    between atoms: C_12  and  C_14
REMARK    7  A    between atoms: C_25  and  C_27
REMARK    8  A    between atoms: C_30  and  C_32
REMARK                            x       y       z     vdW  Elec       q    Type
REMARK                         _______ _______ _______ _____ _____    ______ ____
ROOT
ATOM      1  C   UNL     1       5.056  -0.741  -8.911  0.00  0.00    +0.100 C 
ATOM      2  C   UNL     1       6.391  -1.423  -8.537  0.00  0.00    +0.121 C 
ATOM      3  N   UNL     1       7.327  -1.028  -9.617  0.00  0.00    -0.294 N 
ATOM      4  C   UNL     1       6.992   0.388  -9.897  0.00  0.00    +0.115 C 
ATOM      5  C   UNL     1       5.454   0.447  -9.802  0.00  0.00    -0.004 C 
ATOM      6  C   UNL     1       5.015   1.760  -9.160  0.00  0.00    -0.010 C 
ATOM      7  C   UNL     1       5.370   2.922 -10.092  0.00  0.00    -0.082 C 
ATOM      8  N   UNL     1       4.699   2.738 -11.384  0.00  0.00    +0.379 N 
ATOM      9  C   UNL     1       5.195   1.521 -12.037  0.00  0.00    -0.082 C 
ATOM     10  C   UNL     1       4.834   0.299 -11.188  0.00  0.00    -0.010 C 
ATOM     11  C   UNL     1       8.270  -1.787 -10.210  0.00  0.00    +0.282 C 
ATOM     12  O   UNL     1       8.967  -1.314 -11.090  0.00  0.00    -0.267 OA
ATOM     13  H   UNL     1       3.704   2.656 -11.237  0.00  0.00    -0.086 HD
ATOM     14  H   UNL     1       4.884   3.535 -11.975  0.00  0.00    -0.086 HD
ENDROOT
BRANCH  11  15
ATOM     15  C   UNL     1       8.457  -3.179  -9.797  0.00  0.00    +0.190 A 
ATOM     16  C   UNL     1       9.383  -4.059 -10.314  0.00  0.00    +0.055 A 
ATOM     17  C   UNL     1       9.213  -5.270  -9.634  0.00  0.00    +0.051 A 
ATOM     18  C   UNL     1       8.200  -5.087  -8.737  0.00  0.00    +0.139 A 
ATOM     19  O   UNL     1       7.756  -3.823  -8.840  0.00  0.00    -0.450 OA
BRANCH  18  20
ATOM     20  C   UNL     1       7.682  -6.107  -7.803  0.00  0.00    +0.052 A 
ATOM     21  C   UNL     1       7.342  -7.378  -8.272  0.00  0.00    +0.014 A 
ATOM     22  C   UNL     1       6.859  -8.327  -7.395  0.00  0.00    +0.001 A 
ATOM     23  C   UNL     1       6.711  -8.023  -6.052  0.00  0.00    +0.003 A 
ATOM     24  C   UNL     1       7.045  -6.767  -5.579  0.00  0.00    +0.039 A 
ATOM     25  C   UNL     1       7.537  -5.808  -6.445  0.00  0.00    +0.134 A 
ATOM     26  F   UNL     1       7.869  -4.583  -5.982  0.00  0.00    -0.205 F 
ENDBRANCH  18  20
ENDBRANCH  11  15
BRANCH   1  28
ATOM     27  N   UNL     1       3.006  -0.167  -7.651  0.00  0.00    -0.315 N 
ATOM     28  C   UNL     1       4.351  -0.254  -7.671  0.00  0.00    +0.218 C 
ATOM     29  O   UNL     1       4.993   0.059  -6.692  0.00  0.00    -0.275 OA
ATOM     30  H   UNL     1       2.492  -0.418  -8.435  0.00  0.00    +0.149 HD
BRANCH  27  31
ATOM     31  C   UNL     1       2.320   0.306  -6.446  0.00  0.00    +0.109 C 
BRANCH  31  32
ATOM     32  C   UNL     1       0.809   0.309  -6.687  0.00  0.00    +0.054 C 
BRANCH  32  36
ATOM     33  C   UNL     1      -1.192   1.689  -3.174  0.00  0.00    -0.048 A 
ATOM     34  C   UNL     1      -0.800   2.591  -4.146  0.00  0.00    +0.004 A 
ATOM     35  C   UNL     1      -0.152   2.145  -5.283  0.00  0.00    +0.004 A 
ATOM     36  C   UNL     1       0.104   0.796  -5.447  0.00  0.00    -0.046 A 
ATOM     37  C   UNL     1      -0.287  -0.105  -4.475  0.00  0.00    +0.004 A 
ATOM     38  C   UNL     1      -0.930   0.342  -3.337  0.00  0.00    +0.004 A 
BRANCH  33  40
ATOM     39  C   UNL     1      -0.865   2.508  -0.857  0.00  0.00    +0.009 C 
ATOM     40  C   UNL     1      -1.898   2.176  -1.935  0.00  0.00    +0.032 C 
ENDBRANCH  33  40
ENDBRANCH  32  36
ENDBRANCH  31  32
ENDBRANCH  27  31
ENDBRANCH   1  28
TORSDOF 7
