REMARK  Name = ZINC06442385
REMARK  9 active torsions:
REMARK  status: ('A' for Active; 'I' for Inactive)
REMARK    1  A    between atoms: C_1  and  C_2
REMARK    2  A    between atoms: C_7  and  C_15
REMARK    3  A    between atoms: C_13  and  C_14
REMARK    4  A    between atoms: C_15  and  C_17
REMARK    5  A    between atoms: C_15  and  N_67
REMARK    6  A    between atoms: N_21  and  C_22
REMARK    7  A    between atoms: C_22  and  C_23
REMARK    8  A    between atoms: C_26  and  O_29
REMARK    9  A    between atoms: O_29  and  C_30
REMARK                            x       y       z     vdW  Elec       q    Type
REMARK                         _______ _______ _______ _____ _____    ______ ____
ROOT
ATOM      1  C   UNL     1       5.252   1.726  -0.083  0.00  0.00    +0.039 C 
ENDROOT
BRANCH   1   8
ATOM      2  C   UNL     1      -1.381   6.038   0.930  0.00  0.00    +0.044 C 
ATOM      3  C   UNL     1      -0.265   5.037   0.772  0.00  0.00    -0.046 A 
ATOM      4  C   UNL     1      -0.539   3.680   0.877  0.00  0.00    +0.004 A 
ATOM      5  C   UNL     1       0.458   2.757   0.742  0.00  0.00    +0.010 A 
ATOM      6  C   UNL     1       1.766   3.182   0.485  0.00  0.00    -0.001 A 
ATOM      7  C   UNL     1       2.858   2.219   0.330  0.00  0.00    +0.017 A 
ATOM      8  C   UNL     1       4.106   2.689   0.083  0.00  0.00    +0.011 A 
ATOM      9  C   UNL     1       4.334   4.078  -0.020  0.00  0.00    +0.251 A 
ATOM     10  O   UNL     1       5.463   4.480  -0.243  0.00  0.00    -0.268 OA
ATOM     11  N   UNL     1       3.338   4.970   0.121  0.00  0.00    -0.322 N 
ATOM     12  H   UNL     1       3.530   5.917   0.043  0.00  0.00    +0.169 HD
ATOM     13  C   UNL     1       2.047   4.556   0.374  0.00  0.00    +0.052 A 
ATOM     14  C   UNL     1       1.016   5.478   0.520  0.00  0.00    -0.024 A 
ATOM     15  C   UNL     1       1.298   6.954   0.404  0.00  0.00    +0.046 C 
ENDBRANCH   1   8
BRANCH   1  22
ATOM     16  C   UNL     1       7.568   1.335   0.541  0.00  0.00    -0.077 C 
ATOM     17  C   UNL     1       8.606   1.448   1.625  0.00  0.00    -0.019 C 
ATOM     18  C   UNL     1       8.457   0.240   2.574  0.00  0.00    -0.002 C 
ATOM     19  C   UNL     1       7.348   0.406   3.507  0.00  0.00    -0.002 C 
ATOM     20  C   UNL     1       5.992   0.539   2.783  0.00  0.00    -0.019 C 
ATOM     21  C   UNL     1       5.868   1.944   2.258  0.00  0.00    -0.077 C 
ATOM     22  N   UNL     1       6.326   2.127   0.838  0.00  0.00    +0.389 N 
ATOM     23  H   UNL     1       6.534   3.122   0.692  0.00  0.00    -0.080 HD
ENDBRANCH   1  22
BRANCH   1  24
ATOM     24  C   UNL     1       5.775   1.804  -1.495  0.00  0.00    +0.143 A 
ATOM     25  N   UNL     1       6.380   2.826  -2.049  0.00  0.00    -0.115 NA
ATOM     26  N   UNL     1       6.672   2.505  -3.262  0.00  0.00    -0.023 NA
ATOM     27  N   UNL     1       6.270   1.305  -3.496  0.00  0.00    -0.044 NA
ATOM     28  N   UNL     1       5.716   0.837  -2.429  0.00  0.00    -0.226 N 
BRANCH  28  29
ATOM     29  C   UNL     1       5.130  -0.496  -2.265  0.00  0.00    +0.182 C 
BRANCH  29  30
ATOM     30  C   UNL     1       3.708  -0.483  -2.764  0.00  0.00    -0.026 A 
ATOM     31  C   UNL     1       2.665  -0.315  -1.872  0.00  0.00    +0.009 A 
ATOM     32  C   UNL     1       1.361  -0.298  -2.327  0.00  0.00    +0.046 A 
ATOM     33  C   UNL     1       1.097  -0.461  -3.679  0.00  0.00    +0.120 A 
ATOM     34  C   UNL     1       2.145  -0.635  -4.572  0.00  0.00    +0.046 A 
ATOM     35  C   UNL     1       3.447  -0.646  -4.112  0.00  0.00    +0.009 A 
BRANCH  33  36
ATOM     36  O   UNL     1      -0.185  -0.450  -4.129  0.00  0.00    -0.495 OA
ATOM     37  C   UNL     1      -1.213  -0.266  -3.154  0.00  0.00    +0.277 C 
ENDBRANCH  33  36
ENDBRANCH  29  30
ENDBRANCH  28  29
ENDBRANCH   1  24
TORSDOF 6
