REMARK  Name = ZINC07473713
REMARK  6 active torsions:
REMARK  status: ('A' for Active; 'I' for Inactive)
REMARK    1  A    between atoms: C_1  and  C_2
REMARK    2  A    between atoms: N_11  and  C_15
REMARK    3  A    between atoms: C_15  and  C_16
REMARK    4  A    between atoms: N_18  and  C_19
REMARK    5  A    between atoms: C_19  and  C_21
REMARK    6  A    between atoms: C_19  and  C_22
REMARK                            x       y       z     vdW  Elec       q    Type
REMARK                         _______ _______ _______ _____ _____    ______ ____
ROOT
ATOM      1  C   UNL     1      -1.709   0.681   1.710  0.00  0.00    +0.231 C 
ATOM      2  O   UNL     1      -1.977  -0.362   1.152  0.00  0.00    -0.274 OA
ATOM      3  N   UNL     1      -0.741   1.479   1.217  0.00  0.00    -0.307 N 
ATOM      4  H   UNL     1      -0.527   2.313   1.663  0.00  0.00    +0.149 HD
ENDROOT
BRANCH   3   5
ATOM      5  C   UNL     1      -0.013   1.086   0.008  0.00  0.00    +0.101 C 
ATOM      6  C   UNL     1      -0.773   1.575  -1.227  0.00  0.00    +0.033 C 
BRANCH   5   7
ATOM      7  C   UNL     1       1.363   1.702   0.028  0.00  0.00    -0.020 A 
ATOM      8  C   UNL     1       1.583   2.863   0.703  0.00  0.00    +0.006 A 
ATOM      9  C   UNL     1       2.848   3.445   0.736  0.00  0.00    +0.001 A 
ATOM     10  C   UNL     1       3.899   2.874   0.086  0.00  0.00    +0.008 A 
ATOM     11  C   UNL     1       3.710   1.677  -0.625  0.00  0.00    -0.018 A 
ATOM     12  C   UNL     1       2.423   1.083  -0.655  0.00  0.00    -0.013 A 
ATOM     13  C   UNL     1       2.234  -0.114  -1.367  0.00  0.00    +0.009 A 
ATOM     14  C   UNL     1       3.285  -0.686  -2.015  0.00  0.00    +0.001 A 
ATOM     15  C   UNL     1       4.550  -0.101  -1.986  0.00  0.00    +0.001 A 
ATOM     16  C   UNL     1       4.771   1.058  -1.307  0.00  0.00    +0.008 A 
ENDBRANCH   5   7
ENDBRANCH   3   5
BRANCH   1  17
ATOM     17  C   UNL     1      -2.458   1.085   2.953  0.00  0.00    +0.213 C 
BRANCH  17  27
ATOM     18  C   UNL     1      -3.814  -3.078   2.114  0.00  0.00    +0.010 C 
ATOM     19  C   UNL     1      -4.309  -3.179   3.558  0.00  0.00    +0.018 C 
ATOM     20  C   UNL     1      -5.639  -3.936   3.590  0.00  0.00    +0.006 C 
ATOM     21  C   UNL     1      -6.144  -4.018   5.032  0.00  0.00    +0.000 C 
ATOM     22  C   UNL     1      -6.359  -2.605   5.579  0.00  0.00    +0.003 C 
ATOM     23  C   UNL     1      -5.032  -1.843   5.556  0.00  0.00    +0.035 C 
ATOM     24  C   UNL     1      -4.505  -1.777   4.127  0.00  0.00    +0.115 C 
ATOM     25  C   UNL     1      -3.207  -1.003   4.079  0.00  0.00    +0.247 C 
ATOM     26  O   UNL     1      -2.168  -1.278   4.639  0.00  0.00    -0.273 OA
ATOM     27  N   UNL     1      -3.450   0.058   3.281  0.00  0.00    -0.215 N 
ATOM     28  C   UNL     1      -4.711   0.059   2.832  0.00  0.00    +0.310 C 
ATOM     29  O   UNL     1      -5.168   0.916   2.102  0.00  0.00    -0.252 OA
ATOM     30  N   UNL     1      -5.416  -0.999   3.277  0.00  0.00    -0.285 N 
ATOM     31  H   UNL     1      -6.343  -1.204   3.079  0.00  0.00    +0.151 HD
ENDBRANCH  17  27
ENDBRANCH   1  17
TORSDOF 4
