REMARK  Name = ZINC38659749
REMARK  14 active torsions:
REMARK  status: ('A' for Active; 'I' for Inactive)
REMARK    1  A    between atoms: C_1  and  O_2
REMARK    2  A    between atoms: O_2  and  C_3
REMARK    3  A    between atoms: C_6  and  O_36
REMARK    4  A    between atoms: C_7  and  C_9
REMARK    5  A    between atoms: C_14  and  O_23
REMARK    6  A    between atoms: C_18  and  N_22
REMARK    7  A    between atoms: C_19  and  C_20
REMARK    8  A    between atoms: O_23  and  C_24
REMARK    9  A    between atoms: C_24  and  C_26
REMARK   10  A    between atoms: C_26  and  O_27
REMARK   11  A    between atoms: O_27  and  C_28
REMARK   12  A    between atoms: C_33  and  O_34
REMARK   13  A    between atoms: O_34  and  C_35
REMARK   14  A    between atoms: O_36  and  C_37
REMARK                            x       y       z     vdW  Elec       q    Type
REMARK                         _______ _______ _______ _____ _____    ______ ____
ROOT
ATOM      1  C   UNL     1      -2.477  -4.165   0.043  0.00  0.00    +0.102 C 
ATOM      2  C   UNL     1      -1.818  -4.691  -1.205  0.00  0.00    +0.008 A 
ATOM      3  C   UNL     1      -2.527  -4.708  -2.393  0.00  0.00    +0.012 A 
ATOM      4  C   UNL     1      -1.938  -5.186  -3.547  0.00  0.00    +0.047 A 
ATOM      5  C   UNL     1      -0.631  -5.652  -3.518  0.00  0.00    +0.135 A 
ATOM      6  C   UNL     1       0.081  -5.636  -2.329  0.00  0.00    +0.093 A 
ATOM      7  C   UNL     1      -0.512  -5.154  -1.170  0.00  0.00    +0.138 A 
ATOM      8  O   UNL     1       0.198  -5.145  -0.015  0.00  0.00    -0.441 OA
ATOM      9  C   UNL     1      -0.441  -5.061   1.164  0.00  0.00    +0.199 C 
ATOM     10  C   UNL     1      -1.708  -4.604   1.257  0.00  0.00    +0.098 C 
ENDROOT
BRANCH   1  15
ATOM     11  C   UNL     1      -1.369  -0.557  -0.133  0.00  0.00    +0.121 A 
ATOM     12  C   UNL     1      -2.586   0.109  -0.102  0.00  0.00    +0.049 A 
ATOM     13  C   UNL     1      -3.763  -0.608  -0.023  0.00  0.00    +0.049 A 
ATOM     14  C   UNL     1      -3.730  -1.994   0.024  0.00  0.00    +0.124 A 
ATOM     15  C   UNL     1      -2.514  -2.659  -0.008  0.00  0.00    +0.010 A 
ATOM     16  C   UNL     1      -1.336  -1.942  -0.092  0.00  0.00    +0.053 A 
BRANCH  11  18
ATOM     17  C   UNL     1      -0.318   1.574  -0.248  0.00  0.00    +0.277 C 
ATOM     18  O   UNL     1      -0.209   0.149  -0.209  0.00  0.00    -0.495 OA
ENDBRANCH  11  18
BRANCH  14  19
ATOM     19  O   UNL     1      -4.889  -2.700   0.101  0.00  0.00    -0.495 OA
ATOM     20  C   UNL     1      -6.105  -1.949   0.130  0.00  0.00    +0.277 C 
ENDBRANCH  14  19
ENDBRANCH   1  15
BRANCH   9  21
ATOM     21  N   UNL     1       0.215  -5.450   2.306  0.00  0.00    -0.328 N 
ATOM     22  H   UNL     1       1.125  -5.780   2.254  0.00  0.00    +0.145 HD
ATOM     23  H   UNL     1      -0.233  -5.395   3.165  0.00  0.00    +0.145 HD
ENDBRANCH   9  21
BRANCH  10  24
ATOM     24  C   UNL     1      -2.332  -4.537   2.545  0.00  0.00    +0.101 C 
ATOM     25  N   UNL     1      -2.827  -4.484   3.566  0.00  0.00    -0.191 NA
ENDBRANCH  10  24
BRANCH   5  26
ATOM     26  O   UNL     1      -0.051  -6.124  -4.653  0.00  0.00    -0.423 OA
BRANCH  26  27
ATOM     27  C   UNL     1       0.204  -7.440  -4.731  0.00  0.00    +0.350 C 
ATOM     28  O   UNL     1      -0.175  -8.181  -3.855  0.00  0.00    -0.247 OA
BRANCH  27  29
ATOM     29  C   UNL     1       0.962  -7.992  -5.910  0.00  0.00    +0.349 C 
BRANCH  29  30
ATOM     30  O   UNL     1       1.105  -9.406  -5.764  0.00  0.00    -0.477 OA
BRANCH  30  31
ATOM     31  C   UNL     1       1.770 -10.065  -6.751  0.00  0.00    +0.163 A 
ATOM     32  C   UNL     1       2.279  -9.364  -7.832  0.00  0.00    +0.049 A 
ATOM     33  C   UNL     1       2.956 -10.034  -8.834  0.00  0.00    +0.004 A 
ATOM     34  C   UNL     1       3.126 -11.404  -8.761  0.00  0.00    +0.004 A 
ATOM     35  C   UNL     1       2.620 -12.110  -7.685  0.00  0.00    +0.049 A 
ATOM     36  C   UNL     1       1.946 -11.443  -6.674  0.00  0.00    +0.162 A 
BRANCH  36  37
ATOM     37  O   UNL     1       1.454 -12.134  -5.612  0.00  0.00    -0.491 OA
ATOM     38  C   UNL     1       1.672 -13.547  -5.600  0.00  0.00    +0.277 C 
ENDBRANCH  36  37
ENDBRANCH  30  31
ENDBRANCH  29  30
ENDBRANCH  27  29
ENDBRANCH  26  27
ENDBRANCH   5  26
TORSDOF 11
