REMARK  Name = ZINC39609673
REMARK  6 active torsions:
REMARK  status: ('A' for Active; 'I' for Inactive)
REMARK    1  A    between atoms: C_6  and  C_7
REMARK    2  A    between atoms: C_7  and  N_8
REMARK    3  A    between atoms: C_9  and  C_11
REMARK    4  A    between atoms: C_22  and  C_24
REMARK    5  A    between atoms: C_24  and  C_25
REMARK    6  A    between atoms: C_25  and  C_26
REMARK                            x       y       z     vdW  Elec       q    Type
REMARK                         _______ _______ _______ _____ _____    ______ ____
ROOT
ATOM      1  C   UNL     1      -3.313  -1.943  -3.024  0.00  0.00    +0.100 C 
ATOM      2  C   UNL     1      -2.224  -2.715  -3.802  0.00  0.00    +0.121 C 
ATOM      3  N   UNL     1      -2.622  -4.138  -3.691  0.00  0.00    -0.300 N 
ATOM      4  C   UNL     1      -4.099  -4.119  -3.825  0.00  0.00    +0.115 C 
ATOM      5  C   UNL     1      -4.543  -2.866  -3.044  0.00  0.00    -0.004 C 
ATOM      6  C   UNL     1      -5.705  -2.183  -3.759  0.00  0.00    -0.010 C 
ATOM      7  C   UNL     1      -6.933  -3.096  -3.715  0.00  0.00    -0.082 C 
ATOM      8  N   UNL     1      -7.287  -3.376  -2.318  0.00  0.00    +0.379 N 
ATOM      9  C   UNL     1      -6.201  -4.116  -1.664  0.00  0.00    -0.082 C 
ATOM     10  C   UNL     1      -4.942  -3.245  -1.621  0.00  0.00    -0.010 C 
ATOM     11  C   UNL     1      -1.823  -5.208  -3.509  0.00  0.00    +0.216 C 
ATOM     12  O   UNL     1      -2.304  -6.319  -3.438  0.00  0.00    -0.276 OA
ATOM     13  H   UNL     1      -7.441  -2.506  -1.831  0.00  0.00    -0.086 HD
ATOM     14  H   UNL     1      -8.132  -3.927  -2.291  0.00  0.00    -0.086 HD
ENDROOT
BRANCH   1  16
ATOM     15  N   UNL     1      -3.326  -0.619  -0.935  0.00  0.00    -0.311 N 
ATOM     16  C   UNL     1      -2.867  -1.694  -1.606  0.00  0.00    +0.218 C 
ATOM     17  O   UNL     1      -2.095  -2.460  -1.070  0.00  0.00    -0.275 OA
ATOM     18  H   UNL     1      -3.944  -0.006  -1.364  0.00  0.00    +0.149 HD
BRANCH  15  19
ATOM     19  C   UNL     1      -2.893  -0.377   0.444  0.00  0.00    +0.139 C 
BRANCH  19  25
ATOM     20  C   UNL     1      -4.768   0.807   1.604  0.00  0.00    +0.007 A 
ATOM     21  C   UNL     1      -5.368   1.958   2.080  0.00  0.00    +0.022 A 
ATOM     22  C   UNL     1      -4.745   3.182   1.915  0.00  0.00    +0.059 A 
ATOM     23  C   UNL     1      -3.521   3.253   1.272  0.00  0.00    +0.060 A 
ATOM     24  C   UNL     1      -2.922   2.101   0.796  0.00  0.00    +0.026 A 
ATOM     25  C   UNL     1      -3.546   0.879   0.962  0.00  0.00    -0.029 A 
ATOM     26 CL   UNL     1      -2.738   4.789   1.064  0.00  0.00    -0.082 Cl
ATOM     27 CL   UNL     1      -5.498   4.627   2.513  0.00  0.00    -0.082 Cl
ENDBRANCH  19  25
ENDBRANCH  15  19
ENDBRANCH   1  16
BRANCH  11  28
ATOM     28  C   UNL     1      -0.332  -5.023  -3.395  0.00  0.00    +0.096 C 
BRANCH  28  29
ATOM     29  C   UNL     1       0.337  -6.385  -3.195  0.00  0.00    +0.013 C 
BRANCH  29  30
ATOM     30  C   UNL     1       1.851  -6.197  -3.079  0.00  0.00    -0.011 C 
ATOM     31  C   UNL     1       2.431  -5.730  -4.430  0.00  0.00    +0.003 C 
ATOM     32  C   UNL     1       3.796  -6.454  -4.529  0.00  0.00    +0.000 C 
ATOM     33  C   UNL     1       3.491  -7.844  -3.917  0.00  0.00    +0.000 C 
ATOM     34  C   UNL     1       2.525  -7.542  -2.753  0.00  0.00    +0.003 C 
ENDBRANCH  29  30
ENDBRANCH  28  29
ENDBRANCH  11  28
TORSDOF 6
