REMARK  Name = ZINC35768638
REMARK  7 active torsions:
REMARK  status: ('A' for Active; 'I' for Inactive)
REMARK    1  A    between atoms: C_1  and  C_2
REMARK    2  A    between atoms: C_2  and  C_3
REMARK    3  A    between atoms: C_12  and  C_13
REMARK    4  A    between atoms: C_13  and  C_15
REMARK    5  A    between atoms: C_13  and  C_25
REMARK    6  A    between atoms: C_15  and  C_16
REMARK    7  A    between atoms: C_21  and  C_24
REMARK                            x       y       z     vdW  Elec       q    Type
REMARK                         _______ _______ _______ _____ _____    ______ ____
ROOT
ATOM      1  C   UNL     1      -5.233  -1.635  -3.040  0.00  0.00    +0.066 C 
ENDROOT
BRANCH   1  11
ATOM      2  C   UNL     1      -1.412  -0.526   0.013  0.00  0.00    -0.024 A 
ATOM      3  C   UNL     1      -2.015  -0.863   1.205  0.00  0.00    +0.005 A 
ATOM      4  C   UNL     1      -3.316  -1.345   1.228  0.00  0.00    +0.001 A 
ATOM      5  C   UNL     1      -4.023  -1.492   0.067  0.00  0.00    +0.010 A 
ATOM      6  C   UNL     1      -3.432  -1.155  -1.151  0.00  0.00    +0.004 A 
ATOM      7  C   UNL     1      -2.114  -0.662  -1.180  0.00  0.00    +0.050 A 
ATOM      8  N   UNL     1      -1.802  -0.414  -2.498  0.00  0.00    -0.360 N 
ATOM      9  H   UNL     1      -0.952  -0.069  -2.814  0.00  0.00    +0.165 HD
ATOM     10  C   UNL     1      -2.869  -0.725  -3.295  0.00  0.00    +0.088 A 
ATOM     11  C   UNL     1      -3.883  -1.186  -2.545  0.00  0.00    -0.014 A 
BRANCH   2  13
ATOM     12  C   UNL     1      -0.019   1.526   0.010  0.00  0.00    +0.009 C 
ATOM     13  C   UNL     1       0.002  -0.004   0.002  0.00  0.00    +0.034 C 
ENDBRANCH   2  13
ENDBRANCH   1  11
BRANCH   1  14
ATOM     14  C   UNL     1      -5.061  -2.796  -3.985  0.00  0.00    -0.002 A 
ATOM     15  C   UNL     1      -5.554  -4.055  -3.889  0.00  0.00    +0.012 A 
ATOM     16  C   UNL     1      -5.264  -4.966  -4.887  0.00  0.00    +0.008 A 
ATOM     17  C   UNL     1      -4.495  -4.574  -5.933  0.00  0.00    +0.045 A 
ATOM     18  S   UNL     1      -4.161  -2.868  -5.526  0.00  0.00    -0.101 S 
ENDBRANCH   1  14
BRANCH   1  19
ATOM     19  C   UNL     1      -5.918  -0.479  -3.772  0.00  0.00    +0.109 C 
BRANCH  19  20
ATOM     20  C   UNL     1      -7.316  -0.888  -4.160  0.00  0.00    +0.216 C 
ATOM     21  O   UNL     1      -7.724  -1.995  -3.879  0.00  0.00    -0.276 OA
ATOM     22  N   UNL     1      -8.112  -0.023  -4.820  0.00  0.00    -0.301 N 
ATOM     23  C   UNL     1      -7.630   1.319  -5.173  0.00  0.00    +0.108 C 
ATOM     24  C   UNL     1      -7.829   1.535  -6.676  0.00  0.00    +0.022 C 
ATOM     25  C   UNL     1      -9.294   1.279  -7.035  0.00  0.00    -0.011 C 
ATOM     26  C   UNL     1      -9.657  -0.170  -6.703  0.00  0.00    +0.022 C 
ATOM     27  C   UNL     1      -9.477  -0.407  -5.205  0.00  0.00    +0.108 C 
ATOM     28  C   UNL     1      -9.504   1.528  -8.530  0.00  0.00    +0.007 C 
ENDBRANCH  19  20
ENDBRANCH   1  19
TORSDOF 5
