REMARK  Name = ZINC19136417
REMARK  10 active torsions:
REMARK  status: ('A' for Active; 'I' for Inactive)
REMARK    1  A    between atoms: C_1  and  C_2
REMARK    2  A    between atoms: C_5  and  C_8
REMARK    3  A    between atoms: C_8  and  C_10
REMARK    4  A    between atoms: C_8  and  N_30
REMARK    5  A    between atoms: C_10  and  N_11
REMARK    6  A    between atoms: C_12  and  C_14
REMARK    7  A    between atoms: C_23  and  N_26
REMARK    8  A    between atoms: C_27  and  C_29
REMARK    9  A    between atoms: N_30  and  C_31
REMARK   10  A    between atoms: N_30  and  C_32
REMARK                            x       y       z     vdW  Elec       q    Type
REMARK                         _______ _______ _______ _____ _____    ______ ____
ROOT
ATOM      1  N   UNL     1       0.775  -6.390   0.511  0.00  0.00    -0.316 N 
ATOM      2  C   UNL     1       1.769  -7.242   0.829  0.00  0.00    +0.219 C 
ATOM      3  O   UNL     1       2.914  -6.845   0.885  0.00  0.00    -0.275 OA
ATOM      4  H   UNL     1      -0.141  -6.708   0.467  0.00  0.00    +0.149 HD
ENDROOT
BRANCH   2   5
ATOM      5  C   UNL     1       1.460  -8.689   1.116  0.00  0.00    +0.049 C 
ATOM      6  C   UNL     1       0.501  -8.779   2.305  0.00  0.00    +0.020 C 
ATOM      7  C   UNL     1       0.186 -10.248   2.596  0.00  0.00    -0.008 C 
ATOM      8  C   UNL     1      -0.465 -10.883   1.367  0.00  0.00    +0.007 C 
ATOM      9  C   UNL     1       0.493 -10.793   0.177  0.00  0.00    -0.008 C 
ATOM     10  C   UNL     1       0.808  -9.324  -0.114  0.00  0.00    +0.020 C 
ATOM     11  C   UNL     1       1.789 -11.536   0.509  0.00  0.00    +0.029 C 
ATOM     12  C   UNL     1       2.441 -10.901   1.739  0.00  0.00    +0.036 C 
ATOM     13  C   UNL     1       1.482 -10.991   2.928  0.00  0.00    +0.029 C 
ATOM     14  C   UNL     1       2.755  -9.432   1.448  0.00  0.00    +0.042 C 
BRANCH  12  15
ATOM     15  N   UNL     1       3.681 -11.612   2.057  0.00  0.00    -0.310 N 
ATOM     16  C   UNL     1       3.648 -12.927   2.349  0.00  0.00    +0.210 C 
ATOM     17  O   UNL     1       2.591 -13.522   2.349  0.00  0.00    -0.276 OA
ATOM     18  C   UNL     1       4.924 -13.659   2.676  0.00  0.00    +0.109 C 
ATOM     19  H   UNL     1       4.527 -11.136   2.057  0.00  0.00    +0.149 HD
ENDBRANCH  12  15
ENDBRANCH   2   5
BRANCH   1  20
ATOM     20  C   UNL     1       1.076  -4.984   0.232  0.00  0.00    +0.093 C 
BRANCH  20  21
ATOM     21  C   UNL     1      -0.228  -4.220  -0.006  0.00  0.00    -0.021 C 
BRANCH  21  26
ATOM     22  C   UNL     1      -2.814  -6.252  -4.758  0.00  0.00    +0.044 C 
ATOM     23  C   UNL     1      -2.139  -5.722  -3.519  0.00  0.00    -0.050 A 
ATOM     24  C   UNL     1      -2.566  -6.134  -2.270  0.00  0.00    +0.003 A 
ATOM     25  C   UNL     1      -1.948  -5.648  -1.133  0.00  0.00    +0.002 A 
ATOM     26  C   UNL     1      -0.902  -4.751  -1.245  0.00  0.00    -0.059 A 
ATOM     27  C   UNL     1      -0.474  -4.340  -2.494  0.00  0.00    +0.002 A 
ATOM     28  C   UNL     1      -1.090  -4.829  -3.631  0.00  0.00    +0.003 A 
ENDBRANCH  21  26
BRANCH  21  29
ATOM     29  N   UNL     1       0.065  -2.792  -0.181  0.00  0.00    +0.382 N 
ATOM     30  C   UNL     1      -1.182  -2.065  -0.455  0.00  0.00    -0.096 C 
ATOM     31  C   UNL     1       0.681  -2.264   1.044  0.00  0.00    -0.096 C 
ATOM     32  H   UNL     1       0.701  -2.672  -0.956  0.00  0.00    -0.082 HD
ENDBRANCH  21  29
ENDBRANCH  20  21
ENDBRANCH   1  20
TORSDOF 6
