REMARK  Name = ZINC05390650
REMARK  12 active torsions:
REMARK  status: ('A' for Active; 'I' for Inactive)
REMARK    1  A    between atoms: C_1  and  C_2
REMARK    2  A    between atoms: C_2  and  C_3
REMARK    3  A    between atoms: C_2  and  C_4
REMARK    4  A    between atoms: C_7  and  C_11
REMARK    5  A    between atoms: C_7  and  C_22
REMARK    6  A    between atoms: C_11  and  C_12
REMARK    7  A    between atoms: C_12  and  N_62
REMARK    8  A    between atoms: C_13  and  C_15
REMARK    9  A    between atoms: C_13  and  C_16
REMARK   10  A    between atoms: C_13  and  N_62
REMARK   11  A    between atoms: C_27  and  O_28
REMARK   12  A    between atoms: O_28  and  C_29
REMARK                            x       y       z     vdW  Elec       q    Type
REMARK                         _______ _______ _______ _____ _____    ______ ____
ROOT
ATOM      1  C   UNL     1       0.128   0.910  -0.000  0.00  0.00    +0.122 C 
ATOM      2  C   UNL     1      -0.619   1.581   1.156  0.00  0.00    +0.043 C 
ATOM      3  C   UNL     1       0.026   1.163   2.481  0.00  0.00    +0.002 C 
ATOM      4  C   UNL     1       1.511   1.536   2.454  0.00  0.00    +0.040 C 
ATOM      5  C   UNL     1       2.176   0.868   1.247  0.00  0.00    +0.161 C 
ATOM      6  O   UNL     1       1.509   1.275   0.051  0.00  0.00    -0.376 OA
ENDROOT
BRANCH   3   7
ATOM      7  C   UNL     1      -0.653   1.878   3.620  0.00  0.00    +0.001 A 
ATOM      8  C   UNL     1       0.076   2.709   4.447  0.00  0.00    +0.008 A 
ATOM      9  C   UNL     1      -0.546   3.367   5.492  0.00  0.00    +0.001 A 
ATOM     10  C   UNL     1      -1.901   3.194   5.712  0.00  0.00    +0.004 A 
ATOM     11  C   UNL     1      -2.635   2.363   4.888  0.00  0.00    +0.046 A 
ATOM     12  C   UNL     1      -2.013   1.707   3.835  0.00  0.00    +0.124 A 
BRANCH  12  13
ATOM     13  O   UNL     1      -2.734   0.894   3.019  0.00  0.00    -0.495 OA
ATOM     14  C   UNL     1      -4.129   0.765   3.300  0.00  0.00    +0.277 C 
ENDBRANCH  12  13
ENDBRANCH   3   7
BRANCH   1  16
ATOM     15  C   UNL     1       0.275   0.700  -2.486  0.00  0.00    +0.010 C 
ATOM     16  C   UNL     1      -0.472   1.370  -1.331  0.00  0.00    +0.012 C 
ATOM     17  C   UNL     1      -1.950   0.980  -1.385  0.00  0.00    +0.010 C 
ENDBRANCH   1  16
BRANCH   3  18
ATOM     18  C   UNL     1      -0.118  -0.349   2.667  0.00  0.00    -0.007 C 
BRANCH  18  19
ATOM     19  C   UNL     1       0.419  -0.747   4.044  0.00  0.00    -0.081 C 
BRANCH  19  20
ATOM     20  N   UNL     1       0.375  -2.215   4.174  0.00  0.00    +0.383 N 
ATOM     21  H   UNL     1       0.954  -2.638   3.439  0.00  0.00    -0.085 HD
ATOM     22  H   UNL     1      -0.595  -2.535   4.073  0.00  0.00    -0.085 HD
BRANCH  20  23
ATOM     23  C   UNL     1       0.888  -2.627   5.495  0.00  0.00    -0.044 C 
ATOM     24  C   UNL     1      -0.243  -2.565   6.524  0.00  0.00    -0.009 C 
BRANCH  23  25
ATOM     25  C   UNL     1       1.407  -4.039   5.405  0.00  0.00    -0.062 A 
ATOM     26  C   UNL     1       0.720  -4.983   4.664  0.00  0.00    +0.002 A 
ATOM     27  C   UNL     1       1.199  -6.277   4.578  0.00  0.00    +0.000 A 
ATOM     28  C   UNL     1       2.361  -6.629   5.240  0.00  0.00    +0.000 A 
ATOM     29  C   UNL     1       3.045  -5.687   5.985  0.00  0.00    +0.000 A 
ATOM     30  C   UNL     1       2.568  -4.392   6.067  0.00  0.00    +0.002 A 
ENDBRANCH  23  25
ENDBRANCH  20  23
ENDBRANCH  19  20
ENDBRANCH  18  19
ENDBRANCH   3  18
TORSDOF 8
