REMARK  Name = ZINC13473722
REMARK  6 active torsions:
REMARK  status: ('A' for Active; 'I' for Inactive)
REMARK    1  A    between atoms: C_4  and  C_7
REMARK    2  A    between atoms: C_12  and  C_13
REMARK    3  A    between atoms: C_12  and  N_59
REMARK    4  A    between atoms: C_13  and  C_14
REMARK    5  A    between atoms: C_14  and  C_15
REMARK    6  A    between atoms: C_15  and  C_16
REMARK                            x       y       z     vdW  Elec       q    Type
REMARK                         _______ _______ _______ _____ _____    ______ ____
ROOT
ATOM      1  C   UNL     1       1.417   2.055  -0.000  0.00  0.00    -0.000 C 
ENDROOT
BRANCH   1   2
ATOM      2  C   UNL     1       1.396   3.585   0.008  0.00  0.00    -0.019 C 
BRANCH   2   3
ATOM      3  C   UNL     1       2.831   4.115  -0.003  0.00  0.00    -0.078 C 
BRANCH   3   9
ATOM      4  C   UNL     1       3.161   8.278   0.517  0.00  0.00    -0.048 C 
ATOM      5  C   UNL     1       2.368   7.593   1.311  0.00  0.00    -0.041 C 
ATOM      6  C   UNL     1       2.260   6.096   1.266  0.00  0.00    -0.051 C 
ATOM      7  C   UNL     1       4.159   6.131  -0.221  0.00  0.00    -0.074 C 
ATOM      8  C   UNL     1       4.033   7.627  -0.519  0.00  0.00    +0.017 C 
ATOM      9  N   UNL     1       2.799   5.595  -0.012  0.00  0.00    +0.382 N 
ATOM     10  H   UNL     1       2.193   5.911  -0.778  0.00  0.00    -0.081 HD
BRANCH   4  14
ATOM     11  C   UNL     1       3.261  12.507   0.899  0.00  0.00    +0.000 A 
ATOM     12  C   UNL     1       3.706  11.711   1.939  0.00  0.00    +0.001 A 
ATOM     13  C   UNL     1       3.676  10.337   1.822  0.00  0.00    +0.008 A 
ATOM     14  C   UNL     1       3.196   9.750   0.650  0.00  0.00    -0.022 A 
ATOM     15  C   UNL     1       2.754  10.559  -0.398  0.00  0.00    +0.008 A 
ATOM     16  C   UNL     1       2.784  11.932  -0.265  0.00  0.00    +0.001 A 
ENDBRANCH   4  14
ENDBRANCH   3   9
ENDBRANCH   2   3
ENDBRANCH   1   2
BRANCH   1  17
ATOM     17  C   UNL     1      -0.019   1.526   0.010  0.00  0.00    +0.021 C 
BRANCH  17  18
ATOM     18  C   UNL     1       0.002  -0.004   0.002  0.00  0.00    +0.074 C 
ATOM     19  C   UNL     1       0.680  -0.541  -1.250  0.00  0.00    +0.021 C 
ATOM     20  C   UNL     1      -0.198  -0.620  -2.468  0.00  0.00    +0.006 C 
ATOM     21  C   UNL     1      -1.621  -0.087  -2.333  0.00  0.00    +0.036 C 
ATOM     22  C   UNL     1      -2.238  -0.622  -1.075  0.00  0.00    -0.027 A 
ATOM     23  C   UNL     1      -1.389  -0.576   0.012  0.00  0.00    -0.007 A 
ATOM     24  C   UNL     1      -1.633  -1.153   1.244  0.00  0.00    +0.038 A 
ATOM     25  C   UNL     1      -2.901  -1.695   1.462  0.00  0.00    +0.025 A 
ATOM     26  C   UNL     1      -3.796  -1.669   0.398  0.00  0.00    +0.017 A 
ATOM     27  C   UNL     1      -3.478  -1.159  -0.859  0.00  0.00    +0.021 A 
ATOM     28 BR   UNL     1      -4.752  -1.208  -2.256  0.00  0.00    -0.050 Br
ATOM     29  N   UNL     1      -0.465  -1.121   1.980  0.00  0.00    -0.284 N 
ATOM     30  C   UNL     1       0.564  -0.556   1.295  0.00  0.00    +0.228 C 
ATOM     31  O   UNL     1       1.721  -0.504   1.653  0.00  0.00    -0.274 OA
ATOM     32  H   UNL     1      -0.387  -1.464   2.884  0.00  0.00    +0.155 HD
ENDBRANCH  17  18
ENDBRANCH   1  17
TORSDOF 6
