REMARK  Name = ZINC52694357
REMARK  5 active torsions:
REMARK  status: ('A' for Active; 'I' for Inactive)
REMARK    1  A    between atoms: C_3  and  O_9
REMARK    2  A    between atoms: O_9  and  C_10
REMARK    3  A    between atoms: C_10  and  C_11
REMARK    4  A    between atoms: C_13  and  C_16
REMARK    5  A    between atoms: C_16  and  N_17
REMARK                            x       y       z     vdW  Elec       q    Type
REMARK                         _______ _______ _______ _____ _____    ______ ____
ROOT
ATOM      1  C   UNL     1       3.454   3.533  -0.013  0.00  0.00    +0.306 C 
ENDROOT
BRANCH   1   2
ATOM      2  C   UNL     1       4.839   4.127  -0.023  0.00  0.00    +0.175 A 
ATOM      3  C   UNL     1       5.554   4.450  -1.118  0.00  0.00    +0.072 A 
ATOM      4  C   UNL     1       6.789   4.974  -0.696  0.00  0.00    +0.067 A 
ATOM      5  N   UNL     1       6.808   4.964   0.607  0.00  0.00    -0.085 NA
ATOM      6  O   UNL     1       5.574   4.433   1.057  0.00  0.00    -0.356 OA
BRANCH   4   7
ATOM      7  C   UNL     1       7.896   5.463  -1.594  0.00  0.00    -0.027 C 
BRANCH   7   8
ATOM      8  N   UNL     1       7.779   6.916  -1.770  0.00  0.00    +0.382 N 
ATOM      9  H   UNL     1       6.886   7.133  -2.189  0.00  0.00    -0.090 HD
ATOM     10  H   UNL     1       7.848   7.371  -0.873  0.00  0.00    -0.090 HD
ATOM     11  H   UNL     1       8.520   7.243  -2.371  0.00  0.00    -0.090 HD
ENDBRANCH   7   8
ENDBRANCH   4   7
ENDBRANCH   1   2
BRANCH   1  12
ATOM     12  O   UNL     1       3.548   2.107  -0.021  0.00  0.00    -0.483 OA
BRANCH  12  15
ATOM     13  C   UNL     1      -0.017   1.379   0.010  0.00  0.00    +0.019 A 
ATOM     14  C   UNL     1       1.170   2.087   0.002  0.00  0.00    +0.048 A 
ATOM     15  C   UNL     1       2.380   1.411  -0.013  0.00  0.00    +0.139 A 
ATOM     16  C   UNL     1       2.397   0.023  -0.021  0.00  0.00    +0.084 A 
ATOM     17  C   UNL     1       1.208  -0.682  -0.013  0.00  0.00    +0.039 A 
ATOM     18  C   UNL     1       0.002  -0.004   0.002  0.00  0.00    +0.019 A 
ATOM     19 BR   UNL     1      -1.623  -0.970   0.012  0.00  0.00    -0.050 Br
ATOM     20 CL   UNL     1       3.911  -0.827  -0.040  0.00  0.00    -0.080 Cl
ENDBRANCH  12  15
ENDBRANCH   1  12
TORSDOF 5
