REMARK  Name = ZINC03151314
REMARK  7 active torsions:
REMARK  status: ('A' for Active; 'I' for Inactive)
REMARK    1  A    between atoms: C_1  and  C_2
REMARK    2  A    between atoms: C_6  and  C_21
REMARK    3  A    between atoms: C_7  and  O_8
REMARK    4  A    between atoms: O_8  and  C_9
REMARK    5  A    between atoms: C_9  and  C_10
REMARK    6  A    between atoms: N_12  and  N_13
REMARK    7  A    between atoms: C_14  and  C_15
REMARK                            x       y       z     vdW  Elec       q    Type
REMARK                         _______ _______ _______ _____ _____    ______ ____
ROOT
ATOM      1  C   UNL     1      -4.728  -0.674   0.045  0.00  0.00    +0.270 C 
ATOM      2  O   UNL     1      -4.871   0.531   0.053  0.00  0.00    -0.270 OA
ATOM      3  N   UNL     1      -3.490  -1.206   0.031  0.00  0.00    -0.204 N 
ATOM      4  H   UNL     1      -3.376  -2.169   0.025  0.00  0.00    +0.177 HD
ENDROOT
BRANCH   3   5
ATOM      5  N   UNL     1      -2.368  -0.368   0.024  0.00  0.00    -0.185 NA
ATOM      6  C   UNL     1      -1.172  -0.881   0.009  0.00  0.00    +0.176 C 
BRANCH   6   7
ATOM      7  C   UNL     1       0.002  -0.004   0.002  0.00  0.00    +0.149 A 
ATOM      8  C   UNL     1       1.305  -0.409  -0.013  0.00  0.00    +0.052 A 
ATOM      9  C   UNL     1       2.092   0.757  -0.014  0.00  0.00    +0.056 A 
ATOM     10  C   UNL     1       1.244   1.807  -0.000  0.00  0.00    +0.165 A 
ATOM     11  O   UNL     1      -0.016   1.344   0.009  0.00  0.00    -0.448 OA
ATOM     12  I   UNL     1       1.803   3.826   0.005  0.00  0.00    -0.001 I 
ENDBRANCH   6   7
ENDBRANCH   3   5
BRANCH   1  13
ATOM     13  C   UNL     1      -5.936  -1.576   0.053  0.00  0.00    +0.326 C 
BRANCH  13  14
ATOM     14  O   UNL     1      -7.123  -0.781   0.069  0.00  0.00    -0.482 OA
BRANCH  14  21
ATOM     15  C   UNL     1      -8.290  -1.394  -2.430  0.00  0.00    +0.047 C 
ATOM     16  C   UNL     1      -8.930  -1.773  -1.119  0.00  0.00    -0.007 A 
ATOM     17  C   UNL     1     -10.133  -2.452  -1.109  0.00  0.00    +0.022 A 
ATOM     18  C   UNL     1     -10.724  -2.795   0.094  0.00  0.00    +0.019 A 
ATOM     19  C   UNL     1     -10.109  -2.465   1.289  0.00  0.00    +0.022 A 
ATOM     20  C   UNL     1      -8.904  -1.790   1.282  0.00  0.00    -0.007 A 
ATOM     21  C   UNL     1      -8.310  -1.445   0.077  0.00  0.00    +0.127 A 
ATOM     22  C   UNL     1      -8.235  -1.430   2.583  0.00  0.00    +0.047 C 
ATOM     23 BR   UNL     1     -12.374  -3.719   0.106  0.00  0.00    -0.050 Br
ENDBRANCH  14  21
ENDBRANCH  13  14
ENDBRANCH   1  13
TORSDOF 5
