REMARK  Name = ZINC51171694
REMARK  5 active torsions:
REMARK  status: ('A' for Active; 'I' for Inactive)
REMARK    1  A    between atoms: C_1  and  C_2
REMARK    2  A    between atoms: C_2  and  N_3
REMARK    3  A    between atoms: N_3  and  C_4
REMARK    4  A    between atoms: C_4  and  C_6
REMARK    5  A    between atoms: C_4  and  C_12
REMARK                            x       y       z     vdW  Elec       q    Type
REMARK                         _______ _______ _______ _____ _____    ______ ____
ROOT
ATOM      1  C   UNL     1       0.710  -1.947  -1.215  0.00  0.00    -0.002 C 
ENDROOT
BRANCH   1   2
ATOM      2  C   UNL     1       1.520  -2.432  -2.389  0.00  0.00    -0.035 A 
ATOM      3  C   UNL     1       1.756  -1.589  -3.459  0.00  0.00    +0.053 A 
ATOM      4  C   UNL     1       2.503  -2.032  -4.541  0.00  0.00    +0.162 A 
ATOM      5  C   UNL     1       3.014  -3.325  -4.545  0.00  0.00    +0.163 A 
ATOM      6  C   UNL     1       2.773  -4.166  -3.470  0.00  0.00    +0.069 A 
ATOM      7  C   UNL     1       2.031  -3.717  -2.392  0.00  0.00    +0.047 A 
ATOM      8 CL   UNL     1       1.737  -4.769  -1.043  0.00  0.00    -0.083 Cl
ATOM      9  O   UNL     1       3.756  -3.777  -5.593  0.00  0.00    -0.485 OA
ATOM     10  C   UNL     1       3.663  -3.035  -6.814  0.00  0.00    +0.270 C 
ATOM     11  C   UNL     1       3.787  -1.542  -6.481  0.00  0.00    +0.270 C 
ATOM     12  O   UNL     1       2.723  -1.192  -5.589  0.00  0.00    -0.485 OA
ENDBRANCH   1   2
BRANCH   1  13
ATOM     13  C   UNL     1      -0.700  -2.467  -1.328  0.00  0.00    -0.018 A 
ATOM     14  C   UNL     1      -1.274  -3.520  -0.696  0.00  0.00    +0.011 A 
ATOM     15  C   UNL     1      -2.599  -3.818  -0.957  0.00  0.00    +0.028 A 
ATOM     16  C   UNL     1      -3.284  -3.047  -1.838  0.00  0.00    +0.078 A 
ATOM     17  S   UNL     1      -2.049  -1.853  -2.323  0.00  0.00    -0.083 S 
ATOM     18 CL   UNL     1      -4.936  -3.182  -2.354  0.00  0.00    -0.076 Cl
ENDBRANCH   1  13
BRANCH   1  19
ATOM     19  N   UNL     1       0.690  -0.478  -1.207  0.00  0.00    +0.386 N 
ATOM     20  H   UNL     1       0.202  -0.144  -2.024  0.00  0.00    -0.085 HD
ATOM     21  H   UNL     1       1.636  -0.129  -1.214  0.00  0.00    -0.085 HD
BRANCH  19  23
ATOM     22  C   UNL     1      -0.019   1.526   0.010  0.00  0.00    -0.017 C 
ATOM     23  C   UNL     1       0.002  -0.004   0.002  0.00  0.00    -0.085 C 
ENDBRANCH  19  23
ENDBRANCH   1  19
TORSDOF 4
