REMARK  Name = ZINC02918617
REMARK  6 active torsions:
REMARK  status: ('A' for Active; 'I' for Inactive)
REMARK    1  A    between atoms: C_1  and  O_2
REMARK    2  A    between atoms: O_2  and  C_3
REMARK    3  A    between atoms: C_7  and  C_11
REMARK    4  A    between atoms: C_8  and  O_9
REMARK    5  A    between atoms: O_9  and  C_10
REMARK    6  A    between atoms: C_14  and  C_22
REMARK                            x       y       z     vdW  Elec       q    Type
REMARK                         _______ _______ _______ _____ _____    ______ ____
ROOT
ATOM      1  C   UNL     1      -2.549  -4.175   0.017  0.00  0.00    +0.148 C 
ATOM      2  C   UNL     1      -3.291  -4.659   1.270  0.00  0.00    +0.059 C 
ATOM      3  C   UNL     1      -3.605  -6.154   1.142  0.00  0.00    +0.106 C 
ATOM      4  N   UNL     1      -4.502  -6.351  -0.015  0.00  0.00    -0.305 N 
ATOM      5  C   UNL     1      -4.181  -5.644  -1.165  0.00  0.00    +0.236 A 
ATOM      6  N   UNL     1      -3.272  -4.634  -1.167  0.00  0.00    -0.206 N 
ATOM      7  N   UNL     1      -3.215  -4.181  -2.485  0.00  0.00    -0.042 NA
ATOM      8  N   UNL     1      -4.047  -4.906  -3.159  0.00  0.00    -0.021 NA
ATOM      9  N   UNL     1      -4.623  -5.769  -2.385  0.00  0.00    -0.092 NA
ATOM     10  H   UNL     1      -5.271  -6.940   0.028  0.00  0.00    +0.150 HD
ENDROOT
BRANCH   3  11
ATOM     11  C   UNL     1      -4.282  -6.637   2.398  0.00  0.00    -0.027 A 
ATOM     12  C   UNL     1      -5.633  -6.411   2.587  0.00  0.00    +0.006 A 
ATOM     13  C   UNL     1      -6.253  -6.855   3.740  0.00  0.00    +0.015 A 
ATOM     14  C   UNL     1      -5.523  -7.525   4.704  0.00  0.00    +0.013 A 
ATOM     15  C   UNL     1      -4.172  -7.750   4.515  0.00  0.00    +0.015 A 
ATOM     16  C   UNL     1      -3.553  -7.312   3.360  0.00  0.00    +0.006 A 
ATOM     17  I   UNL     1      -6.463  -8.196   6.452  0.00  0.00    -0.044 I 
ENDBRANCH   3  11
BRANCH   1  22
ATOM     18  C   UNL     1      -1.201  -0.638   0.010  0.00  0.00    +0.162 A 
ATOM     19  C   UNL     1      -2.374   0.099   0.019  0.00  0.00    +0.049 A 
ATOM     20  C   UNL     1      -3.596  -0.546   0.027  0.00  0.00    +0.004 A 
ATOM     21  C   UNL     1      -3.652  -1.928   0.026  0.00  0.00    +0.009 A 
ATOM     22  C   UNL     1      -2.485  -2.669   0.017  0.00  0.00    +0.022 A 
ATOM     23  C   UNL     1      -1.257  -2.028   0.003  0.00  0.00    +0.167 A 
BRANCH  18  25
ATOM     24  C   UNL     1      -0.017   1.425   0.010  0.00  0.00    +0.277 C 
ATOM     25  O   UNL     1       0.002  -0.004   0.002  0.00  0.00    -0.491 OA
ENDBRANCH  18  25
BRANCH  23  26
ATOM     26  O   UNL     1      -0.108  -2.756  -0.012  0.00  0.00    -0.491 OA
ATOM     27  C   UNL     1       0.452  -3.110   1.254  0.00  0.00    +0.277 C 
ENDBRANCH  23  26
ENDBRANCH   1  22
TORSDOF 4
