REMARK  Name = ZINC05350446
REMARK  12 active torsions:
REMARK  status: ('A' for Active; 'I' for Inactive)
REMARK    1  A    between atoms: C_1  and  C_2
REMARK    2  A    between atoms: C_2  and  C_3
REMARK    3  A    between atoms: C_2  and  C_4
REMARK    4  A    between atoms: C_2  and  N_5
REMARK    5  A    between atoms: C_6  and  C_8
REMARK    6  A    between atoms: N_10  and  C_11
REMARK    7  A    between atoms: C_11  and  C_12
REMARK    8  A    between atoms: C_12  and  C_14
REMARK    9  A    between atoms: C_12  and  N_65
REMARK   10  A    between atoms: C_17  and  N_20
REMARK   11  A    between atoms: N_20  and  C_21
REMARK   12  A    between atoms: N_20  and  C_22
REMARK                            x       y       z     vdW  Elec       q    Type
REMARK                         _______ _______ _______ _____ _____    ______ ____
ROOT
ATOM      1  C   UNL     1       2.494   1.065  -0.022  0.00  0.00    -0.020 C 
ENDROOT
BRANCH   1  11
ATOM      2  C   UNL     1       4.766   0.469   0.575  0.00  0.00    -0.073 C 
ATOM      3  C   UNL     1       6.123   1.101   0.890  0.00  0.00    +0.017 C 
ATOM      4  C   UNL     1       6.023   1.938   2.139  0.00  0.00    -0.048 A 
ATOM      5  C   UNL     1       7.194   2.301   2.787  0.00  0.00    +0.004 A 
ATOM      6  C   UNL     1       7.148   3.071   3.932  0.00  0.00    +0.000 A 
ATOM      7  C   UNL     1       5.928   3.481   4.436  0.00  0.00    +0.000 A 
ATOM      8  C   UNL     1       4.762   3.120   3.792  0.00  0.00    +0.002 A 
ATOM      9  C   UNL     1       4.806   2.345   2.643  0.00  0.00    -0.061 A 
ATOM     10  C   UNL     1       3.507   1.969   1.981  0.00  0.00    -0.042 C 
ATOM     11  N   UNL     1       3.753   1.544   0.593  0.00  0.00    +0.388 N 
ATOM     12  H   UNL     1       4.104   2.344   0.054  0.00  0.00    -0.080 HD
ENDBRANCH   1  11
BRANCH   1  13
ATOM     13  C   UNL     1       1.440   2.132   0.116  0.00  0.00    -0.059 A 
ATOM     14  C   UNL     1       0.134   1.779   0.406  0.00  0.00    +0.004 A 
ATOM     15  C   UNL     1      -0.836   2.754   0.527  0.00  0.00    +0.023 A 
ATOM     16  C   UNL     1      -0.497   4.092   0.369  0.00  0.00    +0.029 A 
ATOM     17  C   UNL     1       0.815   4.443   0.079  0.00  0.00    +0.023 A 
ATOM     18  C   UNL     1       1.779   3.463  -0.047  0.00  0.00    +0.004 A 
BRANCH  16  19
ATOM     19  N   UNL     1      -1.475   5.081   0.497  0.00  0.00    -0.336 N 
ATOM     20  C   UNL     1      -1.097   6.496   0.447  0.00  0.00    +0.129 C 
ATOM     21  C   UNL     1      -2.879   4.704   0.681  0.00  0.00    +0.129 C 
ENDBRANCH  16  19
ENDBRANCH   1  13
BRANCH   1  22
ATOM     22  C   UNL     1       2.741   0.780  -1.505  0.00  0.00    +0.094 C 
BRANCH  22  25
ATOM     23  C   UNL     1       1.540  -0.199  -3.384  0.00  0.00    +0.299 C 
ATOM     24  O   UNL     1       2.556  -0.113  -4.042  0.00  0.00    -0.265 OA
ATOM     25  N   UNL     1       1.528   0.220  -2.104  0.00  0.00    -0.309 N 
ATOM     26  H   UNL     1       0.715   0.151  -1.578  0.00  0.00    +0.149 HD
BRANCH  23  28
ATOM     27  N   UNL     1       0.313  -1.190  -5.276  0.00  0.00    -0.303 N 
ATOM     28  C   UNL     1       0.301  -0.771  -3.995  0.00  0.00    +0.299 C 
ATOM     29  O   UNL     1      -0.715  -0.857  -3.338  0.00  0.00    -0.265 OA
ATOM     30  H   UNL     1       1.126  -1.121  -5.801  0.00  0.00    +0.150 HD
BRANCH  27  32
ATOM     31  C   UNL     1      -2.017  -0.705  -5.839  0.00  0.00    +0.031 C 
ATOM     32  C   UNL     1      -0.901  -1.751  -5.875  0.00  0.00    +0.027 C 
ATOM     33  C   UNL     1      -0.618  -2.146  -7.326  0.00  0.00    +0.031 C 
ATOM     34  C   UNL     1      -1.335  -2.987  -5.085  0.00  0.00    +0.031 C 
ENDBRANCH  27  32
ENDBRANCH  23  28
ENDBRANCH  22  25
ENDBRANCH   1  22
TORSDOF 7
