REMARK  Name = ZINC22316584
REMARK  10 active torsions:
REMARK  status: ('A' for Active; 'I' for Inactive)
REMARK    1  A    between atoms: C_1  and  C_2
REMARK    2  A    between atoms: C_5  and  C_9
REMARK    3  A    between atoms: C_7  and  C_8
REMARK    4  A    between atoms: C_9  and  C_11
REMARK    5  A    between atoms: C_9  and  N_12
REMARK    6  A    between atoms: C_13  and  C_15
REMARK    7  A    between atoms: C_15  and  N_16
REMARK    8  A    between atoms: C_19  and  C_23
REMARK    9  A    between atoms: C_19  and  C_30
REMARK   10  A    between atoms: C_23  and  C_24
REMARK                            x       y       z     vdW  Elec       q    Type
REMARK                         _______ _______ _______ _____ _____    ______ ____
ROOT
ATOM      1  N   UNL     1       2.190   2.087  -3.207  0.00  0.00    -0.215 N 
ATOM      2  C   UNL     1       3.083   2.122  -2.199  0.00  0.00    +0.252 C 
ATOM      3  O   UNL     1       3.854   3.019  -1.933  0.00  0.00    -0.272 OA
ATOM      4  C   UNL     1       2.922   0.806  -1.464  0.00  0.00    +0.142 C 
ATOM      5  N   UNL     1       1.857   0.118  -2.214  0.00  0.00    -0.281 N 
ATOM      6  C   UNL     1       1.494   0.945  -3.212  0.00  0.00    +0.310 C 
ATOM      7  O   UNL     1       0.631   0.682  -4.026  0.00  0.00    -0.252 OA
ATOM      8  H   UNL     1       1.521  -0.881  -1.901  0.00  0.00    +0.152 HD
ENDROOT
BRANCH   4   9
ATOM      9  C   UNL     1       4.200   0.010  -1.508  0.00  0.00    -0.015 A 
ATOM     10  C   UNL     1       5.123   0.126  -0.485  0.00  0.00    +0.006 A 
ATOM     11  C   UNL     1       6.294  -0.607  -0.524  0.00  0.00    +0.000 A 
ATOM     12  C   UNL     1       6.547  -1.450  -1.590  0.00  0.00    +0.000 A 
ATOM     13  C   UNL     1       5.626  -1.563  -2.615  0.00  0.00    +0.000 A 
ATOM     14  C   UNL     1       4.453  -0.833  -2.574  0.00  0.00    +0.006 A 
ENDBRANCH   4   9
BRANCH   1  15
ATOM     15  C   UNL     1       2.004   3.168  -4.179  0.00  0.00    +0.213 C 
BRANCH  15  17
ATOM     16  N   UNL     1       0.625   5.210  -4.399  0.00  0.00    -0.307 N 
ATOM     17  C   UNL     1       0.963   4.130  -3.667  0.00  0.00    +0.231 C 
ATOM     18  O   UNL     1       0.429   3.932  -2.596  0.00  0.00    -0.274 OA
ATOM     19  H   UNL     1       1.109   5.389  -5.370  0.00  0.00    +0.149 HD
BRANCH  16  20
ATOM     20  C   UNL     1      -0.387   6.145  -3.901  0.00  0.00    +0.100 C 
ATOM     21  C   UNL     1       0.274   7.164  -2.971  0.00  0.00    +0.033 C 
BRANCH  20  26
ATOM     22  C   UNL     1      -2.823   8.900  -8.358  0.00  0.00    +0.044 C 
ATOM     23  C   UNL     1      -2.188   8.182  -7.196  0.00  0.00    -0.048 A 
ATOM     24  C   UNL     1      -0.827   7.938  -7.194  0.00  0.00    +0.004 A 
ATOM     25  C   UNL     1      -0.243   7.284  -6.125  0.00  0.00    +0.006 A 
ATOM     26  C   UNL     1      -1.022   6.863  -5.063  0.00  0.00    -0.027 A 
ATOM     27  C   UNL     1      -2.383   7.107  -5.065  0.00  0.00    +0.009 A 
ATOM     28  C   UNL     1      -2.966   7.767  -6.131  0.00  0.00    -0.047 A 
ATOM     29  C   UNL     1      -4.449   8.033  -6.133  0.00  0.00    +0.044 C 
ENDBRANCH  20  26
ENDBRANCH  16  20
ENDBRANCH  15  17
ENDBRANCH   1  15
BRANCH   4  30
ATOM     30  C   UNL     1       2.490   1.048  -0.016  0.00  0.00    +0.075 C 
BRANCH  30  31
ATOM     31  C   UNL     1       1.175   1.783   0.000  0.00  0.00    -0.045 A 
ATOM     32  C   UNL     1      -0.013   1.076   0.008  0.00  0.00    +0.004 A 
ATOM     33  C   UNL     1      -1.219   1.751   0.017  0.00  0.00    +0.000 A 
ATOM     34  C   UNL     1      -1.238   3.133   0.029  0.00  0.00    +0.000 A 
ATOM     35  C   UNL     1      -0.050   3.840   0.022  0.00  0.00    +0.000 A 
ATOM     36  C   UNL     1       1.156   3.165   0.008  0.00  0.00    +0.004 A 
ENDBRANCH  30  31
ENDBRANCH   4  30
TORSDOF 7
