REMARK  Name = ZINC36889428
REMARK  4 active torsions:
REMARK  status: ('A' for Active; 'I' for Inactive)
REMARK    1  A    between atoms: C_1  and  O_2
REMARK    2  A    between atoms: O_2  and  C_3
REMARK    3  A    between atoms: C_8  and  C_9
REMARK    4  A    between atoms: C_9  and  N_10
REMARK                            x       y       z     vdW  Elec       q    Type
REMARK                         _______ _______ _______ _____ _____    ______ ____
ROOT
ATOM      1  N   UNL     1       0.572  -2.894   1.342  0.00  0.00    -0.315 N 
ATOM      2  C   UNL     1       1.468  -1.987   1.901  0.00  0.00    +0.068 A 
ATOM      3  C   UNL     1       2.079  -0.837   1.425  0.00  0.00    +0.029 A 
ATOM      4  C   UNL     1       2.944  -0.130   2.238  0.00  0.00    +0.022 A 
ATOM      5  C   UNL     1       3.203  -0.566   3.527  0.00  0.00    +0.043 A 
ATOM      6  C   UNL     1       2.599  -1.711   4.010  0.00  0.00    +0.047 A 
ATOM      7  C   UNL     1       1.729  -2.426   3.201  0.00  0.00    +0.066 A 
ATOM      8  N   UNL     1       0.983  -3.586   3.391  0.00  0.00    -0.334 N 
ATOM      9  C   UNL     1       0.296  -3.839   2.261  0.00  0.00    +0.159 A 
ATOM     10  S   UNL     1      -0.764  -5.163   2.027  0.00  0.00    -0.013 S 
ATOM     11 CL   UNL     1       4.293   0.330   4.539  0.00  0.00    -0.083 Cl
ATOM     12  H   UNL     1       0.960  -4.120   4.200  0.00  0.00    +0.168 HD
ENDROOT
BRANCH   1  13
ATOM     13  C   UNL     1       0.018  -2.829  -0.013  0.00  0.00    +0.163 C 
BRANCH  13  19
ATOM     14  C   UNL     1      -1.200  -0.637   0.010  0.00  0.00    +0.125 A 
ATOM     15  C   UNL     1      -2.375   0.101   0.019  0.00  0.00    +0.046 A 
ATOM     16  C   UNL     1      -3.596  -0.545   0.027  0.00  0.00    +0.004 A 
ATOM     17  C   UNL     1      -3.648  -1.927   0.026  0.00  0.00    +0.001 A 
ATOM     18  C   UNL     1      -2.479  -2.665   0.017  0.00  0.00    +0.009 A 
ATOM     19  C   UNL     1      -1.255  -2.023   0.003  0.00  0.00    +0.014 A 
BRANCH  14  21
ATOM     20  C   UNL     1      -0.017   1.425   0.010  0.00  0.00    +0.277 C 
ATOM     21  O   UNL     1       0.002  -0.004   0.002  0.00  0.00    -0.495 OA
ENDBRANCH  14  21
ENDBRANCH  13  19
ENDBRANCH   1  13
TORSDOF 3
