REMARK  Name = ZINC21225170
REMARK  8 active torsions:
REMARK  status: ('A' for Active; 'I' for Inactive)
REMARK    1  A    between atoms: C_1  and  C_2
REMARK    2  A    between atoms: C_2  and  C_3
REMARK    3  A    between atoms: C_3  and  O_4
REMARK    4  A    between atoms: O_4  and  C_5
REMARK    5  A    between atoms: C_8  and  C_11
REMARK    6  A    between atoms: C_16  and  C_26
REMARK    7  A    between atoms: C_29  and  C_35
REMARK    8  A    between atoms: C_30  and  N_32
REMARK                            x       y       z     vdW  Elec       q    Type
REMARK                         _______ _______ _______ _____ _____    ______ ____
ROOT
ATOM      1  C   UNL     1       4.129   3.431  -3.369  0.00  0.00    +0.032 C 
ATOM      2  C   UNL     1       2.681   3.729  -2.980  0.00  0.00    +0.059 C 
ATOM      3  C   UNL     1       2.120   2.578  -2.159  0.00  0.00    +0.017 C 
ATOM      4  C   UNL     1       2.512   1.318  -2.404  0.00  0.00    +0.036 C 
ATOM      5  C   UNL     1       2.006   0.079  -1.702  0.00  0.00    +0.136 C 
ATOM      6  N   UNL     1       1.218   0.347  -0.517  0.00  0.00    -0.331 N 
ATOM      7  C   UNL     1      -0.003   1.012  -0.601  0.00  0.00    +0.049 A 
ATOM      8  C   UNL     1      -1.196   0.368  -0.307  0.00  0.00    +0.025 A 
ATOM      9  C   UNL     1      -2.392   1.046  -0.465  0.00  0.00    +0.002 A 
ATOM     10  C   UNL     1      -2.402   2.354  -0.912  0.00  0.00    +0.002 A 
ATOM     11  C   UNL     1      -1.212   3.006  -1.189  0.00  0.00    +0.025 A 
ATOM     12  C   UNL     1      -0.015   2.335  -1.015  0.00  0.00    +0.052 A 
ATOM     13  N   UNL     1       1.218   2.948  -1.215  0.00  0.00    -0.316 N 
ATOM     14  C   UNL     1       3.488   1.053  -3.394  0.00  0.00    +0.163 C 
ATOM     15  O   UNL     1       3.816  -0.099  -3.599  0.00  0.00    -0.292 OA
ATOM     16  C   UNL     1       4.134   2.141  -4.197  0.00  0.00    +0.088 C 
ATOM     17  H   UNL     1       1.581   0.024   0.469  0.00  0.00    +0.147 HD
ATOM     18  H   UNL     1       1.440   3.788  -0.541  0.00  0.00    +0.152 HD
ENDROOT
BRANCH   5  19
ATOM     19  C   UNL     1       1.161  -0.708  -2.671  0.00  0.00    -0.021 A 
ATOM     20  C   UNL     1       1.553  -1.977  -3.056  0.00  0.00    +0.006 A 
ATOM     21  C   UNL     1       0.776  -2.701  -3.940  0.00  0.00    +0.006 A 
ATOM     22  C   UNL     1      -0.387  -2.152  -4.448  0.00  0.00    -0.020 A 
ATOM     23  C   UNL     1      -0.775  -0.882  -4.067  0.00  0.00    +0.129 A 
ATOM     24  C   UNL     1      -0.001  -0.160  -3.179  0.00  0.00    +0.038 A 
ATOM     25  C   UNL     1      -1.231  -2.940  -5.418  0.00  0.00    +0.046 C 
BRANCH  23  26
ATOM     26  N   UNL     1      -2.020  -0.294  -4.612  0.00  0.00    +0.057 N 
ATOM     27  O   UNL     1      -2.332  -0.495  -5.772  0.00  0.00    -0.126 OA
ATOM     28  O   UNL     1      -2.733   0.390  -3.899  0.00  0.00    -0.126 OA
ENDBRANCH  23  26
ENDBRANCH   5  19
BRANCH   1  32
ATOM     29  C   UNL     1       5.694   6.655  -5.697  0.00  0.00    +0.121 A 
ATOM     30  C   UNL     1       6.294   6.311  -4.494  0.00  0.00    +0.046 A 
ATOM     31  C   UNL     1       5.786   5.268  -3.743  0.00  0.00    +0.007 A 
ATOM     32  C   UNL     1       4.681   4.568  -4.190  0.00  0.00    -0.043 A 
ATOM     33  C   UNL     1       4.085   4.905  -5.391  0.00  0.00    +0.007 A 
ATOM     34  C   UNL     1       4.585   5.950  -6.143  0.00  0.00    +0.046 A 
BRANCH  29  35
ATOM     35  O   UNL     1       6.192   7.680  -6.437  0.00  0.00    -0.492 OA
BRANCH  35  36
ATOM     36  C   UNL     1       5.524   7.978  -7.664  0.00  0.00    +0.229 C 
BRANCH  36  38
ATOM     37  C   UNL     1       5.506   9.472  -9.667  0.00  0.00    +0.007 C 
ATOM     38  C   UNL     1       6.222   9.153  -8.353  0.00  0.00    +0.038 C 
ENDBRANCH  36  38
ENDBRANCH  35  36
ENDBRANCH  29  35
ENDBRANCH   1  32
TORSDOF 6
