REMARK  Name = ZINC00622661
REMARK  6 active torsions:
REMARK  status: ('A' for Active; 'I' for Inactive)
REMARK    1  A    between atoms: C_3  and  P_4
REMARK    2  A    between atoms: P_4  and  C_6
REMARK    3  A    between atoms: P_4  and  N_9
REMARK    4  A    between atoms: N_12  and  P_15
REMARK    5  A    between atoms: P_15  and  C_17
REMARK    6  A    between atoms: P_15  and  C_20
REMARK                            x       y       z     vdW  Elec       q    Type
REMARK                         _______ _______ _______ _____ _____    ______ ____
ROOT
ATOM      1  N   UNL     1       0.515   1.640  -0.224  0.00  0.00    -0.274 NA
ATOM      2  C   UNL     1      -0.743   0.920  -0.467  0.00  0.00    +0.105 C 
ATOM      3  C   UNL     1      -0.445  -0.386  -1.207  0.00  0.00    +0.105 C 
ATOM      4  N   UNL     1       0.479  -1.201  -0.406  0.00  0.00    -0.274 NA
ATOM      5  C   UNL     1       1.737  -0.480  -0.164  0.00  0.00    +0.105 C 
ATOM      6  C   UNL     1       1.439   0.826   0.577  0.00  0.00    +0.105 C 
ENDROOT
BRANCH   1   7
ATOM      7  P   UNL     1       0.226   3.126   0.512  0.00  0.00    +0.004 P 
ATOM      8  S   UNL     1      -0.229   2.855   2.299  0.00  0.00    -0.050 S 
BRANCH   7  11
ATOM      9  C   UNL     1       2.932   3.578  -0.334  0.00  0.00    +0.010 C 
ATOM     10  C   UNL     1       2.960   3.678   1.193  0.00  0.00    +0.010 C 
ATOM     11  C   UNL     1       1.730   4.153   0.417  0.00  0.00    +0.035 C 
ENDBRANCH   7  11
BRANCH   7  12
ATOM     12  C   UNL     1      -1.143   3.972  -0.343  0.00  0.00    +0.035 C 
ATOM     13  C   UNL     1      -2.220   4.627   0.525  0.00  0.00    +0.010 C 
ATOM     14  C   UNL     1      -2.534   3.342  -0.245  0.00  0.00    +0.010 C 
ENDBRANCH   7  12
ENDBRANCH   1   7
BRANCH   4  15
ATOM     15  P   UNL     1       0.767  -2.686  -1.143  0.00  0.00    +0.004 P 
ATOM     16  S   UNL     1       1.852  -2.438  -2.637  0.00  0.00    -0.050 S 
BRANCH  15  17
ATOM     17  C   UNL     1       1.603  -3.798   0.037  0.00  0.00    +0.035 C 
ATOM     18  C   UNL     1       1.841  -3.273   1.454  0.00  0.00    +0.010 C 
ATOM     19  C   UNL     1       3.016  -3.420   0.484  0.00  0.00    +0.010 C 
ENDBRANCH  15  17
BRANCH  15  20
ATOM     20  C   UNL     1      -0.817  -3.427  -1.658  0.00  0.00    +0.035 C 
ATOM     21  C   UNL     1      -0.888  -4.040  -3.058  0.00  0.00    +0.010 C 
ATOM     22  C   UNL     1      -1.601  -2.718  -2.764  0.00  0.00    +0.010 C 
ENDBRANCH  15  20
ENDBRANCH   4  15
TORSDOF 6
