REMARK  Name = ZINC13388096
REMARK  9 active torsions:
REMARK  status: ('A' for Active; 'I' for Inactive)
REMARK    1  A    between atoms: C_10  and  C_11
REMARK    2  A    between atoms: C_11  and  O_12
REMARK    3  A    between atoms: O_12  and  C_13
REMARK    4  A    between atoms: C_16  and  C_19
REMARK    5  A    between atoms: C_20  and  C_21
REMARK    6  A    between atoms: C_20  and  C_23
REMARK    7  A    between atoms: N_25  and  C_26
REMARK    8  A    between atoms: C_29  and  N_36
REMARK    9  A    between atoms: C_31  and  C_32
REMARK                            x       y       z     vdW  Elec       q    Type
REMARK                         _______ _______ _______ _____ _____    ______ ____
ROOT
ATOM      1  C   UNL     1       2.588   1.633   0.147  0.00  0.00    +0.032 C 
ATOM      2  C   UNL     1       1.476   1.953   0.895  0.00  0.00    +0.114 C 
ENDROOT
BRANCH   1   6
ATOM      3  C   UNL     1       6.172   3.819   0.649  0.00  0.00    +0.121 A 
ATOM      4  C   UNL     1       6.224   2.458   0.363  0.00  0.00    +0.046 A 
ATOM      5  C   UNL     1       5.070   1.746   0.200  0.00  0.00    +0.011 A 
ATOM      6  C   UNL     1       3.830   2.390   0.321  0.00  0.00    -0.023 A 
ATOM      7  C   UNL     1       3.784   3.763   0.603  0.00  0.00    +0.011 A 
ATOM      8  C   UNL     1       4.945   4.463   0.770  0.00  0.00    +0.046 A 
BRANCH   3   9
ATOM      9  O   UNL     1       7.322   4.520   0.809  0.00  0.00    -0.487 OA
BRANCH   9  10
ATOM     10  C   UNL     1       7.197   5.914   1.101  0.00  0.00    +0.265 C 
BRANCH  10  20
ATOM     11  C   UNL     1       9.034  10.585   2.106  0.00  0.00    +0.001 A 
ATOM     12  C   UNL     1       7.757  10.040   1.977  0.00  0.00    +0.001 A 
ATOM     13  C   UNL     1       7.584   8.719   1.696  0.00  0.00    +0.009 A 
ATOM     14  C   UNL     1       8.707   7.890   1.534  0.00  0.00    -0.011 A 
ATOM     15  C   UNL     1      10.005   8.444   1.665  0.00  0.00    -0.018 A 
ATOM     16  C   UNL     1      10.144   9.812   1.955  0.00  0.00    +0.008 A 
ATOM     17  C   UNL     1      11.127   7.615   1.503  0.00  0.00    +0.008 A 
ATOM     18  C   UNL     1      10.954   6.294   1.223  0.00  0.00    +0.001 A 
ATOM     19  C   UNL     1       9.678   5.748   1.100  0.00  0.00    +0.007 A 
ATOM     20  C   UNL     1       8.568   6.522   1.244  0.00  0.00    -0.003 A 
ENDBRANCH  10  20
ENDBRANCH   9  10
ENDBRANCH   3   9
ENDBRANCH   1   6
BRANCH   2  21
ATOM     21  C   UNL     1       0.213   1.231   0.679  0.00  0.00    +0.259 C 
ATOM     22  O   UNL     1       0.150   0.351  -0.159  0.00  0.00    -0.269 OA
ATOM     23  N   UNL     1      -0.877   1.548   1.406  0.00  0.00    -0.280 N 
ATOM     24  H   UNL     1      -0.811   2.201   2.120  0.00  0.00    +0.155 HD
BRANCH  23  25
ATOM     25  C   UNL     1      -2.103   0.934   1.132  0.00  0.00    +0.045 A 
ATOM     26  C   UNL     1      -2.429   0.581  -0.172  0.00  0.00    +0.026 A 
ATOM     27  C   UNL     1      -3.640  -0.025  -0.439  0.00  0.00    +0.034 A 
ATOM     28  C   UNL     1      -4.529  -0.280   0.589  0.00  0.00    +0.127 A 
ATOM     29  C   UNL     1      -4.208   0.069   1.887  0.00  0.00    +0.047 A 
ATOM     30  C   UNL     1      -2.996   0.671   2.163  0.00  0.00    +0.078 A 
BRANCH  30  31
ATOM     31  C   UNL     1      -2.645   1.048   3.579  0.00  0.00    +0.419 C 
ATOM     32  F   UNL     1      -3.694   0.685   4.431  0.00  0.00    -0.166 F 
ATOM     33  F   UNL     1      -1.479   0.378   3.964  0.00  0.00    -0.166 F 
ATOM     34  F   UNL     1      -2.437   2.429   3.657  0.00  0.00    -0.166 F 
ENDBRANCH  30  31
BRANCH  28  35
ATOM     35  N   UNL     1      -5.827  -0.930   0.298  0.00  0.00    +0.056 N 
ATOM     36  O   UNL     1      -6.111  -1.239  -0.845  0.00  0.00    -0.126 OA
ATOM     37  O   UNL     1      -6.611  -1.156   1.202  0.00  0.00    -0.126 OA
ENDBRANCH  28  35
ENDBRANCH  23  25
ENDBRANCH   2  21
BRANCH   2  38
ATOM     38  C   UNL     1       1.550   2.989   1.881  0.00  0.00    +0.104 C 
ATOM     39  N   UNL     1       1.608   3.810   2.663  0.00  0.00    -0.191 NA
ENDBRANCH   2  38
TORSDOF 9
