REMARK  Name = ZINC03404215
REMARK  9 active torsions:
REMARK  status: ('A' for Active; 'I' for Inactive)
REMARK    1  A    between atoms: C_1  and  C_2
REMARK    2  A    between atoms: C_9  and  N_14
REMARK    3  A    between atoms: C_10  and  C_11
REMARK    4  A    between atoms: C_15  and  C_17
REMARK    5  A    between atoms: C_17  and  O_18
REMARK    6  A    between atoms: O_18  and  C_19
REMARK    7  A    between atoms: C_19  and  C_21
REMARK    8  A    between atoms: C_21  and  N_22
REMARK    9  A    between atoms: C_30  and  C_31
REMARK                            x       y       z     vdW  Elec       q    Type
REMARK                         _______ _______ _______ _____ _____    ______ ____
ROOT
ATOM      1  N   UNL     1      -5.348   1.043  -5.843  0.00  0.00    -0.277 N 
ATOM      2  C   UNL     1      -5.082   0.843  -4.536  0.00  0.00    +0.255 C 
ATOM      3  O   UNL     1      -5.944   1.038  -3.706  0.00  0.00    -0.272 OA
ATOM      4  H   UNL     1      -4.658   0.887  -6.507  0.00  0.00    +0.155 HD
ENDROOT
BRANCH   1  12
ATOM      5  C   UNL     1     -12.590   3.375  -7.658  0.00  0.00    +0.008 C 
ATOM      6  C   UNL     1     -11.240   2.657  -7.723  0.00  0.00    -0.009 C 
ATOM      7  C   UNL     1     -10.340   3.348  -8.751  0.00  0.00    +0.008 C 
ATOM      8  C   UNL     1      -9.092   2.501  -9.003  0.00  0.00    +0.037 C 
ATOM      9  C   UNL     1      -8.441   2.176  -7.664  0.00  0.00    -0.023 A 
ATOM     10  C   UNL     1      -9.133   2.288  -6.509  0.00  0.00    -0.004 A 
ATOM     11  S   UNL     1      -7.985   1.815  -5.246  0.00  0.00    -0.077 S 
ATOM     12  C   UNL     1      -6.606   1.472  -6.237  0.00  0.00    +0.084 A 
ATOM     13  C   UNL     1      -7.064   1.736  -7.520  0.00  0.00    +0.068 A 
ATOM     14  C   UNL     1     -10.558   2.719  -6.348  0.00  0.00    +0.046 C 
BRANCH  13  15
ATOM     15  C   UNL     1      -6.191   1.575  -8.687  0.00  0.00    +0.244 C 
ATOM     16  O   UNL     1      -6.142   0.506  -9.267  0.00  0.00    -0.270 OA
ATOM     17  N   UNL     1      -5.444   2.611  -9.118  0.00  0.00    -0.325 N 
ATOM     18  H   UNL     1      -5.483   3.462  -8.656  0.00  0.00    +0.145 HD
ATOM     19  H   UNL     1      -4.867   2.504  -9.890  0.00  0.00    +0.145 HD
ENDBRANCH  13  15
ENDBRANCH   1  12
BRANCH   2  20
ATOM     20  C   UNL     1      -3.715   0.376  -4.108  0.00  0.00    +0.328 C 
BRANCH  20  21
ATOM     21  O   UNL     1      -3.682   0.236  -2.663  0.00  0.00    -0.454 OA
BRANCH  21  22
ATOM     22  C   UNL     1      -2.527  -0.175  -2.117  0.00  0.00    +0.328 C 
ATOM     23  O   UNL     1      -1.575  -0.409  -2.823  0.00  0.00    -0.249 OA
BRANCH  22  24
ATOM     24  C   UNL     1      -2.417  -0.343  -0.623  0.00  0.00    +0.244 C 
BRANCH  24  25
ATOM     25  N   UNL     1      -1.067  -0.796  -0.281  0.00  0.00    -0.310 N 
ATOM     26  C   UNL     1      -0.644  -2.107  -0.184  0.00  0.00    +0.070 A 
ATOM     27  C   UNL     1      -1.263  -3.338  -0.355  0.00  0.00    +0.028 A 
ATOM     28  C   UNL     1      -0.537  -4.497  -0.179  0.00  0.00    +0.002 A 
ATOM     29  C   UNL     1       0.806  -4.441   0.167  0.00  0.00    +0.002 A 
ATOM     30  C   UNL     1       1.431  -3.239   0.339  0.00  0.00    +0.030 A 
ATOM     31  C   UNL     1       0.716  -2.050   0.166  0.00  0.00    +0.090 A 
ATOM     32  N   UNL     1       1.046  -0.737   0.259  0.00  0.00    -0.224 NA
ATOM     33  C   UNL     1       0.002  -0.004   0.002  0.00  0.00    +0.216 A 
BRANCH  33  34
ATOM     34  C   UNL     1      -0.018   1.503   0.010  0.00  0.00    +0.451 C 
ATOM     35  F   UNL     1       1.294   1.987   0.000  0.00  0.00    -0.163 F 
ATOM     36  F   UNL     1      -0.695   1.966  -1.123  0.00  0.00    -0.163 F 
ATOM     37  F   UNL     1      -0.673   1.954   1.161  0.00  0.00    -0.163 F 
ENDBRANCH  33  34
ENDBRANCH  24  25
ENDBRANCH  22  24
ENDBRANCH  21  22
ENDBRANCH  20  21
ENDBRANCH   2  20
TORSDOF 8
