REMARK  Name = ZINC14467012
REMARK  3 active torsions:
REMARK  status: ('A' for Active; 'I' for Inactive)
REMARK    1  A    between atoms: C_6  and  C_7
REMARK    2  A    between atoms: C_17  and  C_20
REMARK    3  A    between atoms: C_25  and  O_26
REMARK                            x       y       z     vdW  Elec       q    Type
REMARK                         _______ _______ _______ _____ _____    ______ ____
ROOT
ATOM      1  C   UNL     1       5.073   0.566   0.556  0.00  0.00    +0.015 A 
ATOM      2  C   UNL     1       4.647   1.612  -0.229  0.00  0.00    +0.024 A 
ATOM      3  C   UNL     1       3.953   2.678   0.339  0.00  0.00    +0.031 A 
ATOM      4  C   UNL     1       3.682   2.702   1.702  0.00  0.00    -0.019 A 
ATOM      5  C   UNL     1       4.109   1.649   2.492  0.00  0.00    +0.019 A 
ATOM      6  C   UNL     1       4.803   0.579   1.927  0.00  0.00    +0.037 A 
ATOM      7  C   UNL     1       2.941   3.828   2.351  0.00  0.00    +0.049 C 
ATOM      8  C   UNL     1       1.526   3.430   2.696  0.00  0.00    -0.023 C 
ATOM      9  C   UNL     1       0.711   4.447   2.515  0.00  0.00    -0.030 C 
ATOM     10  C   UNL     1       1.476   5.663   2.029  0.00  0.00    +0.033 C 
ATOM     11  C   UNL     1       2.776   5.053   1.426  0.00  0.00    +0.029 C 
ATOM     12  C   UNL     1       2.447   4.590   0.005  0.00  0.00    +0.109 C 
ATOM     13  N   UNL     1       3.529   3.725  -0.477  0.00  0.00    -0.336 N 
ATOM     14  H   UNL     1       3.939   3.877  -1.343  0.00  0.00    +0.147 HD
ENDROOT
BRANCH  12  15
ATOM     15  C   UNL     1       1.151   3.821   0.012  0.00  0.00    +0.017 A 
ATOM     16  C   UNL     1       1.159   2.455   0.222  0.00  0.00    +0.029 A 
ATOM     17  C   UNL     1      -0.030   1.748   0.230  0.00  0.00    +0.043 A 
ATOM     18  C   UNL     1      -1.229   2.406   0.021  0.00  0.00    +0.043 A 
ATOM     19  C   UNL     1      -1.242   3.772  -0.184  0.00  0.00    +0.084 A 
ATOM     20  C   UNL     1      -0.049   4.483  -0.192  0.00  0.00    +0.140 A 
ATOM     21 CL   UNL     1      -2.748   4.599  -0.438  0.00  0.00    -0.080 Cl
ATOM     22 CL   UNL     1      -0.017   0.032   0.495  0.00  0.00    -0.083 Cl
BRANCH  20  23
ATOM     23  O   UNL     1      -0.059   5.827  -0.398  0.00  0.00    -0.505 OA
ATOM     24  H   UNL     1       0.013   6.082  -1.328  0.00  0.00    +0.292 HD
ENDBRANCH  20  23
ENDBRANCH  12  15
BRANCH   6  25
ATOM     25  C   UNL     1       5.252  -0.539   2.778  0.00  0.00    +0.242 C 
ATOM     26  O   UNL     1       5.018  -0.528   3.971  0.00  0.00    -0.270 OA
ATOM     27  N   UNL     1       5.923  -1.573   2.233  0.00  0.00    -0.325 N 
ATOM     28  H   UNL     1       6.111  -1.582   1.281  0.00  0.00    +0.145 HD
ATOM     29  H   UNL     1       6.219  -2.309   2.792  0.00  0.00    +0.145 HD
ENDBRANCH   6  25
TORSDOF 3
