REMARK  Name = ZINC38547737
REMARK  12 active torsions:
REMARK  status: ('A' for Active; 'I' for Inactive)
REMARK    1  A    between atoms: C_1  and  C_2
REMARK    2  A    between atoms: C_2  and  C_20
REMARK    3  A    between atoms: C_5  and  C_10
REMARK    4  A    between atoms: C_7  and  C_8
REMARK    5  A    between atoms: C_7  and  C_9
REMARK    6  A    between atoms: N_22  and  N_23
REMARK    7  A    between atoms: C_24  and  C_25
REMARK    8  A    between atoms: C_28  and  O_36
REMARK    9  A    between atoms: C_29  and  O_34
REMARK   10  A    between atoms: C_30  and  C_31
REMARK   11  A    between atoms: O_34  and  C_35
REMARK   12  A    between atoms: O_36  and  C_37
REMARK                            x       y       z     vdW  Elec       q    Type
REMARK                         _______ _______ _______ _____ _____    ______ ____
ROOT
ATOM      1  C   UNL     1       0.567  -0.446  -1.366  0.00  0.00    +0.239 C 
ATOM      2  O   UNL     1      -0.018  -1.215  -2.099  0.00  0.00    -0.273 OA
ATOM      3  N   UNL     1       1.814  -0.039  -1.673  0.00  0.00    -0.207 N 
ATOM      4  H   UNL     1       2.309   0.517  -1.052  0.00  0.00    +0.177 HD
ENDROOT
BRANCH   1   6
ATOM      5  C   UNL     1      -0.044   1.582  -0.061  0.00  0.00    +0.021 C 
ATOM      6  C   UNL     1      -0.102   0.054  -0.111  0.00  0.00    +0.052 C 
ATOM      7  C   UNL     1      -1.569  -0.421  -0.067  0.00  0.00    +0.017 C 
ATOM      8  C   UNL     1      -1.525  -1.708   0.794  0.00  0.00    +0.013 C 
ATOM      9  C   UNL     1      -0.480  -1.357   1.881  0.00  0.00    +0.062 C 
ATOM     10  C   UNL     1       0.591  -0.541   1.128  0.00  0.00    -0.012 C 
ATOM     11  C   UNL     1       1.740  -1.455   0.698  0.00  0.00    +0.012 C 
ATOM     12  C   UNL     1       1.120   0.582   2.022  0.00  0.00    +0.012 C 
BRANCH   9  13
ATOM     13  C   UNL     1       0.121  -2.611   2.461  0.00  0.00    +0.112 A 
ATOM     14  N   UNL     1       0.347  -3.759   1.767  0.00  0.00    -0.342 N 
ATOM     15  H   UNL     1       0.154  -3.912   0.829  0.00  0.00    +0.167 HD
ATOM     16  C   UNL     1       0.903  -4.667   2.646  0.00  0.00    +0.066 A 
ATOM     17  C   UNL     1       1.341  -5.980   2.532  0.00  0.00    +0.028 A 
ATOM     18  C   UNL     1       1.861  -6.624   3.634  0.00  0.00    +0.002 A 
ATOM     19  C   UNL     1       1.950  -5.970   4.855  0.00  0.00    +0.002 A 
ATOM     20  C   UNL     1       1.524  -4.679   4.986  0.00  0.00    +0.030 A 
ATOM     21  C   UNL     1       0.993  -4.005   3.882  0.00  0.00    +0.089 A 
ATOM     22  N   UNL     1       0.503  -2.753   3.697  0.00  0.00    -0.232 NA
ENDBRANCH   9  13
ENDBRANCH   1   6
BRANCH   3  23
ATOM     23  N   UNL     1       2.396  -0.420  -2.889  0.00  0.00    -0.188 NA
ATOM     24  C   UNL     1       3.598  -0.028  -3.186  0.00  0.00    +0.139 C 
BRANCH  24  25
ATOM     25  C   UNL     1       4.209  -0.428  -4.463  0.00  0.00    +0.012 A 
ATOM     26  C   UNL     1       3.552  -1.327  -5.302  0.00  0.00    +0.014 A 
ATOM     27  C   UNL     1       4.125  -1.703  -6.501  0.00  0.00    +0.050 A 
ATOM     28  C   UNL     1       5.356  -1.194  -6.885  0.00  0.00    +0.162 A 
ATOM     29  C   UNL     1       6.032  -0.295  -6.064  0.00  0.00    +0.176 A 
ATOM     30  C   UNL     1       5.462   0.101  -4.848  0.00  0.00    +0.117 A 
BRANCH  30  31
ATOM     31  C   UNL     1       6.162   1.053  -3.977  0.00  0.00    +0.391 C 
ATOM     32  O   UNL     1       5.713   1.313  -2.869  0.00  0.00    -0.240 OA
ATOM     33  O   UNL     1       7.195   1.587  -4.359  0.00  0.00    -0.240 OA
ENDBRANCH  30  31
BRANCH  29  34
ATOM     34  O   UNL     1       7.237   0.200  -6.444  0.00  0.00    -0.491 OA
ATOM     35  C   UNL     1       7.230   1.407  -7.209  0.00  0.00    +0.277 C 
ENDBRANCH  29  34
BRANCH  28  36
ATOM     36  O   UNL     1       5.907  -1.575  -8.068  0.00  0.00    -0.491 OA
ATOM     37  C   UNL     1       5.162  -2.500  -8.862  0.00  0.00    +0.277 C 
ENDBRANCH  28  36
ENDBRANCH  24  25
ENDBRANCH   3  23
TORSDOF 7
