REMARK  Name = ZINC38837742
REMARK  10 active torsions:
REMARK  status: ('A' for Active; 'I' for Inactive)
REMARK    1  A    between atoms: C_1  and  C_2
REMARK    2  A    between atoms: N_11  and  C_12
REMARK    3  A    between atoms: C_12  and  C_13
REMARK    4  A    between atoms: C_13  and  C_14
REMARK    5  A    between atoms: C_14  and  N_15
REMARK    6  A    between atoms: N_15  and  C_16
REMARK    7  A    between atoms: N_15  and  C_17
REMARK    8  A    between atoms: C_18  and  C_20
REMARK    9  A    between atoms: C_23  and  S_26
REMARK   10  A    between atoms: S_26  and  N_29
REMARK                            x       y       z     vdW  Elec       q    Type
REMARK                         _______ _______ _______ _____ _____    ______ ____
ROOT
ATOM      1  C   UNL     1       0.771   2.334   0.491  0.00  0.00    +0.046 C 
ATOM      2  C   UNL     1       0.696   0.845   0.270  0.00  0.00    -0.023 A 
ATOM      3  C   UNL     1       0.868   0.338  -0.991  0.00  0.00    +0.025 A 
ATOM      4  C   UNL     1       0.806  -1.027  -1.238  0.00  0.00    +0.042 A 
ATOM      5  C   UNL     1       0.566  -1.895  -0.188  0.00  0.00    +0.037 A 
ATOM      6  C   UNL     1       0.393  -1.395   1.078  0.00  0.00    +0.042 A 
ATOM      7  C   UNL     1       0.455  -0.013   1.368  0.00  0.00    +0.083 A 
ATOM      8  N   UNL     1       0.270   0.322   2.663  0.00  0.00    -0.224 NA
ATOM      9  C   UNL     1       0.052  -0.572   3.599  0.00  0.00    +0.168 A 
ATOM     10  S   UNL     1       0.073  -2.103   2.676  0.00  0.00    -0.052 S 
ATOM     11  N   UNL     1      -0.153  -0.378   4.955  0.00  0.00    -0.246 N 
ATOM     12  C   UNL     1      -0.142   0.869   5.466  0.00  0.00    +0.252 C 
ATOM     13  O   UNL     1      -0.027   1.827   4.728  0.00  0.00    -0.270 OA
ATOM     14 CL   UNL     1       1.028  -1.638  -2.848  0.00  0.00    -0.083 Cl
ENDROOT
BRANCH  12  15
ATOM     15  C   UNL     1      -0.271   1.070   6.925  0.00  0.00    +0.037 A 
ATOM     16  C   UNL     1       0.377   0.209   7.812  0.00  0.00    +0.015 A 
ATOM     17  C   UNL     1       0.253   0.403   9.172  0.00  0.00    +0.029 A 
ATOM     18  C   UNL     1      -0.513   1.448   9.658  0.00  0.00    +0.106 A 
ATOM     19  C   UNL     1      -1.159   2.305   8.784  0.00  0.00    +0.029 A 
ATOM     20  C   UNL     1      -1.038   2.126   7.421  0.00  0.00    +0.015 A 
BRANCH  18  21
ATOM     21  S   UNL     1      -0.667   1.688  11.396  0.00  0.00    +0.061 S 
ATOM     22  O   UNL     1      -1.877   2.403  11.602  0.00  0.00    -0.153 OA
ATOM     23  O   UNL     1      -0.413   0.429  12.004  0.00  0.00    -0.153 OA
BRANCH  21  24
ATOM     24  N   UNL     1       0.562   2.695  11.862  0.00  0.00    -0.177 NA
ATOM     25  C   UNL     1       1.903   2.270  12.290  0.00  0.00    +0.109 C 
ATOM     26  C   UNL     1       2.695   3.544  12.651  0.00  0.00    +0.018 C 
ATOM     27  C   UNL     1       1.575   4.577  12.946  0.00  0.00    +0.018 C 
ATOM     28  C   UNL     1       0.496   4.167  11.910  0.00  0.00    +0.109 C 
ENDBRANCH  21  24
ENDBRANCH  18  21
ENDBRANCH  12  15
BRANCH  11  29
ATOM     29  C   UNL     1      -0.380  -1.528   5.833  0.00  0.00    +0.114 C 
BRANCH  29  30
ATOM     30  C   UNL     1       0.938  -2.275   6.048  0.00  0.00    +0.001 C 
BRANCH  30  31
ATOM     31  C   UNL     1       0.733  -3.383   7.083  0.00  0.00    -0.078 C 
BRANCH  31  32
ATOM     32  N   UNL     1       1.999  -4.100   7.289  0.00  0.00    +0.376 N 
ATOM     33  C   UNL     1       1.834  -5.084   8.367  0.00  0.00    -0.097 C 
ATOM     34  C   UNL     1       2.379  -4.790   6.049  0.00  0.00    -0.097 C 
ATOM     35  H   UNL     1       2.721  -3.442   7.542  0.00  0.00    -0.083 HD
ENDBRANCH  31  32
ENDBRANCH  30  31
ENDBRANCH  29  30
ENDBRANCH  11  29
TORSDOF 7
