REMARK  Name = ZINC42108064
REMARK  11 active torsions:
REMARK  status: ('A' for Active; 'I' for Inactive)
REMARK    1  A    between atoms: C_1  and  C_2
REMARK    2  A    between atoms: N_5  and  C_8
REMARK    3  A    between atoms: C_8  and  C_10
REMARK    4  A    between atoms: C_8  and  C_25
REMARK    5  A    between atoms: C_10  and  N_11
REMARK    6  A    between atoms: N_11  and  C_12
REMARK    7  A    between atoms: C_15  and  N_22
REMARK    8  A    between atoms: C_17  and  S_18
REMARK    9  A    between atoms: S_18  and  N_21
REMARK   10  A    between atoms: C_25  and  C_26
REMARK   11  A    between atoms: C_25  and  C_27
REMARK                            x       y       z     vdW  Elec       q    Type
REMARK                         _______ _______ _______ _____ _____    ______ ____
ROOT
ATOM      1  N   UNL     1       1.734  -4.127   2.379  0.00  0.00    -0.344 N 
ATOM      2  H   UNL     1       0.921  -3.604   2.304  0.00  0.00    +0.146 HD
ENDROOT
BRANCH   1   3
ATOM      3  C   UNL     1       2.308  -4.351   3.633  0.00  0.00    +0.054 A 
ATOM      4  C   UNL     1       3.533  -4.997   3.733  0.00  0.00    +0.027 A 
ATOM      5  C   UNL     1       4.097  -5.216   4.974  0.00  0.00    +0.034 A 
ATOM      6  C   UNL     1       3.444  -4.792   6.117  0.00  0.00    +0.128 A 
ATOM      7  C   UNL     1       2.224  -4.148   6.021  0.00  0.00    +0.063 A 
ATOM      8  C   UNL     1       1.657  -3.921   4.782  0.00  0.00    +0.128 A 
BRANCH   8   9
ATOM      9  S   UNL     1       0.106  -3.094   4.660  0.00  0.00    +0.058 S 
ATOM     10  O   UNL     1      -0.700  -3.869   3.784  0.00  0.00    -0.153 OA
ATOM     11  O   UNL     1      -0.294  -2.783   5.988  0.00  0.00    -0.153 OA
BRANCH   9  12
ATOM     12  N   UNL     1       0.379  -1.650   3.898  0.00  0.00    -0.203 NA
ATOM     13  H   UNL     1      -0.339  -1.213   3.414  0.00  0.00    +0.144 HD
ATOM     14  H   UNL     1       1.258  -1.240   3.936  0.00  0.00    +0.144 HD
ENDBRANCH   9  12
ENDBRANCH   8   9
BRANCH   6  15
ATOM     15  N   UNL     1       4.051  -5.028   7.446  0.00  0.00    +0.056 N 
ATOM     16  O   UNL     1       5.118  -5.591   7.532  0.00  0.00    -0.126 OA
ATOM     17  O   UNL     1       3.481  -4.657   8.446  0.00  0.00    -0.126 OA
ENDBRANCH   6  15
ENDBRANCH   1   3
BRANCH   1  18
ATOM     18  C   UNL     1       2.361  -4.684   1.177  0.00  0.00    +0.086 C 
BRANCH  18  19
ATOM     19  C   UNL     1       1.650  -4.145  -0.065  0.00  0.00    -0.049 C 
BRANCH  19  24
ATOM     20  C   UNL     1       3.379   1.273   0.351  0.00  0.00    +0.007 C 
ATOM     21  C   UNL     1       3.130  -0.210   0.630  0.00  0.00    -0.018 C 
ATOM     22  C   UNL     1       1.623  -0.471   0.702  0.00  0.00    -0.016 C 
ATOM     23  C   UNL     1       1.379  -1.969   0.902  0.00  0.00    -0.078 C 
ATOM     24  N   UNL     1       1.954  -2.716  -0.223  0.00  0.00    +0.383 N 
ATOM     25  C   UNL     1       3.409  -2.528  -0.254  0.00  0.00    -0.078 C 
ATOM     26  C   UNL     1       3.731  -1.052  -0.499  0.00  0.00    -0.016 C 
ATOM     27  H   UNL     1       1.553  -2.383  -1.086  0.00  0.00    -0.081 HD
ENDBRANCH  19  24
BRANCH  19  28
ATOM     28  C   UNL     1       2.133  -4.908  -1.300  0.00  0.00    -0.029 C 
ATOM     29  C   UNL     1       1.706  -6.373  -1.194  0.00  0.00    +0.005 C 
ATOM     30  C   UNL     1       1.517  -4.288  -2.556  0.00  0.00    +0.005 C 
ENDBRANCH  19  28
ENDBRANCH  18  19
ENDBRANCH   1  18
TORSDOF 8
