REMARK  Name = ZINC12693197
REMARK  9 active torsions:
REMARK  status: ('A' for Active; 'I' for Inactive)
REMARK    1  A    between atoms: C_1  and  C_2
REMARK    2  A    between atoms: C_3  and  C_30
REMARK    3  A    between atoms: N_4  and  C_23
REMARK    4  A    between atoms: C_5  and  N_9
REMARK    5  A    between atoms: C_6  and  C_7
REMARK    6  A    between atoms: C_10  and  C_12
REMARK    7  A    between atoms: C_12  and  N_57
REMARK    8  A    between atoms: C_16  and  C_18
REMARK    9  A    between atoms: C_23  and  C_24
REMARK                            x       y       z     vdW  Elec       q    Type
REMARK                         _______ _______ _______ _____ _____    ______ ____
ROOT
ATOM      1  N   UNL     1      -3.059   4.893   2.234  0.00  0.00    -0.272 N 
ATOM      2  C   UNL     1      -4.382   4.903   1.977  0.00  0.00    +0.202 C 
ATOM      3  O   UNL     1      -4.946   5.951   1.740  0.00  0.00    -0.278 OA
ATOM      4  H   UNL     1      -2.605   4.054   2.409  0.00  0.00    +0.156 HD
ENDROOT
BRANCH   1   9
ATOM      5  C   UNL     1      -1.587   9.646   3.119  0.00  0.00    +0.047 C 
ATOM      6  C   UNL     1      -1.653   8.223   2.628  0.00  0.00    -0.011 A 
ATOM      7  C   UNL     1      -0.750   7.599   1.854  0.00  0.00    +0.022 A 
ATOM      8  N   UNL     1      -1.163   6.314   1.623  0.00  0.00    -0.329 N 
ATOM      9  C   UNL     1      -2.346   6.083   2.248  0.00  0.00    +0.123 A 
ATOM     10  C   UNL     1      -2.719   7.250   2.900  0.00  0.00    +0.095 A 
ATOM     11  C   UNL     1       0.517   8.217   1.321  0.00  0.00    +0.064 C 
BRANCH  10  12
ATOM     12  C   UNL     1      -3.900   7.462   3.681  0.00  0.00    +0.103 C 
ATOM     13  N   UNL     1      -4.838   7.630   4.300  0.00  0.00    -0.191 NA
ENDBRANCH  10  12
BRANCH   8  14
ATOM     14  C   UNL     1      -0.434   5.331   0.818  0.00  0.00    +0.154 C 
BRANCH  14  15
ATOM     15  C   UNL     1      -0.762   5.539  -0.662  0.00  0.00    +0.138 C 
ATOM     16  C   UNL     1       0.042   4.544  -1.537  0.00  0.00    +0.035 C 
ATOM     17  C   UNL     1      -0.862   4.464  -2.797  0.00  0.00    +0.031 C 
ATOM     18  C   UNL     1      -2.277   4.604  -2.196  0.00  0.00    +0.160 C 
ATOM     19  O   UNL     1      -2.142   5.231  -0.915  0.00  0.00    -0.375 OA
ENDBRANCH  14  15
ENDBRANCH   8  14
ENDBRANCH   1   9
BRANCH   2  20
ATOM     20  C   UNL     1      -5.160   3.613   1.983  0.00  0.00    +0.020 C 
BRANCH  20  25
ATOM     21  C   UNL     1      -7.194   4.786   2.608  0.00  0.00    -0.077 C 
ATOM     22  C   UNL     1      -8.189   5.670   1.834  0.00  0.00    -0.020 C 
ATOM     23  C   UNL     1      -8.052   5.234   0.357  0.00  0.00    -0.012 C 
ATOM     24  C   UNL     1      -6.646   4.584   0.312  0.00  0.00    -0.030 C 
ATOM     25  N   UNL     1      -6.581   3.901   1.617  0.00  0.00    +0.390 N 
ATOM     26  H   UNL     1      -7.103   3.017   1.571  0.00  0.00    -0.080 HD
BRANCH  24  27
ATOM     27  C   UNL     1      -6.550   3.604  -0.828  0.00  0.00    -0.024 A 
ATOM     28  C   UNL     1      -5.973   3.763  -2.045  0.00  0.00    +0.009 A 
ATOM     29  C   UNL     1      -6.002   2.713  -2.943  0.00  0.00    +0.008 A 
ATOM     30  C   UNL     1      -6.615   1.558  -2.585  0.00  0.00    +0.045 A 
ATOM     31  S   UNL     1      -7.172   1.934  -0.930  0.00  0.00    -0.103 S 
ENDBRANCH  24  27
ENDBRANCH  20  25
ENDBRANCH   2  20
TORSDOF 7
