REMARK  Name = ZINC08966058
REMARK  9 active torsions:
REMARK  status: ('A' for Active; 'I' for Inactive)
REMARK    1  A    between atoms: C_1  and  C_2
REMARK    2  A    between atoms: C_5  and  C_9
REMARK    3  A    between atoms: C_7  and  C_8
REMARK    4  A    between atoms: C_9  and  C_29
REMARK    5  A    between atoms: N_12  and  C_16
REMARK    6  A    between atoms: C_16  and  C_17
REMARK    7  A    between atoms: C_17  and  C_19
REMARK    8  A    between atoms: C_22  and  C_28
REMARK    9  A    between atoms: C_23  and  N_25
REMARK                            x       y       z     vdW  Elec       q    Type
REMARK                         _______ _______ _______ _____ _____    ______ ____
ROOT
ATOM      1  C   UNL     1      -1.496   2.550   0.357  0.00  0.00    +0.164 C 
ATOM      2  C   UNL     1      -0.011   2.570   0.659  0.00  0.00    +0.256 C 
ATOM      3  O   UNL     1       0.697   3.545   0.790  0.00  0.00    -0.272 OA
ATOM      4  N   UNL     1       0.359   1.277   0.752  0.00  0.00    -0.216 N 
ATOM      5  C   UNL     1      -0.675   0.452   0.552  0.00  0.00    +0.310 C 
ATOM      6  O   UNL     1      -0.589  -0.760   0.587  0.00  0.00    -0.252 OA
ATOM      7  N   UNL     1      -1.820   1.114   0.304  0.00  0.00    -0.278 N 
ATOM      8  H   UNL     1      -2.690   0.722   0.127  0.00  0.00    +0.152 HD
ENDROOT
BRANCH   1  13
ATOM      9  C   UNL     1      -2.567   5.056  -4.739  0.00  0.00    +0.044 C 
ATOM     10  C   UNL     1      -2.288   4.402  -3.410  0.00  0.00    -0.048 A 
ATOM     11  C   UNL     1      -1.983   5.180  -2.308  0.00  0.00    +0.004 A 
ATOM     12  C   UNL     1      -1.727   4.580  -1.089  0.00  0.00    +0.007 A 
ATOM     13  C   UNL     1      -1.776   3.204  -0.972  0.00  0.00    -0.010 A 
ATOM     14  C   UNL     1      -2.076   2.426  -2.075  0.00  0.00    +0.010 A 
ATOM     15  C   UNL     1      -2.336   3.026  -3.293  0.00  0.00    -0.047 A 
ATOM     16  C   UNL     1      -2.667   2.179  -4.495  0.00  0.00    +0.044 C 
ENDBRANCH   1  13
BRANCH   1  17
ATOM     17  C   UNL     1      -2.270   3.233   1.455  0.00  0.00    -0.011 A 
ATOM     18  C   UNL     1      -1.800   4.414   2.000  0.00  0.00    +0.006 A 
ATOM     19  C   UNL     1      -2.512   5.043   3.004  0.00  0.00    +0.000 A 
ATOM     20  C   UNL     1      -3.689   4.487   3.470  0.00  0.00    +0.000 A 
ATOM     21  C   UNL     1      -4.156   3.303   2.929  0.00  0.00    +0.000 A 
ATOM     22  C   UNL     1      -3.446   2.677   1.921  0.00  0.00    +0.006 A 
ENDBRANCH   1  17
BRANCH   4  23
ATOM     23  C   UNL     1       1.725   0.831   1.037  0.00  0.00    +0.197 C 
BRANCH  23  24
ATOM     24  C   UNL     1       2.477   0.658  -0.257  0.00  0.00    +0.181 C 
ATOM     25  O   UNL     1       1.927   0.886  -1.314  0.00  0.00    -0.290 OA
BRANCH  24  26
ATOM     26  C   UNL     1       3.880   0.214  -0.239  0.00  0.00    +0.021 A 
ATOM     27  C   UNL     1       4.518  -0.050   0.977  0.00  0.00    +0.012 A 
ATOM     28  C   UNL     1       5.832  -0.467   0.985  0.00  0.00    +0.006 A 
ATOM     29  C   UNL     1       6.520  -0.624  -0.206  0.00  0.00    -0.020 A 
ATOM     30  C   UNL     1       5.895  -0.366  -1.413  0.00  0.00    +0.130 A 
ATOM     31  C   UNL     1       4.580   0.047  -1.438  0.00  0.00    +0.044 A 
ATOM     32  C   UNL     1       7.956  -1.080  -0.187  0.00  0.00    +0.046 C 
BRANCH  30  33
ATOM     33  N   UNL     1       6.639  -0.538  -2.681  0.00  0.00    +0.057 N 
ATOM     34  O   UNL     1       6.129  -0.208  -3.736  0.00  0.00    -0.126 OA
ATOM     35  O   UNL     1       7.762  -1.010  -2.669  0.00  0.00    -0.126 OA
ENDBRANCH  30  33
ENDBRANCH  24  26
ENDBRANCH  23  24
ENDBRANCH   4  23
TORSDOF 6
