REMARK  Name = ZINC28351864
REMARK  12 active torsions:
REMARK  status: ('A' for Active; 'I' for Inactive)
REMARK    1  A    between atoms: C_1  and  C_2
REMARK    2  A    between atoms: C_2  and  C_3
REMARK    3  A    between atoms: C_2  and  C_4
REMARK    4  A    between atoms: C_2  and  C_5
REMARK    5  A    between atoms: C_7  and  C_16
REMARK    6  A    between atoms: C_9  and  C_12
REMARK    7  A    between atoms: C_10  and  O_11
REMARK    8  A    between atoms: C_12  and  C_13
REMARK    9  A    between atoms: C_12  and  C_14
REMARK   10  A    between atoms: C_12  and  C_15
REMARK   11  A    between atoms: N_17  and  N_18
REMARK   12  A    between atoms: C_19  and  C_21
REMARK                            x       y       z     vdW  Elec       q    Type
REMARK                         _______ _______ _______ _____ _____    ______ ____
ROOT
ATOM      1  C   UNL     1       0.707  -0.490  -1.238  0.00  0.00    +0.000 A 
ATOM      2  C   UNL     1       1.215   0.418  -2.141  0.00  0.00    +0.017 A 
ATOM      3  C   UNL     1       1.869  -0.034  -3.291  0.00  0.00    -0.005 A 
ATOM      4  C   UNL     1       2.005  -1.406  -3.518  0.00  0.00    +0.017 A 
ATOM      5  C   UNL     1       1.494  -2.307  -2.609  0.00  0.00    +0.000 A 
ATOM      6  C   UNL     1       0.850  -1.853  -1.465  0.00  0.00    +0.124 A 
ENDROOT
BRANCH   1   8
ATOM      7  C   UNL     1      -0.019   1.526   0.010  0.00  0.00    +0.015 C 
ATOM      8  C   UNL     1       0.002  -0.004   0.002  0.00  0.00    -0.009 C 
ATOM      9  C   UNL     1       0.742  -0.511   1.242  0.00  0.00    +0.015 C 
ATOM     10  C   UNL     1      -1.433  -0.534   0.013  0.00  0.00    +0.015 C 
ENDBRANCH   1   8
BRANCH   5  11
ATOM     11  C   UNL     1       1.641  -3.787  -2.853  0.00  0.00    -0.009 C 
ATOM     12  C   UNL     1       2.388  -4.015  -4.169  0.00  0.00    +0.015 C 
ATOM     13  C   UNL     1       2.428  -4.418  -1.703  0.00  0.00    +0.015 C 
ATOM     14  C   UNL     1       0.255  -4.429  -2.936  0.00  0.00    +0.015 C 
ENDBRANCH   5  11
BRANCH   6  15
ATOM     15  O   UNL     1       0.353  -2.745  -0.569  0.00  0.00    -0.506 OA
ATOM     16  H   UNL     1      -0.560  -3.011  -0.744  0.00  0.00    +0.292 HD
ENDBRANCH   6  15
BRANCH   3  17
ATOM     17  C   UNL     1       2.413   0.934  -4.261  0.00  0.00    +0.138 C 
ATOM     18  N   UNL     1       3.020   0.512  -5.328  0.00  0.00    -0.187 NA
BRANCH  18  19
ATOM     19  N   UNL     1       3.537   1.432  -6.249  0.00  0.00    -0.203 N 
ATOM     20  C   UNL     1       4.167   0.994  -7.357  0.00  0.00    +0.263 C 
ATOM     21  O   UNL     1       4.287  -0.200  -7.557  0.00  0.00    -0.268 OA
ATOM     22  H   UNL     1       3.441   2.384  -6.090  0.00  0.00    +0.178 HD
BRANCH  20  23
ATOM     23  C   UNL     1       4.712   1.963  -8.328  0.00  0.00    +0.040 A 
ATOM     24  C   UNL     1       4.578   3.338  -8.094  0.00  0.00    +0.015 A 
ATOM     25  C   UNL     1       5.077   4.244  -8.983  0.00  0.00    +0.028 A 
ATOM     26  C   UNL     1       5.725   3.808 -10.134  0.00  0.00    +0.066 A 
ATOM     27  C   UNL     1       5.870   2.431 -10.386  0.00  0.00    +0.089 A 
ATOM     28  C   UNL     1       5.362   1.509  -9.472  0.00  0.00    +0.043 A 
ATOM     29  N   UNL     1       6.533   2.312 -11.565  0.00  0.00    -0.236 NA
ATOM     30  C   UNL     1       6.796   3.494 -12.038  0.00  0.00    +0.197 A 
ATOM     31  N   UNL     1       6.321   4.452 -11.197  0.00  0.00    -0.344 N 
ATOM     32  H   UNL     1       6.389   5.412 -11.322  0.00  0.00    +0.167 HD
ENDBRANCH  20  23
ENDBRANCH  18  19
ENDBRANCH   3  17
TORSDOF 6
