REMARK  Name = ZINC25252110
REMARK  6 active torsions:
REMARK  status: ('A' for Active; 'I' for Inactive)
REMARK    1  A    between atoms: C_5  and  C_7
REMARK    2  A    between atoms: C_7  and  N_8
REMARK    3  A    between atoms: N_13  and  C_14
REMARK    4  A    between atoms: C_14  and  C_16
REMARK    5  A    between atoms: C_20  and  N_22
REMARK    6  A    between atoms: C_23  and  C_25
REMARK                            x       y       z     vdW  Elec       q    Type
REMARK                         _______ _______ _______ _____ _____    ______ ____
ROOT
ATOM      1  C   UNL     1       0.003   0.017  -0.373  0.00  0.00    +0.269 C 
ATOM      2  O   UNL     1      -1.042  -0.594  -0.518  0.00  0.00    -0.268 OA
ENDROOT
BRANCH   1   8
ATOM      3  N   UNL     1       2.258  -2.798  -0.618  0.00  0.00    -0.324 N 
ATOM      4  C   UNL     1       2.043  -4.126  -0.809  0.00  0.00    +0.095 A 
ATOM      5  C   UNL     1       0.785  -4.560  -0.942  0.00  0.00    +0.066 A 
ATOM      6  S   UNL     1      -0.147  -3.046  -0.788  0.00  0.00    -0.061 S 
ATOM      7  C   UNL     1       1.186  -1.957  -0.569  0.00  0.00    +0.166 A 
ATOM      8  N   UNL     1       1.166  -0.636  -0.392  0.00  0.00    -0.152 NA
BRANCH   3   9
ATOM      9  C   UNL     1       3.620  -2.279  -0.468  0.00  0.00    +0.161 C 
BRANCH   9  14
ATOM     10  C   UNL     1       5.499  -4.306   2.104  0.00  0.00    +0.000 A 
ATOM     11  C   UNL     1       6.097  -5.271   1.314  0.00  0.00    +0.003 A 
ATOM     12  C   UNL     1       5.894  -5.269  -0.053  0.00  0.00    +0.039 A 
ATOM     13  C   UNL     1       5.091  -4.300  -0.631  0.00  0.00    +0.128 A 
ATOM     14  C   UNL     1       4.493  -3.334   0.160  0.00  0.00    +0.007 A 
ATOM     15  C   UNL     1       4.702  -3.335   1.527  0.00  0.00    +0.008 A 
ATOM     16  F   UNL     1       4.892  -4.296  -1.968  0.00  0.00    -0.205 F 
ENDBRANCH   9  14
ENDBRANCH   3   9
ENDBRANCH   1   8
BRANCH   1  17
ATOM     17  C   UNL     1      -0.019   1.485  -0.177  0.00  0.00    +0.041 A 
ATOM     18  C   UNL     1       1.175   2.187  -0.011  0.00  0.00    +0.013 A 
ATOM     19  C   UNL     1       1.153   3.554   0.173  0.00  0.00    +0.003 A 
ATOM     20  C   UNL     1      -0.051   4.234   0.192  0.00  0.00    +0.023 A 
ATOM     21  C   UNL     1      -1.246   3.544   0.028  0.00  0.00    +0.034 A 
ATOM     22  C   UNL     1      -1.232   2.171  -0.163  0.00  0.00    +0.036 A 
BRANCH  21  23
ATOM     23  N   UNL     1      -2.462   4.236   0.049  0.00  0.00    -0.283 N 
ATOM     24  C   UNL     1      -3.565   3.645   0.550  0.00  0.00    +0.246 C 
ATOM     25  O   UNL     1      -3.484   2.552   1.070  0.00  0.00    -0.273 OA
ATOM     26  H   UNL     1      -2.518   5.262  -0.343  0.00  0.00    +0.155 HD
BRANCH  24  27
ATOM     27  C   UNL     1      -4.898   4.343   0.466  0.00  0.00    +0.204 C 
ATOM     28  C   UNL     1      -5.364   4.433  -1.009  0.00  0.00    +0.043 C 
ATOM     29  C   UNL     1      -6.903   4.545  -0.825  0.00  0.00    +0.031 C 
ATOM     30  C   UNL     1      -7.148   3.668   0.422  0.00  0.00    +0.161 C 
ATOM     31  O   UNL     1      -5.908   3.570   1.132  0.00  0.00    -0.367 OA
ENDBRANCH  24  27
ENDBRANCH  21  23
ENDBRANCH   1  17
TORSDOF 6
