REMARK  Name = ZINC20598472
REMARK  7 active torsions:
REMARK  status: ('A' for Active; 'I' for Inactive)
REMARK    1  A    between atoms: C_1  and  C_2
REMARK    2  A    between atoms: C_4  and  C_7
REMARK    3  A    between atoms: C_7  and  N_8
REMARK    4  A    between atoms: N_8  and  C_9
REMARK    5  A    between atoms: N_8  and  C_10
REMARK    6  A    between atoms: C_10  and  C_11
REMARK    7  A    between atoms: C_12  and  C_19
REMARK                            x       y       z     vdW  Elec       q    Type
REMARK                         _______ _______ _______ _____ _____    ______ ____
ROOT
ATOM      1  C   UNL     1      -4.931   1.270   2.886  0.00  0.00    +0.070 A 
ATOM      2  C   UNL     1      -5.055   0.241   3.767  0.00  0.00    +0.149 A 
ATOM      3  N   UNL     1      -5.501   0.751   4.944  0.00  0.00    -0.216 NA
ATOM      4  C   UNL     1      -5.658   2.034   4.806  0.00  0.00    +0.178 A 
ATOM      5  N   UNL     1      -5.318   2.428   3.536  0.00  0.00    -0.295 N 
ATOM      6  C   UNL     1      -5.436   3.771   3.249  0.00  0.00    +0.100 A 
ATOM      7  C   UNL     1      -5.862   4.632   4.172  0.00  0.00    +0.067 A 
ATOM      8  S   UNL     1      -6.139   3.563   5.575  0.00  0.00    -0.058 S 
ENDROOT
BRANCH   2   9
ATOM      9  C   UNL     1      -4.755  -1.175   3.493  0.00  0.00    +0.267 C 
ATOM     10  O   UNL     1      -4.357  -1.512   2.394  0.00  0.00    -0.268 OA
ATOM     11  N   UNL     1      -4.923  -2.099   4.461  0.00  0.00    -0.296 N 
ATOM     12  C   UNL     1      -5.398  -1.701   5.793  0.00  0.00    +0.108 C 
ATOM     13  C   UNL     1      -6.855  -1.251   5.683  0.00  0.00    +0.019 C 
ATOM     14  C   UNL     1      -7.750  -2.482   5.459  0.00  0.00    +0.002 C 
ATOM     15  C   UNL     1      -7.651  -2.921   4.003  0.00  0.00    +0.000 C 
ATOM     16  C   UNL     1      -6.977  -4.301   3.893  0.00  0.00    +0.002 C 
ATOM     17  C   UNL     1      -5.752  -4.350   4.807  0.00  0.00    +0.019 C 
ATOM     18  C   UNL     1      -4.629  -3.498   4.200  0.00  0.00    +0.108 C 
ENDBRANCH   2   9
BRANCH   1  19
ATOM     19  C   UNL     1      -4.463   1.167   1.457  0.00  0.00    +0.140 C 
BRANCH  19  20
ATOM     20  N   UNL     1      -3.005   1.338   1.406  0.00  0.00    -0.292 NA
ATOM     21  C   UNL     1      -2.321   0.226   2.080  0.00  0.00    +0.105 C 
BRANCH  20  22
ATOM     22  C   UNL     1      -2.540   1.480   0.020  0.00  0.00    +0.161 C 
BRANCH  22  26
ATOM     23  C   UNL     1       2.549   1.586  -0.013  0.00  0.00    +0.069 C 
ATOM     24  C   UNL     1       1.089   1.961   0.002  0.00  0.00    +0.081 A 
ATOM     25  C   UNL     1      -0.013   1.076   0.008  0.00  0.00    +0.072 A 
ATOM     26  C   UNL     1      -1.091   1.895   0.017  0.00  0.00    +0.151 A 
ATOM     27  O   UNL     1      -0.615   3.148   0.024  0.00  0.00    -0.358 OA
ATOM     28  N   UNL     1       0.594   3.165   0.013  0.00  0.00    -0.083 NA
ENDBRANCH  22  26
ENDBRANCH  20  22
ENDBRANCH  19  20
ENDBRANCH   1  19
TORSDOF 5
