REMARK  Name = ZINC01890260
REMARK  10 active torsions:
REMARK  status: ('A' for Active; 'I' for Inactive)
REMARK    1  A    between atoms: C_1  and  C_2
REMARK    2  A    between atoms: C_2  and  O_3
REMARK    3  A    between atoms: O_3  and  C_4
REMARK    4  A    between atoms: C_4  and  C_6
REMARK    5  A    between atoms: C_11  and  O_19
REMARK    6  A    between atoms: C_14  and  N_15
REMARK    7  A    between atoms: C_16  and  C_18
REMARK    8  A    between atoms: O_19  and  C_20
REMARK    9  A    between atoms: C_20  and  C_21
REMARK   10  A    between atoms: C_21  and  C_23
REMARK                            x       y       z     vdW  Elec       q    Type
REMARK                         _______ _______ _______ _____ _____    ______ ____
ROOT
ATOM      1  C   UNL     1      -1.251   1.905   0.018  0.00  0.00    +0.095 A 
ATOM      2  C   UNL     1      -1.914   2.285  -1.233  0.00  0.00    +0.009 A 
ATOM      3  C   UNL     1      -1.486   2.041  -2.558  0.00  0.00    +0.011 A 
ATOM      4  C   UNL     1      -2.234   2.463  -3.627  0.00  0.00    +0.019 A 
ATOM      5  C   UNL     1      -3.435   3.134  -3.446  0.00  0.00    +0.061 A 
ATOM      6  C   UNL     1      -3.886   3.383  -2.159  0.00  0.00    +0.149 A 
ATOM      7  C   UNL     1      -3.136   2.961  -1.077  0.00  0.00    +0.065 A 
ATOM      8  S   UNL     1      -3.352   3.078   0.680  0.00  0.00    -0.069 S 
ATOM      9  C   UNL     1      -1.868   2.247   1.210  0.00  0.00    +0.087 A 
ATOM     10 BR   UNL     1      -4.446   3.702  -4.939  0.00  0.00    -0.046 Br
ENDROOT
BRANCH   9  11
ATOM     11  N   UNL     1      -1.437   2.003   2.500  0.00  0.00    -0.280 N 
ATOM     12  C   UNL     1      -2.177   2.414   3.548  0.00  0.00    +0.214 C 
ATOM     13  O   UNL     1      -3.222   3.000   3.359  0.00  0.00    -0.276 OA
ATOM     14  C   UNL     1      -1.706   2.148   4.955  0.00  0.00    +0.109 C 
ATOM     15  H   UNL     1      -0.600   1.535   2.651  0.00  0.00    +0.155 HD
ENDBRANCH   9  11
BRANCH   1  16
ATOM     16  C   UNL     1      -0.014   1.213   0.009  0.00  0.00    +0.342 C 
ATOM     17  O   UNL     1       0.002  -0.004   0.002  0.00  0.00    -0.245 OA
BRANCH  16  18
ATOM     18  O   UNL     1       1.145   1.903   0.001  0.00  0.00    -0.461 OA
BRANCH  18  20
ATOM     19  C   UNL     1       3.554   2.090  -0.021  0.00  0.00    +0.048 C 
ATOM     20  C   UNL     1       2.354   1.141  -0.014  0.00  0.00    +0.229 C 
ENDBRANCH  18  20
ENDBRANCH  16  18
ENDBRANCH   1  16
BRANCH   6  21
ATOM     21  O   UNL     1      -5.061   4.039  -1.962  0.00  0.00    -0.482 OA
BRANCH  21  22
ATOM     22  C   UNL     1      -5.000   5.464  -1.865  0.00  0.00    +0.308 C 
BRANCH  22  23
ATOM     23  C   UNL     1      -6.387   6.012  -1.649  0.00  0.00    +0.200 C 
ATOM     24  O   UNL     1      -7.334   5.258  -1.584  0.00  0.00    -0.288 OA
BRANCH  23  25
ATOM     25  C   UNL     1      -6.592   7.463  -1.516  0.00  0.00    +0.021 A 
ATOM     26  C   UNL     1      -5.501   8.336  -1.584  0.00  0.00    +0.012 A 
ATOM     27  C   UNL     1      -5.701   9.694  -1.466  0.00  0.00    +0.016 A 
ATOM     28  C   UNL     1      -6.978  10.195  -1.267  0.00  0.00    +0.018 A 
ATOM     29  C   UNL     1      -8.062   9.336  -1.192  0.00  0.00    +0.016 A 
ATOM     30  C   UNL     1      -7.878   7.976  -1.315  0.00  0.00    +0.012 A 
ATOM     31 BR   UNL     1      -7.241  12.060  -1.097  0.00  0.00    -0.050 Br
ENDBRANCH  23  25
ENDBRANCH  22  23
ENDBRANCH  21  22
ENDBRANCH   6  21
TORSDOF 8
