REMARK  Name = ZINC64220478
REMARK  10 active torsions:
REMARK  status: ('A' for Active; 'I' for Inactive)
REMARK    1  A    between atoms: C_1  and  C_2
REMARK    2  A    between atoms: C_5  and  C_8
REMARK    3  A    between atoms: C_8  and  N_9
REMARK    4  A    between atoms: C_10  and  C_12
REMARK    5  A    between atoms: C_12  and  C_14
REMARK    6  A    between atoms: C_12  and  N_24
REMARK    7  A    between atoms: C_14  and  C_15
REMARK    8  A    between atoms: C_25  and  O_27
REMARK    9  A    between atoms: O_27  and  C_28
REMARK   10  A    between atoms: C_28  and  C_29
REMARK                            x       y       z     vdW  Elec       q    Type
REMARK                         _______ _______ _______ _____ _____    ______ ____
ROOT
ATOM      1  C   UNL     1       3.137  -6.551  -0.051  0.00  0.00    +0.166 C 
ENDROOT
BRANCH   1   3
ATOM      2  N   UNL     1       1.447  -4.746  -0.032  0.00  0.00    -0.310 N 
ATOM      3  C   UNL     1       1.710  -6.067  -0.040  0.00  0.00    +0.234 C 
ATOM      4  O   UNL     1       0.799  -6.867  -0.040  0.00  0.00    -0.274 OA
ATOM      5  H   UNL     1       2.176  -4.106  -0.032  0.00  0.00    +0.149 HD
BRANCH   2   6
ATOM      6  C   UNL     1       0.059  -4.275  -0.021  0.00  0.00    +0.139 C 
BRANCH   6  11
ATOM      7  C   UNL     1      -0.018   1.503   0.010  0.00  0.00    +0.044 C 
ATOM      8  C   UNL     1       0.002  -0.004   0.002  0.00  0.00    -0.050 A 
ATOM      9  C   UNL     1       0.006  -0.689  -1.199  0.00  0.00    +0.003 A 
ATOM     10  C   UNL     1       0.025  -2.071  -1.206  0.00  0.00    +0.005 A 
ATOM     11  C   UNL     1       0.040  -2.768  -0.013  0.00  0.00    -0.030 A 
ATOM     12  C   UNL     1       0.037  -2.084   1.188  0.00  0.00    +0.005 A 
ATOM     13  C   UNL     1       0.023  -0.702   1.195  0.00  0.00    +0.003 A 
ENDBRANCH   6  11
ENDBRANCH   2   6
ENDBRANCH   1   3
BRANCH   1  14
ATOM     14  N   UNL     1       3.156  -8.016  -0.059  0.00  0.00    -0.270 N 
ATOM     15  C   UNL     1       4.225  -8.679   0.425  0.00  0.00    +0.401 C 
ATOM     16  O   UNL     1       5.174  -8.062   0.868  0.00  0.00    -0.226 OA
ATOM     17  H   UNL     1       2.399  -8.509  -0.412  0.00  0.00    +0.153 HD
BRANCH  15  18
ATOM     18  O   UNL     1       4.243 -10.025   0.417  0.00  0.00    -0.446 OA
BRANCH  18  19
ATOM     19  C   UNL     1       5.408 -10.662   0.946  0.00  0.00    +0.269 C 
BRANCH  19  20
ATOM     20  C   UNL     1       5.248 -12.158   0.855  0.00  0.00    -0.010 A 
ATOM     21  C   UNL     1       4.669 -12.855   1.899  0.00  0.00    +0.007 A 
ATOM     22  C   UNL     1       4.522 -14.227   1.815  0.00  0.00    +0.000 A 
ATOM     23  C   UNL     1       4.954 -14.902   0.688  0.00  0.00    +0.000 A 
ATOM     24  C   UNL     1       5.531 -14.204  -0.356  0.00  0.00    +0.000 A 
ATOM     25  C   UNL     1       5.674 -12.831  -0.274  0.00  0.00    +0.007 A 
ENDBRANCH  19  20
ENDBRANCH  18  19
ENDBRANCH  15  18
ENDBRANCH   1  14
BRANCH   1  26
ATOM     26  C   UNL     1       3.845  -6.025  -1.301  0.00  0.00    +0.065 C 
BRANCH  26  27
ATOM     27  C   UNL     1       5.302  -6.406  -1.251  0.00  0.00    -0.039 C 
ATOM     28  C   UNL     1       5.881  -7.485  -1.824  0.00  0.00    -0.001 A 
ATOM     29  C   UNL     1       5.348  -8.587  -2.634  0.00  0.00    +0.010 A 
ATOM     30  C   UNL     1       6.193  -9.546  -3.076  0.00  0.00    +0.001 A 
ATOM     31  C   UNL     1       7.563  -9.514  -2.780  0.00  0.00    +0.002 A 
ATOM     32  C   UNL     1       8.127  -8.534  -2.042  0.00  0.00    +0.026 A 
ATOM     33  C   UNL     1       7.331  -7.474  -1.526  0.00  0.00    +0.043 A 
ATOM     34  N   UNL     1       7.637  -6.428  -0.797  0.00  0.00    -0.380 N 
ATOM     35  C   UNL     1       6.415  -5.654  -0.555  0.00  0.00    +0.144 C 
ATOM     36  H   UNL     1       8.524  -6.202  -0.475  0.00  0.00    +0.160 HD
ENDBRANCH  26  27
ENDBRANCH   1  26
TORSDOF 9
