REMARK  Name = ZINC06586565
REMARK  7 active torsions:
REMARK  status: ('A' for Active; 'I' for Inactive)
REMARK    1  A    between atoms: C_1  and  C_2
REMARK    2  A    between atoms: C_2  and  C_4
REMARK    3  A    between atoms: C_2  and  S_17
REMARK    4  A    between atoms: N_6  and  C_7
REMARK    5  A    between atoms: C_10  and  S_13
REMARK    6  A    between atoms: S_13  and  N_16
REMARK    7  A    between atoms: S_17  and  C_18
REMARK                            x       y       z     vdW  Elec       q    Type
REMARK                         _______ _______ _______ _____ _____    ______ ____
ROOT
ATOM      1  C   UNL     1       0.708  -0.488  -1.238  0.00  0.00    +0.230 C 
ATOM      2  O   UNL     1       1.867  -0.839  -1.178  0.00  0.00    -0.274 OA
ATOM      3  N   UNL     1       0.053  -0.526  -2.415  0.00  0.00    -0.285 N 
ATOM      4  H   UNL     1      -0.892  -0.310  -2.452  0.00  0.00    +0.155 HD
ENDROOT
BRANCH   3   5
ATOM      5  C   UNL     1       0.736  -0.877  -3.585  0.00  0.00    +0.034 A 
ATOM      6  C   UNL     1       0.406  -0.273  -4.791  0.00  0.00    +0.025 A 
ATOM      7  C   UNL     1       1.082  -0.621  -5.944  0.00  0.00    +0.030 A 
ATOM      8  C   UNL     1       2.086  -1.571  -5.898  0.00  0.00    +0.105 A 
ATOM      9  C   UNL     1       2.416  -2.175  -4.699  0.00  0.00    +0.030 A 
ATOM     10  C   UNL     1       1.748  -1.827  -3.542  0.00  0.00    +0.025 A 
BRANCH   8  11
ATOM     11  S   UNL     1       2.946  -2.013  -7.371  0.00  0.00    +0.056 S 
ATOM     12  O   UNL     1       3.467  -3.318  -7.161  0.00  0.00    -0.153 OA
ATOM     13  O   UNL     1       2.080  -1.704  -8.455  0.00  0.00    -0.153 OA
BRANCH  11  14
ATOM     14  N   UNL     1       4.248  -0.999  -7.501  0.00  0.00    -0.204 NA
ATOM     15  H   UNL     1       5.058  -1.303  -7.940  0.00  0.00    +0.144 HD
ATOM     16  H   UNL     1       4.201  -0.100  -7.138  0.00  0.00    +0.144 HD
ENDBRANCH  11  14
ENDBRANCH   8  11
ENDBRANCH   3   5
BRANCH   1  18
ATOM     17  C   UNL     1      -0.032   1.519   0.015  0.00  0.00    +0.029 C 
ATOM     18  C   UNL     1      -0.000  -0.010   0.003  0.00  0.00    +0.137 C 
BRANCH  18  19
ATOM     19  S   UNL     1       0.882  -0.609   1.471  0.00  0.00    -0.075 S 
BRANCH  19  20
ATOM     20  C   UNL     1      -0.136  -0.101   2.817  0.00  0.00    +0.168 A 
ATOM     21  N   UNL     1       0.135  -0.331   4.136  0.00  0.00    -0.333 N 
ATOM     22  H   UNL     1       0.909  -0.794   4.492  0.00  0.00    +0.168 HD
ATOM     23  C   UNL     1      -0.902   0.223   4.870  0.00  0.00    +0.067 A 
ATOM     24  C   UNL     1      -1.182   0.307   6.226  0.00  0.00    +0.029 A 
ATOM     25  C   UNL     1      -2.330   0.941   6.652  0.00  0.00    +0.022 A 
ATOM     26  C   UNL     1      -3.209   1.496   5.733  0.00  0.00    +0.043 A 
ATOM     27  C   UNL     1      -2.947   1.422   4.382  0.00  0.00    +0.050 A 
ATOM     28  C   UNL     1      -1.788   0.783   3.935  0.00  0.00    +0.091 A 
ATOM     29  N   UNL     1      -1.263   0.558   2.702  0.00  0.00    -0.222 NA
ATOM     30 CL   UNL     1      -4.650   2.290   6.288  0.00  0.00    -0.083 Cl
ENDBRANCH  19  20
ENDBRANCH  18  19
ENDBRANCH   1  18
TORSDOF 6
