REMARK  Name = ZINC12502476
REMARK  7 active torsions:
REMARK  status: ('A' for Active; 'I' for Inactive)
REMARK    1  A    between atoms: C_4  and  O_7
REMARK    2  A    between atoms: O_7  and  C_8
REMARK    3  A    between atoms: C_8  and  C_9
REMARK    4  A    between atoms: N_11  and  N_12
REMARK    5  A    between atoms: N_12  and  C_13
REMARK    6  A    between atoms: C_13  and  N_15
REMARK    7  A    between atoms: C_16  and  C_18
REMARK                            x       y       z     vdW  Elec       q    Type
REMARK                         _______ _______ _______ _____ _____    ______ ____
ROOT
ATOM      1  C   UNL     1       3.699   8.701   0.012  0.00  0.00    +0.153 C 
ATOM      2  S   UNL     1       5.361   8.290  -0.007  0.00  0.00    -0.017 S 
ENDROOT
BRANCH   1   3
ATOM      3  N   UNL     1       2.765   7.730   0.016  0.00  0.00    -0.262 N 
ATOM      4  C   UNL     1       3.139   6.435   0.006  0.00  0.00    +0.258 C 
ATOM      5  O   UNL     1       4.320   6.143  -0.008  0.00  0.00    -0.269 OA
ATOM      6  H   UNL     1       1.823   7.963   0.027  0.00  0.00    +0.157 HD
BRANCH   4   7
ATOM      7  C   UNL     1       2.122   5.378   0.010  0.00  0.00    +0.094 A 
ATOM      8  C   UNL     1       2.301   4.028   0.001  0.00  0.00    +0.068 A 
ATOM      9  C   UNL     1       1.183   3.173   0.007  0.00  0.00    +0.008 A 
ATOM     10  C   UNL     1       1.164   1.754   0.000  0.00  0.00    +0.010 A 
ATOM     11  C   UNL     1      -0.013   1.076   0.008  0.00  0.00    +0.001 A 
ATOM     12  C   UNL     1      -1.235   1.737   0.017  0.00  0.00    +0.001 A 
ATOM     13  C   UNL     1      -1.261   3.117   0.030  0.00  0.00    +0.016 A 
ATOM     14  C   UNL     1      -0.075   3.819   0.023  0.00  0.00    +0.021 A 
ATOM     15  S   UNL     1       0.345   5.544   0.028  0.00  0.00    -0.082 S 
ATOM     16 CL   UNL     1       3.905   3.364  -0.018  0.00  0.00    -0.082 Cl
ENDBRANCH   4   7
ENDBRANCH   1   3
BRANCH   1  17
ATOM     17  N   UNL     1       3.325   9.996   0.023  0.00  0.00    -0.245 N 
ATOM     18  H   UNL     1       3.998  10.695   0.020  0.00  0.00    +0.172 HD
BRANCH  17  21
ATOM     19  C   UNL     1       1.591  11.627   0.049  0.00  0.00    +0.267 C 
ATOM     20  O   UNL     1       2.432  12.501   0.045  0.00  0.00    -0.271 OA
ATOM     21  N   UNL     1       1.965  10.332   0.038  0.00  0.00    -0.232 N 
ATOM     22  H   UNL     1       1.293   9.633   0.041  0.00  0.00    +0.173 HD
BRANCH  19  23
ATOM     23  C   UNL     1       0.129  11.989   0.065  0.00  0.00    +0.326 C 
BRANCH  23  24
ATOM     24  O   UNL     1      -0.011  13.411   0.074  0.00  0.00    -0.483 OA
BRANCH  24  28
ATOM     25  C   UNL     1      -3.851  14.917   0.121  0.00  0.00    +0.000 A 
ATOM     26  C   UNL     1      -2.771  15.781   0.114  0.00  0.00    +0.004 A 
ATOM     27  C   UNL     1      -1.484  15.279   0.099  0.00  0.00    +0.045 A 
ATOM     28  C   UNL     1      -1.276  13.907   0.089  0.00  0.00    +0.121 A 
ATOM     29  C   UNL     1      -2.361  13.043   0.090  0.00  0.00    +0.045 A 
ATOM     30  C   UNL     1      -3.646  13.550   0.111  0.00  0.00    +0.004 A 
ENDBRANCH  24  28
ENDBRANCH  23  24
ENDBRANCH  19  23
ENDBRANCH  17  21
ENDBRANCH   1  17
TORSDOF 7
