REMARK  Name = ZINC21253991
REMARK  10 active torsions:
REMARK  status: ('A' for Active; 'I' for Inactive)
REMARK    1  A    between atoms: C_1  and  C_2
REMARK    2  A    between atoms: C_2  and  C_3
REMARK    3  A    between atoms: C_2  and  O_4
REMARK    4  A    between atoms: O_4  and  C_5
REMARK    5  A    between atoms: C_8  and  C_13
REMARK    6  A    between atoms: C_10  and  O_11
REMARK    7  A    between atoms: O_11  and  C_12
REMARK    8  A    between atoms: C_18  and  C_28
REMARK    9  A    between atoms: C_31  and  S_34
REMARK   10  A    between atoms: S_34  and  C_35
REMARK                            x       y       z     vdW  Elec       q    Type
REMARK                         _______ _______ _______ _____ _____    ______ ____
ROOT
ATOM      1  C   UNL     1      -2.689   0.121  -0.323  0.00  0.00    +0.032 C 
ATOM      2  C   UNL     1      -2.844  -0.949  -1.403  0.00  0.00    +0.059 C 
ATOM      3  C   UNL     1      -4.199  -1.624  -1.273  0.00  0.00    +0.017 C 
ATOM      4  C   UNL     1      -4.773  -1.772  -0.068  0.00  0.00    +0.036 C 
ATOM      5  C   UNL     1      -6.111  -2.418   0.204  0.00  0.00    +0.136 C 
ATOM      6  N   UNL     1      -6.669  -3.134  -0.924  0.00  0.00    -0.331 N 
ATOM      7  C   UNL     1      -7.035  -2.462  -2.087  0.00  0.00    +0.049 A 
ATOM      8  C   UNL     1      -8.361  -2.384  -2.488  0.00  0.00    +0.025 A 
ATOM      9  C   UNL     1      -8.688  -1.665  -3.624  0.00  0.00    +0.002 A 
ATOM     10  C   UNL     1      -7.704  -1.025  -4.356  0.00  0.00    +0.002 A 
ATOM     11  C   UNL     1      -6.377  -1.116  -3.970  0.00  0.00    +0.025 A 
ATOM     12  C   UNL     1      -6.048  -1.854  -2.847  0.00  0.00    +0.052 A 
ATOM     13  N   UNL     1      -4.729  -2.055  -2.447  0.00  0.00    -0.316 N 
ATOM     14  C   UNL     1      -4.127  -1.288   1.094  0.00  0.00    +0.163 C 
ATOM     15  O   UNL     1      -4.657  -1.459   2.174  0.00  0.00    -0.292 OA
ATOM     16  C   UNL     1      -2.811  -0.571   1.040  0.00  0.00    +0.088 C 
ATOM     17  H   UNL     1      -6.808  -4.223  -0.870  0.00  0.00    +0.147 HD
ATOM     18  H   UNL     1      -4.104  -2.609  -3.163  0.00  0.00    +0.152 HD
ENDROOT
BRANCH   1  22
ATOM     19  C   UNL     1       1.149   1.975  -0.670  0.00  0.00    +0.162 A 
ATOM     20  C   UNL     1       1.053   0.613  -0.438  0.00  0.00    +0.050 A 
ATOM     21  C   UNL     1      -0.189   0.017  -0.322  0.00  0.00    +0.008 A 
ATOM     22  C   UNL     1      -1.338   0.777  -0.444  0.00  0.00    -0.040 A 
ATOM     23  C   UNL     1      -1.249   2.138  -0.670  0.00  0.00    +0.053 A 
ATOM     24  C   UNL     1      -0.007   2.741  -0.786  0.00  0.00    +0.162 A 
BRANCH  24  25
ATOM     25  O   UNL     1       0.081   4.079  -1.014  0.00  0.00    -0.491 OA
ATOM     26  C   UNL     1      -1.147   4.801  -1.122  0.00  0.00    +0.277 C 
ENDBRANCH  24  25
BRANCH  19  27
ATOM     27  O   UNL     1       2.370   2.563  -0.784  0.00  0.00    -0.486 OA
BRANCH  27  29
ATOM     28  C   UNL     1       4.671   2.379  -1.500  0.00  0.00    +0.051 C 
ATOM     29  C   UNL     1       3.509   1.700  -0.771  0.00  0.00    +0.167 C 
ATOM     30  C   UNL     1       3.913   1.411   0.675  0.00  0.00    +0.051 C 
ENDBRANCH  27  29
ENDBRANCH  19  27
ENDBRANCH   1  22
BRANCH   5  31
ATOM     31  C   UNL     1      -7.086  -1.346   0.615  0.00  0.00    -0.023 A 
ATOM     32  C   UNL     1      -7.421  -0.340  -0.273  0.00  0.00    +0.007 A 
ATOM     33  C   UNL     1      -8.318   0.642   0.099  0.00  0.00    +0.015 A 
ATOM     34  C   UNL     1      -8.877   0.624   1.371  0.00  0.00    +0.008 A 
ATOM     35  C   UNL     1      -8.534  -0.385   2.263  0.00  0.00    +0.015 A 
ATOM     36  C   UNL     1      -7.640  -1.366   1.882  0.00  0.00    +0.007 A 
BRANCH  34  37
ATOM     37  S   UNL     1     -10.017   1.878   1.852  0.00  0.00    -0.129 S 
ATOM     38  C   UNL     1     -10.143   2.942   0.388  0.00  0.00    +0.090 C 
ENDBRANCH  34  37
ENDBRANCH   5  31
TORSDOF 6
