REMARK  Name = ZINC41139677
REMARK  10 active torsions:
REMARK  status: ('A' for Active; 'I' for Inactive)
REMARK    1  A    between atoms: C_1  and  C_2
REMARK    2  A    between atoms: C_2  and  C_3
REMARK    3  A    between atoms: C_10  and  C_12
REMARK    4  A    between atoms: C_12  and  C_13
REMARK    5  A    between atoms: C_13  and  C_14
REMARK    6  A    between atoms: C_16  and  N_24
REMARK    7  A    between atoms: C_17  and  O_23
REMARK    8  A    between atoms: C_18  and  O_20
REMARK    9  A    between atoms: O_20  and  C_21
REMARK   10  A    between atoms: C_21  and  C_22
REMARK                            x       y       z     vdW  Elec       q    Type
REMARK                         _______ _______ _______ _____ _____    ______ ____
ROOT
ATOM      1  C   UNL     1       5.598   2.679  -1.107  0.00  0.00    -0.041 A 
ATOM      2  C   UNL     1       6.015   3.828  -0.462  0.00  0.00    +0.030 A 
ATOM      3  C   UNL     1       7.344   4.222  -0.533  0.00  0.00    +0.071 A 
ATOM      4  C   UNL     1       8.256   3.458  -1.254  0.00  0.00    +0.180 A 
ATOM      5  C   UNL     1       7.832   2.304  -1.901  0.00  0.00    +0.164 A 
ATOM      6  C   UNL     1       6.503   1.915  -1.820  0.00  0.00    +0.053 A 
ENDROOT
BRANCH   3   7
ATOM      7  N   UNL     1       7.766   5.386   0.120  0.00  0.00    -0.355 N 
ATOM      8  H   UNL     1       7.129   5.918   0.623  0.00  0.00    +0.142 HD
ATOM      9  H   UNL     1       8.695   5.661   0.070  0.00  0.00    +0.142 HD
ENDBRANCH   3   7
BRANCH   4  10
ATOM     10  O   UNL     1       9.560   3.841  -1.327  0.00  0.00    -0.502 OA
ATOM     11  H   UNL     1      10.116   3.479  -0.623  0.00  0.00    +0.292 HD
ENDBRANCH   4  10
BRANCH   1  12
ATOM     12  C   UNL     1       4.154   2.255  -1.028  0.00  0.00    +0.044 C 
BRANCH  12  13
ATOM     13  C   UNL     1       3.955   1.346   0.187  0.00  0.00    +0.100 C 
BRANCH  13  20
ATOM     14  C   UNL     1       0.725  -0.404   1.289  0.00  0.00    +0.076 C 
ATOM     15  C   UNL     1       0.771  -1.930   1.413  0.00  0.00    +0.022 C 
ATOM     16  C   UNL     1       1.610  -2.313   2.635  0.00  0.00    +0.003 C 
ATOM     17  C   UNL     1       3.040  -1.800   2.455  0.00  0.00    +0.019 C 
ATOM     18  C   UNL     1       3.020  -0.272   2.342  0.00  0.00    +0.108 C 
ATOM     19  N   UNL     1       2.101   0.113   1.263  0.00  0.00    -0.298 N 
ATOM     20  C   UNL     1       2.512   0.922   0.266  0.00  0.00    +0.216 C 
ATOM     21  O   UNL     1       1.720   1.308  -0.567  0.00  0.00    -0.276 OA
BRANCH  14  23
ATOM     22  C   UNL     1      -1.410  -0.592   0.005  0.00  0.00    +0.006 C 
ATOM     23  C   UNL     1       0.007  -0.016  -0.006  0.00  0.00    +0.019 C 
ENDBRANCH  14  23
ENDBRANCH  13  20
ENDBRANCH  12  13
ENDBRANCH   1  12
BRANCH   5  24
ATOM     24  O   UNL     1       8.719   1.554  -2.607  0.00  0.00    -0.489 OA
BRANCH  24  25
ATOM     25  C   UNL     1       8.213   0.381  -3.246  0.00  0.00    +0.226 C 
ATOM     26  C   UNL     1       9.349  -0.327  -3.987  0.00  0.00    +0.048 C 
ENDBRANCH  24  25
ENDBRANCH   5  24
TORSDOF 8
