REMARK  Name = ZINC09692605
REMARK  8 active torsions:
REMARK  status: ('A' for Active; 'I' for Inactive)
REMARK    1  A    between atoms: C_4  and  C_7
REMARK    2  A    between atoms: C_7  and  C_8
REMARK    3  A    between atoms: C_8  and  C_10
REMARK    4  A    between atoms: C_8  and  N_25
REMARK    5  A    between atoms: N_12  and  C_13
REMARK    6  A    between atoms: C_13  and  C_14
REMARK    7  A    between atoms: N_25  and  S_26
REMARK    8  A    between atoms: S_26  and  C_29
REMARK                            x       y       z     vdW  Elec       q    Type
REMARK                         _______ _______ _______ _____ _____    ______ ____
ROOT
ATOM      1  C   UNL     1       1.489   1.791   0.335  0.00  0.00    +0.166 C 
ENDROOT
BRANCH   1   2
ATOM      2  C   UNL     1       0.296   0.871   0.393  0.00  0.00    +0.232 C 
ATOM      3  O   UNL     1       0.459  -0.329   0.462  0.00  0.00    -0.274 OA
ATOM      4  N   UNL     1      -0.951   1.381   0.363  0.00  0.00    -0.310 N 
ATOM      5  H   UNL     1      -1.081   2.341   0.308  0.00  0.00    +0.149 HD
BRANCH   4   6
ATOM      6  C   UNL     1      -2.110   0.486   0.413  0.00  0.00    +0.152 C 
BRANCH   6   7
ATOM      7  C   UNL     1      -3.395   1.314   0.365  0.00  0.00    +0.228 C 
ATOM      8  C   UNL     1      -4.612   0.390   0.512  0.00  0.00    +0.275 C 
ATOM      9  O   UNL     1      -5.795   1.193   0.450  0.00  0.00    -0.485 OA
ATOM     10  C   UNL     1      -5.853   2.119  -0.546  0.00  0.00    +0.162 A 
ATOM     11  C   UNL     1      -7.078   2.672  -0.891  0.00  0.00    +0.049 A 
ATOM     12  C   UNL     1      -7.153   3.616  -1.897  0.00  0.00    +0.004 A 
ATOM     13  C   UNL     1      -6.008   4.013  -2.563  0.00  0.00    +0.004 A 
ATOM     14  C   UNL     1      -4.785   3.465  -2.225  0.00  0.00    +0.049 A 
ATOM     15  C   UNL     1      -4.703   2.516  -1.217  0.00  0.00    +0.163 A 
ATOM     16  O   UNL     1      -3.491   1.984  -0.897  0.00  0.00    -0.480 OA
ENDBRANCH   6   7
ENDBRANCH   4   6
ENDBRANCH   1   2
BRANCH   1  17
ATOM     17  N   UNL     1       2.720   0.998   0.376  0.00  0.00    -0.178 NA
ATOM     18  H   UNL     1       3.090   0.720   1.229  0.00  0.00    +0.149 HD
BRANCH  17  19
ATOM     19  S   UNL     1       3.479   0.575  -1.033  0.00  0.00    +0.061 S 
ATOM     20  O   UNL     1       4.618  -0.192  -0.667  0.00  0.00    -0.153 OA
ATOM     21  O   UNL     1       2.473   0.076  -1.903  0.00  0.00    -0.153 OA
BRANCH  19  22
ATOM     22  C   UNL     1       4.086   2.059  -1.764  0.00  0.00    +0.133 A 
ATOM     23  C   UNL     1       5.419   2.298  -1.806  0.00  0.00    +0.031 A 
ATOM     24  C   UNL     1       5.934   3.462  -2.376  0.00  0.00    +0.004 A 
ATOM     25  C   UNL     1       5.125   4.405  -2.914  0.00  0.00    +0.031 A 
ATOM     26  C   UNL     1       3.718   4.223  -2.906  0.00  0.00    +0.102 A 
ATOM     27  C   UNL     1       3.179   3.002  -2.313  0.00  0.00    +0.126 A 
ATOM     28  N   UNL     1       1.849   2.964  -2.369  0.00  0.00    -0.189 NA
ATOM     29  S   UNL     1       1.403   4.287  -3.081  0.00  0.00    +0.117 S 
ATOM     30  N   UNL     1       2.758   5.017  -3.375  0.00  0.00    -0.191 NA
ENDBRANCH  19  22
ENDBRANCH  17  19
ENDBRANCH   1  17
BRANCH   1  31
ATOM     31  C   UNL     1       1.456   2.744   1.532  0.00  0.00    +0.065 C 
BRANCH  31  35
ATOM     32  C   UNL     1       4.615   5.596   1.167  0.00  0.00    +0.000 A 
ATOM     33  C   UNL     1       3.350   5.903   0.702  0.00  0.00    +0.000 A 
ATOM     34  C   UNL     1       2.327   4.980   0.820  0.00  0.00    +0.004 A 
ATOM     35  C   UNL     1       2.570   3.750   1.403  0.00  0.00    -0.045 A 
ATOM     36  C   UNL     1       3.834   3.446   1.873  0.00  0.00    +0.004 A 
ATOM     37  C   UNL     1       4.857   4.367   1.751  0.00  0.00    +0.000 A 
ENDBRANCH  31  35
ENDBRANCH   1  31
TORSDOF 8
