REMARK  Name = ZINC04749645
REMARK  6 active torsions:
REMARK  status: ('A' for Active; 'I' for Inactive)
REMARK    1  A    between atoms: C_1  and  C_2
REMARK    2  A    between atoms: N_7  and  N_8
REMARK    3  A    between atoms: C_9  and  C_10
REMARK    4  A    between atoms: C_14  and  O_16
REMARK    5  A    between atoms: O_16  and  C_17
REMARK    6  A    between atoms: C_17  and  C_18
REMARK                            x       y       z     vdW  Elec       q    Type
REMARK                         _______ _______ _______ _____ _____    ______ ____
ROOT
ATOM      1  C   UNL     1      -6.217   3.644   5.219  0.00  0.00    -0.002 A 
ATOM      2  C   UNL     1      -5.327   3.822   6.282  0.00  0.00    +0.010 A 
ATOM      3  C   UNL     1      -5.792   4.263   7.503  0.00  0.00    +0.004 A 
ATOM      4  C   UNL     1      -7.137   4.532   7.680  0.00  0.00    +0.046 A 
ATOM      5  C   UNL     1      -8.029   4.359   6.630  0.00  0.00    +0.122 A 
ATOM      6  C   UNL     1      -7.574   3.921   5.399  0.00  0.00    +0.055 A 
ENDROOT
BRANCH   1   8
ATOM      7  N   UNL     1      -4.462   2.921   3.746  0.00  0.00    -0.188 NA
ATOM      8  C   UNL     1      -5.725   3.172   3.912  0.00  0.00    +0.138 C 
BRANCH   7  15
ATOM      9  C   UNL     1      -0.013   1.086   0.008  0.00  0.00    +0.066 C 
ATOM     10  C   UNL     1      -0.718   1.572   1.248  0.00  0.00    +0.047 A 
ATOM     11  C   UNL     1      -0.029   1.806   2.391  0.00  0.00    +0.071 A 
ATOM     12  S   UNL     1      -1.347   2.342   3.471  0.00  0.00    -0.059 S 
ATOM     13  C   UNL     1      -2.646   2.204   2.327  0.00  0.00    +0.178 A 
ATOM     14  N   UNL     1      -2.019   1.784   1.244  0.00  0.00    -0.229 NA
ATOM     15  N   UNL     1      -3.994   2.473   2.504  0.00  0.00    -0.215 N 
ATOM     16  H   UNL     1      -4.613   2.350   1.768  0.00  0.00    +0.176 HD
ENDBRANCH   7  15
ENDBRANCH   1   8
BRANCH   5  17
ATOM     17  O   UNL     1      -9.350   4.625   6.811  0.00  0.00    -0.487 OA
BRANCH  17  18
ATOM     18  C   UNL     1      -9.749   5.079   8.106  0.00  0.00    +0.264 C 
BRANCH  18  19
ATOM     19  C   UNL     1     -11.236   5.320   8.117  0.00  0.00    -0.010 A 
ATOM     20  C   UNL     1     -11.737   6.566   7.787  0.00  0.00    +0.008 A 
ATOM     21  C   UNL     1     -13.101   6.786   7.792  0.00  0.00    +0.015 A 
ATOM     22  C   UNL     1     -13.965   5.763   8.139  0.00  0.00    +0.018 A 
ATOM     23  C   UNL     1     -13.464   4.519   8.474  0.00  0.00    +0.015 A 
ATOM     24  C   UNL     1     -12.100   4.297   8.463  0.00  0.00    +0.008 A 
ATOM     25 BR   UNL     1     -15.832   6.066   8.153  0.00  0.00    -0.050 Br
ENDBRANCH  18  19
ENDBRANCH  17  18
ENDBRANCH   5  17
TORSDOF 5
