REMARK  Name = ZINC67427955
REMARK  9 active torsions:
REMARK  status: ('A' for Active; 'I' for Inactive)
REMARK    1  A    between atoms: C_1  and  C_2
REMARK    2  A    between atoms: C_2  and  O_3
REMARK    3  A    between atoms: O_3  and  C_4
REMARK    4  A    between atoms: C_4  and  C_6
REMARK    5  A    between atoms: C_6  and  C_16
REMARK    6  A    between atoms: C_7  and  C_8
REMARK    7  A    between atoms: C_11  and  C_15
REMARK    8  A    between atoms: C_22  and  C_28
REMARK    9  A    between atoms: C_23  and  C_27
REMARK                            x       y       z     vdW  Elec       q    Type
REMARK                         _______ _______ _______ _____ _____    ______ ____
ROOT
ATOM      1  C   UNL     1      -2.807  -2.365   0.105  0.00  0.00    +0.102 C 
ATOM      2  C   UNL     1      -2.970  -3.728   0.007  0.00  0.00    +0.026 C 
ENDROOT
BRANCH   1   3
ATOM      3  C   UNL     1      -3.967  -1.504   0.388  0.00  0.00    +0.149 A 
ATOM      4  N   UNL     1      -4.382  -0.600  -0.553  0.00  0.00    -0.306 N 
ATOM      5  H   UNL     1      -3.907  -0.537  -1.396  0.00  0.00    +0.170 HD
ATOM      6  C   UNL     1      -5.439   0.203  -0.329  0.00  0.00    +0.260 A 
ATOM      7  O   UNL     1      -5.798   1.002  -1.176  0.00  0.00    -0.267 OA
ATOM      8  C   UNL     1      -6.136   0.105   0.919  0.00  0.00    +0.075 A 
ATOM      9  C   UNL     1      -7.288   0.853   1.387  0.00  0.00    -0.026 A 
ATOM     10  C   UNL     1      -7.786   0.594   2.608  0.00  0.00    -0.008 A 
ATOM     11  S   UNL     1      -6.721  -0.696   3.224  0.00  0.00    -0.073 S 
ATOM     12  C   UNL     1      -5.639  -0.851   1.827  0.00  0.00    +0.116 A 
ATOM     13  N   UNL     1      -4.595  -1.616   1.541  0.00  0.00    -0.222 NA
ATOM     14  C   UNL     1      -8.963   1.240   3.292  0.00  0.00    +0.052 C 
ATOM     15  C   UNL     1      -7.919   1.907   0.514  0.00  0.00    +0.045 C 
ENDBRANCH   1   3
BRANCH   2  16
ATOM     16  C   UNL     1      -4.317  -4.310   0.038  0.00  0.00    -0.021 A 
ATOM     17  C   UNL     1      -4.516  -5.597   0.554  0.00  0.00    +0.008 A 
ATOM     18  C   UNL     1      -5.783  -6.137   0.581  0.00  0.00    +0.007 A 
ATOM     19  C   UNL     1      -6.860  -5.411   0.100  0.00  0.00    -0.015 A 
ATOM     20  C   UNL     1      -6.674  -4.137  -0.412  0.00  0.00    +0.127 A 
ATOM     21  C   UNL     1      -5.411  -3.579  -0.441  0.00  0.00    +0.046 A 
ATOM     22  F   UNL     1      -7.730  -3.437  -0.880  0.00  0.00    -0.205 F 
ATOM     23  C   UNL     1      -8.242  -6.011   0.134  0.00  0.00    +0.047 C 
ENDBRANCH   2  16
BRANCH   1  24
ATOM     24  C   UNL     1      -1.474  -1.769  -0.073  0.00  0.00    +0.343 C 
ATOM     25  O   UNL     1      -0.502  -2.485  -0.216  0.00  0.00    -0.245 OA
BRANCH  24  26
ATOM     26  O   UNL     1      -1.330  -0.429  -0.079  0.00  0.00    -0.461 OA
BRANCH  26  28
ATOM     27  C   UNL     1      -0.043   1.610  -0.235  0.00  0.00    +0.048 C 
ATOM     28  C   UNL     1      -0.007   0.081  -0.256  0.00  0.00    +0.229 C 
ENDBRANCH  26  28
ENDBRANCH  24  26
ENDBRANCH   1  24
TORSDOF 5
