REMARK  Name = ZINC11871111
REMARK  6 active torsions:
REMARK  status: ('A' for Active; 'I' for Inactive)
REMARK    1  A    between atoms: C_1  and  C_2
REMARK    2  A    between atoms: C_2  and  C_15
REMARK    3  A    between atoms: N_5  and  C_9
REMARK    4  A    between atoms: C_9  and  C_10
REMARK    5  A    between atoms: C_20  and  C_21
REMARK    6  A    between atoms: C_20  and  N_56
REMARK                            x       y       z     vdW  Elec       q    Type
REMARK                         _______ _______ _______ _____ _____    ______ ____
ROOT
ATOM      1  C   UNL     1      -4.614   7.656   3.642  0.00  0.00    +0.018 C 
ATOM      2  C   UNL     1      -3.670   8.671   2.992  0.00  0.00    -0.013 C 
ATOM      3  C   UNL     1      -3.453   8.293   1.525  0.00  0.00    -0.078 C 
ATOM      4  C   UNL     1      -3.788   5.945   2.021  0.00  0.00    -0.078 C 
ATOM      5  C   UNL     1      -4.015   6.253   3.503  0.00  0.00    -0.013 C 
ATOM      6  N   UNL     1      -2.853   6.944   1.461  0.00  0.00    +0.383 N 
ATOM      7  H   UNL     1      -1.988   6.937   2.015  0.00  0.00    -0.081 HD
ENDROOT
BRANCH   1   9
ATOM      8  C   UNL     1      -3.428   8.037   5.826  0.00  0.00    +0.042 C 
ATOM      9  C   UNL     1      -4.787   7.994   5.124  0.00  0.00    +0.112 C 
ATOM     10  C   UNL     1      -5.706   6.993   5.795  0.00  0.00    +0.247 C 
ATOM     11  O   UNL     1      -5.531   5.798   5.907  0.00  0.00    -0.273 OA
ATOM     12  N   UNL     1      -6.758   7.707   6.241  0.00  0.00    -0.220 N 
ATOM     13  C   UNL     1      -6.633   9.006   5.947  0.00  0.00    +0.310 C 
ATOM     14  O   UNL     1      -7.457   9.849   6.246  0.00  0.00    -0.252 OA
ATOM     15  N   UNL     1      -5.494   9.276   5.284  0.00  0.00    -0.285 N 
ATOM     16  H   UNL     1      -5.197  10.145   4.973  0.00  0.00    +0.151 HD
BRANCH  12  17
ATOM     17  C   UNL     1      -7.899   7.131   6.958  0.00  0.00    +0.153 C 
BRANCH  17  18
ATOM     18  C   UNL     1      -8.959   6.719   5.970  0.00  0.00    -0.023 A 
ATOM     19  C   UNL     1      -8.957   5.447   5.429  0.00  0.00    +0.013 A 
ATOM     20  C   UNL     1      -9.924   5.108   4.543  0.00  0.00    +0.045 A 
ATOM     21  S   UNL     1     -10.882   6.612   4.448  0.00  0.00    -0.105 S 
ATOM     22  C   UNL     1      -9.931   7.588   5.601  0.00  0.00    +0.050 A 
ENDBRANCH  17  18
ENDBRANCH  12  17
ENDBRANCH   1   9
BRANCH   6  23
ATOM     23  C   UNL     1      -2.528   6.601   0.061  0.00  0.00    -0.025 C 
BRANCH  23  24
ATOM     24  C   UNL     1      -1.724   5.327   0.047  0.00  0.00    +0.000 A 
ATOM     25  C   UNL     1      -0.384   5.261   0.034  0.00  0.00    +0.029 A 
ATOM     26  C   UNL     1      -0.025   3.840   0.023  0.00  0.00    -0.000 A 
ATOM     27  C   UNL     1       1.186   3.146   0.008  0.00  0.00    +0.010 A 
ATOM     28  C   UNL     1       1.184   1.779   0.000  0.00  0.00    +0.001 A 
ATOM     29  C   UNL     1      -0.013   1.076   0.008  0.00  0.00    +0.002 A 
ATOM     30  C   UNL     1      -1.219   1.741   0.017  0.00  0.00    +0.026 A 
ATOM     31  C   UNL     1      -1.240   3.132   0.031  0.00  0.00    +0.047 A 
ATOM     32  N   UNL     1      -2.253   4.064   0.045  0.00  0.00    -0.360 N 
ATOM     33  H   UNL     1      -3.201   3.858   0.054  0.00  0.00    +0.166 HD
ENDBRANCH  23  24
ENDBRANCH   6  23
TORSDOF 5
