REMARK  Name = ZINC27534124
REMARK  10 active torsions:
REMARK  status: ('A' for Active; 'I' for Inactive)
REMARK    1  A    between atoms: C_1  and  C_2
REMARK    2  A    between atoms: N_16  and  C_17
REMARK    3  A    between atoms: C_17  and  C_18
REMARK    4  A    between atoms: C_18  and  C_19
REMARK    5  A    between atoms: C_19  and  C_20
REMARK    6  A    between atoms: N_22  and  N_23
REMARK    7  A    between atoms: N_23  and  C_24
REMARK    8  A    between atoms: N_23  and  C_25
REMARK    9  A    between atoms: C_28  and  C_34
REMARK   10  A    between atoms: C_30  and  N_31
REMARK                            x       y       z     vdW  Elec       q    Type
REMARK                         _______ _______ _______ _____ _____    ______ ____
ROOT
ATOM      1  C   UNL     1      -5.591   1.899   1.389  0.00  0.00    +0.099 C 
ENDROOT
BRANCH   1   2
ATOM      2  C   UNL     1      -5.958   1.690   2.836  0.00  0.00    +0.229 C 
ATOM      3  O   UNL     1      -5.331   2.253   3.708  0.00  0.00    -0.274 OA
ATOM      4  N   UNL     1      -6.981   0.875   3.161  0.00  0.00    -0.234 N 
ATOM      5  H   UNL     1      -7.600   0.427   2.369  0.00  0.00    +0.173 HD
BRANCH   4   6
ATOM      6  N   UNL     1      -7.258   0.600   4.506  0.00  0.00    -0.252 N 
ATOM      7  C   UNL     1      -6.402  -0.323   5.256  0.00  0.00    +0.154 C 
BRANCH   6   8
ATOM      8  C   UNL     1      -8.350   1.205   5.133  0.00  0.00    +0.077 A 
ATOM      9  C   UNL     1      -8.175   2.380   5.854  0.00  0.00    +0.027 A 
ATOM     10  C   UNL     1      -9.257   2.976   6.472  0.00  0.00    +0.014 A 
ATOM     11  C   UNL     1     -10.512   2.404   6.374  0.00  0.00    +0.057 A 
ATOM     12  C   UNL     1     -10.689   1.235   5.657  0.00  0.00    +0.047 A 
ATOM     13  C   UNL     1      -9.613   0.637   5.033  0.00  0.00    +0.149 A 
BRANCH  11  14
ATOM     14  C   UNL     1     -11.690   3.058   7.050  0.00  0.00    +0.417 C 
ATOM     15  F   UNL     1     -11.266   4.218   7.707  0.00  0.00    -0.166 F 
ATOM     16  F   UNL     1     -12.653   3.390   6.091  0.00  0.00    -0.166 F 
ATOM     17  F   UNL     1     -12.245   2.171   7.979  0.00  0.00    -0.166 F 
ENDBRANCH  11  14
BRANCH  13  18
ATOM     18  N   UNL     1      -9.804  -0.612   4.261  0.00  0.00    +0.058 N 
ATOM     19  O   UNL     1     -10.892  -1.161   4.250  0.00  0.00    -0.126 OA
ATOM     20  O   UNL     1      -8.874  -1.091   3.637  0.00  0.00    -0.126 OA
ENDBRANCH  13  18
ENDBRANCH   6   8
ENDBRANCH   4   6
ENDBRANCH   1   2
BRANCH   1  21
ATOM     21  C   UNL     1      -4.405   2.861   1.298  0.00  0.00    +0.031 C 
BRANCH  21  22
ATOM     22  C   UNL     1      -4.033   3.074  -0.171  0.00  0.00    +0.123 C 
BRANCH  22  38
ATOM     23  C   UNL     1      -3.942   9.549  -0.659  0.00  0.00    +0.044 C 
ATOM     24  C   UNL     1      -3.652   8.073  -0.553  0.00  0.00    -0.050 A 
ATOM     25  C   UNL     1      -4.701   7.169  -0.468  0.00  0.00    +0.005 A 
ATOM     26  C   UNL     1      -4.457   5.817  -0.370  0.00  0.00    +0.027 A 
ATOM     27  C   UNL     1      -3.145   5.346  -0.355  0.00  0.00    +0.053 A 
ATOM     28  C   UNL     1      -2.088   6.269  -0.442  0.00  0.00    +0.046 A 
ATOM     29  C   UNL     1      -2.357   7.635  -0.541  0.00  0.00    +0.017 A 
ATOM     30  C   UNL     1      -0.700   5.774  -0.427  0.00  0.00    +0.197 A 
ATOM     31  O   UNL     1       0.244   6.539  -0.499  0.00  0.00    -0.287 OA
ATOM     32  C   UNL     1      -0.498   4.317  -0.322  0.00  0.00    +0.046 A 
ATOM     33  C   UNL     1       0.788   3.775  -0.303  0.00  0.00    +0.014 A 
ATOM     34  C   UNL     1       0.954   2.421  -0.205  0.00  0.00    +0.001 A 
ATOM     35  C   UNL     1      -0.149   1.583  -0.125  0.00  0.00    +0.002 A 
ATOM     36  C   UNL     1      -1.427   2.098  -0.147  0.00  0.00    +0.026 A 
ATOM     37  C   UNL     1      -1.620   3.475  -0.240  0.00  0.00    +0.053 A 
ATOM     38  N   UNL     1      -2.896   3.994  -0.258  0.00  0.00    -0.340 N 
ENDBRANCH  22  38
ENDBRANCH  21  22
ENDBRANCH   1  21
TORSDOF 8
