REMARK  Name = ZINC63600656
REMARK  5 active torsions:
REMARK  status: ('A' for Active; 'I' for Inactive)
REMARK    1  A    between atoms: C_8  and  C_13
REMARK    2  A    between atoms: N_15  and  C_16
REMARK    3  A    between atoms: C_19  and  C_22
REMARK    4  A    between atoms: C_22  and  C_23
REMARK    5  A    between atoms: C_23  and  C_24
REMARK                            x       y       z     vdW  Elec       q    Type
REMARK                         _______ _______ _______ _____ _____    ______ ____
ROOT
ATOM      1  C   UNL     1       3.750  -2.789  -4.040  0.00  0.00    +0.033 A 
ATOM      2  C   UNL     1       2.711  -2.126  -4.678  0.00  0.00    +0.023 A 
ATOM      3  C   UNL     1       2.773  -1.893  -6.038  0.00  0.00    +0.005 A 
ATOM      4  C   UNL     1       3.870  -2.321  -6.764  0.00  0.00    -0.047 A 
ATOM      5  C   UNL     1       4.906  -2.983  -6.132  0.00  0.00    +0.005 A 
ATOM      6  C   UNL     1       4.852  -3.213  -4.771  0.00  0.00    +0.023 A 
ENDROOT
BRANCH   1   9
ATOM      7  C   UNL     1       4.814  -2.982  -1.921  0.00  0.00    +0.231 C 
ATOM      8  O   UNL     1       5.889  -2.821  -2.459  0.00  0.00    -0.275 OA
ATOM      9  N   UNL     1       3.690  -3.026  -2.663  0.00  0.00    -0.285 N 
ATOM     10  H   UNL     1       2.838  -3.223  -2.241  0.00  0.00    +0.155 HD
BRANCH   7  18
ATOM     11  C   UNL     1       8.990  -5.485  -0.187  0.00  0.00    +0.000 A 
ATOM     12  C   UNL     1       8.332  -6.666  -0.479  0.00  0.00    +0.004 A 
ATOM     13  C   UNL     1       6.955  -6.682  -0.570  0.00  0.00    +0.046 A 
ATOM     14  C   UNL     1       6.227  -5.514  -0.368  0.00  0.00    +0.135 A 
ATOM     15  C   UNL     1       6.886  -4.335  -0.069  0.00  0.00    -0.004 A 
ATOM     16  C   UNL     1       8.269  -4.325   0.016  0.00  0.00    +0.007 A 
ATOM     17  C   UNL     1       6.141  -3.048   0.181  0.00  0.00    +0.063 C 
ATOM     18  C   UNL     1       4.736  -3.134  -0.424  0.00  0.00    +0.188 C 
ATOM     19  C   UNL     1       4.168  -4.495  -0.072  0.00  0.00    +0.325 C 
ATOM     20  O   UNL     1       3.134  -4.609   0.542  0.00  0.00    -0.250 OA
ATOM     21  O   UNL     1       4.871  -5.571  -0.478  0.00  0.00    -0.425 OA
ENDBRANCH   7  18
ENDBRANCH   1   9
BRANCH   4  22
ATOM     22  C   UNL     1       3.935  -2.066  -8.248  0.00  0.00    +0.039 C 
BRANCH  22  23
ATOM     23  C   UNL     1       4.612  -0.718  -8.505  0.00  0.00    +0.051 C 
BRANCH  23  24
ATOM     24  C   UNL     1       4.678  -0.459 -10.011  0.00  0.00    +0.174 C 
ATOM     25  N   UNL     1       5.510  -1.478 -10.662  0.00  0.00    -0.363 N 
ATOM     26  C   UNL     1       6.509  -0.865 -11.227  0.00  0.00    +0.060 A 
ATOM     27  C   UNL     1       7.656  -1.338 -12.014  0.00  0.00    +0.027 A 
ATOM     28  C   UNL     1       8.554  -0.449 -12.482  0.00  0.00    +0.002 A 
ATOM     29  C   UNL     1       8.444   0.934 -12.249  0.00  0.00    +0.002 A 
ATOM     30  C   UNL     1       7.433   1.473 -11.540  0.00  0.00    +0.027 A 
ATOM     31  C   UNL     1       6.393   0.599 -10.980  0.00  0.00    +0.060 A 
ATOM     32  N   UNL     1       5.326   0.833 -10.273  0.00  0.00    -0.363 N 
ATOM     33  H   UNL     1       5.345  -2.434 -10.669  0.00  0.00    +0.162 HD
ATOM     34  H   UNL     1       5.016   1.702  -9.973  0.00  0.00    +0.162 HD
ENDBRANCH  23  24
ENDBRANCH  22  23
ENDBRANCH   4  22
TORSDOF 5
