REMARK  Name = ZINC14547598
REMARK  7 active torsions:
REMARK  status: ('A' for Active; 'I' for Inactive)
REMARK    1  A    between atoms: C_1  and  C_2
REMARK    2  A    between atoms: C_2  and  C_3
REMARK    3  A    between atoms: C_3  and  C_5
REMARK    4  A    between atoms: C_3  and  N_6
REMARK    5  A    between atoms: N_6  and  S_7
REMARK    6  A    between atoms: S_7  and  C_10
REMARK    7  A    between atoms: C_23  and  C_26
REMARK                            x       y       z     vdW  Elec       q    Type
REMARK                         _______ _______ _______ _____ _____    ______ ____
ROOT
ATOM      1  C   UNL     1      -3.048   2.170  -3.577  0.00  0.00    +0.106 A 
ATOM      2  C   UNL     1      -2.366   3.312  -3.955  0.00  0.00    +0.030 A 
ATOM      3  C   UNL     1      -2.112   3.546  -5.292  0.00  0.00    +0.025 A 
ATOM      4  C   UNL     1      -2.551   2.643  -6.252  0.00  0.00    +0.031 A 
ATOM      5  C   UNL     1      -3.243   1.501  -5.878  0.00  0.00    -0.018 A 
ATOM      6  C   UNL     1      -3.485   1.273  -4.530  0.00  0.00    +0.034 A 
ATOM      7  C   UNL     1      -3.742   0.505  -6.875  0.00  0.00    +0.049 C 
ATOM      8  C   UNL     1      -2.894  -0.745  -6.882  0.00  0.00    -0.023 C 
ATOM      9  C   UNL     1      -2.786  -1.213  -8.101  0.00  0.00    -0.030 C 
ATOM     10  C   UNL     1      -3.553  -0.340  -9.076  0.00  0.00    +0.033 C 
ATOM     11  C   UNL     1      -3.670   1.020  -8.326  0.00  0.00    +0.029 C 
ATOM     12  C   UNL     1      -2.356   1.775  -8.546  0.00  0.00    +0.106 C 
ATOM     13  N   UNL     1      -2.289   2.896  -7.602  0.00  0.00    -0.336 N 
ATOM     14  H   UNL     1      -2.068   3.790  -7.907  0.00  0.00    +0.147 HD
ENDROOT
BRANCH  12  15
ATOM     15  C   UNL     1      -1.193   0.846  -8.311  0.00  0.00    -0.009 A 
ATOM     16  C   UNL     1      -0.530   0.266  -9.381  0.00  0.00    +0.008 A 
ATOM     17  C   UNL     1       0.537  -0.579  -9.117  0.00  0.00    +0.020 A 
ATOM     18  C   UNL     1       0.895  -0.822  -7.804  0.00  0.00    +0.111 A 
ATOM     19  N   UNL     1       0.237  -0.256  -6.811  0.00  0.00    -0.263 NA
ATOM     20  C   UNL     1      -0.779   0.556  -7.025  0.00  0.00    +0.116 A 
ENDBRANCH  12  15
BRANCH   1  21
ATOM     21  S   UNL     1      -3.367   1.863  -1.871  0.00  0.00    +0.059 S 
ATOM     22  O   UNL     1      -4.500   1.007  -1.817  0.00  0.00    -0.153 OA
ATOM     23  O   UNL     1      -3.332   3.124  -1.218  0.00  0.00    -0.153 OA
BRANCH  21  24
ATOM     24  N   UNL     1      -2.087   0.991  -1.284  0.00  0.00    -0.187 NA
ATOM     25  H   UNL     1      -2.221   0.081  -0.974  0.00  0.00    +0.148 HD
BRANCH  24  26
ATOM     26  C   UNL     1      -0.753   1.593  -1.232  0.00  0.00    +0.073 C 
ATOM     27  C   UNL     1       0.031   1.205  -2.487  0.00  0.00    +0.025 C 
BRANCH  26  29
ATOM     28  C   UNL     1      -0.729   1.579   1.267  0.00  0.00    +0.005 C 
ATOM     29  C   UNL     1      -0.013   1.086   0.008  0.00  0.00    +0.017 C 
ENDBRANCH  26  29
ENDBRANCH  24  26
ENDBRANCH  21  24
ENDBRANCH   1  21
TORSDOF 5
