REMARK  Name = ZINC21219484
REMARK  6 active torsions:
REMARK  status: ('A' for Active; 'I' for Inactive)
REMARK    1  A    between atoms: C_1  and  C_2
REMARK    2  A    between atoms: C_2  and  C_3
REMARK    3  A    between atoms: C_3  and  O_4
REMARK    4  A    between atoms: O_4  and  C_5
REMARK    5  A    between atoms: C_8  and  C_11
REMARK    6  A    between atoms: C_16  and  C_26
REMARK                            x       y       z     vdW  Elec       q    Type
REMARK                         _______ _______ _______ _____ _____    ______ ____
ROOT
ATOM      1  C   UNL     1      -3.562   1.608  -4.100  0.00  0.00    +0.032 C 
ATOM      2  C   UNL     1      -4.735   1.734  -3.129  0.00  0.00    +0.059 C 
ATOM      3  C   UNL     1      -4.226   1.743  -1.697  0.00  0.00    +0.017 C 
ATOM      4  C   UNL     1      -3.120   1.058  -1.361  0.00  0.00    +0.036 C 
ATOM      5  C   UNL     1      -2.513   0.977   0.019  0.00  0.00    +0.136 C 
ATOM      6  N   UNL     1      -3.354   1.493   1.077  0.00  0.00    -0.331 N 
ATOM      7  C   UNL     1      -3.698   2.844   1.127  0.00  0.00    +0.049 A 
ATOM      8  C   UNL     1      -3.222   3.674   2.130  0.00  0.00    +0.025 A 
ATOM      9  C   UNL     1      -3.496   5.030   2.076  0.00  0.00    +0.002 A 
ATOM     10  C   UNL     1      -4.238   5.554   1.033  0.00  0.00    +0.002 A 
ATOM     11  C   UNL     1      -4.732   4.723   0.041  0.00  0.00    +0.025 A 
ATOM     12  C   UNL     1      -4.475   3.365   0.103  0.00  0.00    +0.052 A 
ATOM     13  N   UNL     1      -4.979   2.468  -0.831  0.00  0.00    -0.316 N 
ATOM     14  C   UNL     1      -2.409   0.327  -2.342  0.00  0.00    +0.163 C 
ATOM     15  O   UNL     1      -1.424  -0.300  -2.008  0.00  0.00    -0.292 OA
ATOM     16  C   UNL     1      -2.831   0.298  -3.781  0.00  0.00    +0.088 C 
ATOM     17  H   UNL     1      -3.732   0.817   1.858  0.00  0.00    +0.147 HD
ATOM     18  H   UNL     1      -6.074   2.367  -0.836  0.00  0.00    +0.152 HD
ENDROOT
BRANCH   5  19
ATOM     19  C   UNL     1      -1.219   1.750   0.017  0.00  0.00    -0.019 A 
ATOM     20  C   UNL     1      -1.230   3.113  -0.215  0.00  0.00    +0.009 A 
ATOM     21  C   UNL     1      -0.046   3.825  -0.225  0.00  0.00    +0.050 A 
ATOM     22  C   UNL     1       1.156   3.176   0.007  0.00  0.00    +0.166 A 
ATOM     23  C   UNL     1       1.166   1.804   0.249  0.00  0.00    +0.167 A 
ATOM     24  C   UNL     1      -0.025   1.097   0.256  0.00  0.00    +0.055 A 
ATOM     25  O   UNL     1       2.457   1.406   0.445  0.00  0.00    -0.453 OA
ATOM     26  C   UNL     1       3.272   2.469  -0.082  0.00  0.00    +0.466 C 
ATOM     27  O   UNL     1       2.440   3.636   0.052  0.00  0.00    -0.453 OA
ENDBRANCH   5  19
BRANCH   1  31
ATOM     28  C   UNL     1      -5.012   1.518  -8.119  0.00  0.00    +0.121 A 
ATOM     29  C   UNL     1      -4.114   2.500  -7.726  0.00  0.00    +0.046 A 
ATOM     30  C   UNL     1      -3.647   2.527  -6.426  0.00  0.00    +0.007 A 
ATOM     31  C   UNL     1      -4.073   1.576  -5.517  0.00  0.00    -0.043 A 
ATOM     32  C   UNL     1      -4.964   0.593  -5.907  0.00  0.00    +0.007 A 
ATOM     33  C   UNL     1      -5.438   0.565  -7.205  0.00  0.00    +0.046 A 
BRANCH  28  34
ATOM     34  O   UNL     1      -5.473   1.489  -9.397  0.00  0.00    -0.492 OA
BRANCH  34  35
ATOM     35  C   UNL     1      -6.395   0.450  -9.730  0.00  0.00    +0.229 C 
BRANCH  35  37
ATOM     36  C   UNL     1      -7.787  -0.534 -11.558  0.00  0.00    +0.007 C 
ATOM     37  C   UNL     1      -6.799   0.579 -11.200  0.00  0.00    +0.038 C 
ENDBRANCH  35  37
ENDBRANCH  34  35
ENDBRANCH  28  34
ENDBRANCH   1  31
TORSDOF 5
