REMARK  Name = ZINC16770953
REMARK  11 active torsions:
REMARK  status: ('A' for Active; 'I' for Inactive)
REMARK    1  A    between atoms: C_1  and  C_2
REMARK    2  A    between atoms: C_2  and  C_4
REMARK    3  A    between atoms: C_2  and  O_14
REMARK    4  A    between atoms: N_9  and  C_10
REMARK    5  A    between atoms: C_10  and  C_11
REMARK    6  A    between atoms: C_10  and  C_12
REMARK    7  A    between atoms: C_10  and  C_13
REMARK    8  A    between atoms: O_14  and  C_15
REMARK    9  A    between atoms: C_15  and  C_17
REMARK   10  A    between atoms: C_17  and  C_18
REMARK   11  A    between atoms: C_25  and  C_30
REMARK                            x       y       z     vdW  Elec       q    Type
REMARK                         _______ _______ _______ _____ _____    ______ ____
ROOT
ATOM      1  C   UNL     1       6.872  -1.103  -4.570  0.00  0.00    +0.309 C 
ATOM      2  O   UNL     1       6.494  -2.105  -5.131  0.00  0.00    -0.251 OA
ENDROOT
BRANCH   1   3
ATOM      3  O   UNL     1       5.986  -0.306  -3.953  0.00  0.00    -0.452 OA
BRANCH   3   5
ATOM      4  C   UNL     1       3.926  -0.101  -5.236  0.00  0.00    +0.062 C 
ATOM      5  C   UNL     1       4.591  -0.709  -3.999  0.00  0.00    +0.259 C 
BRANCH   5   6
ATOM      6  C   UNL     1       3.886  -0.223  -2.760  0.00  0.00    +0.261 C 
ATOM      7  O   UNL     1       4.473   0.478  -1.963  0.00  0.00    -0.271 OA
ATOM      8  N   UNL     1       2.602  -0.567  -2.536  0.00  0.00    -0.237 N 
ATOM      9  C   UNL     1       1.972  -0.132  -1.427  0.00  0.00    +0.306 C 
ATOM     10  O   UNL     1       2.560   0.570  -0.629  0.00  0.00    -0.252 OA
ATOM     11  N   UNL     1       0.688  -0.476  -1.203  0.00  0.00    -0.294 N 
ATOM     12  H   UNL     1       2.132  -1.127  -3.173  0.00  0.00    +0.159 HD
ATOM     13  H   UNL     1       0.218  -1.037  -1.840  0.00  0.00    +0.151 HD
BRANCH  11  14
ATOM     14  C   UNL     1       0.002  -0.004   0.002  0.00  0.00    +0.028 C 
ATOM     15  C   UNL     1      -0.019   1.526   0.010  0.00  0.00    +0.031 C 
ATOM     16  C   UNL     1       0.742  -0.511   1.242  0.00  0.00    +0.031 C 
ATOM     17  C   UNL     1      -1.433  -0.534   0.013  0.00  0.00    +0.031 C 
ENDBRANCH  11  14
ENDBRANCH   5   6
ENDBRANCH   3   5
ENDBRANCH   1   3
BRANCH   1  18
ATOM     18  C   UNL     1       8.336  -0.750  -4.563  0.00  0.00    +0.144 C 
BRANCH  18  19
ATOM     19  C   UNL     1       9.122  -1.815  -5.330  0.00  0.00    +0.148 C 
ATOM     20  C   UNL     1      10.598  -1.532  -5.222  0.00  0.00    +0.231 C 
ATOM     21  O   UNL     1      11.243  -2.141  -4.395  0.00  0.00    -0.274 OA
ATOM     22  N   UNL     1      11.227  -0.648  -5.989  0.00  0.00    -0.284 N 
ATOM     23  C   UNL     1      10.687   0.055  -7.062  0.00  0.00    +0.047 A 
ATOM     24  C   UNL     1      11.353   1.179  -7.542  0.00  0.00    +0.036 A 
ATOM     25  C   UNL     1      10.832   1.899  -8.599  0.00  0.00    +0.057 A 
ATOM     26  C   UNL     1       9.643   1.513  -9.192  0.00  0.00    +0.013 A 
ATOM     27  C   UNL     1       8.972   0.397  -8.727  0.00  0.00    +0.017 A 
ATOM     28  C   UNL     1       9.493  -0.332  -7.671  0.00  0.00    +0.030 A 
ATOM     29  S   UNL     1       8.654  -1.772  -7.088  0.00  0.00    -0.110 S 
ATOM     30  H   UNL     1      12.158  -0.474  -5.780  0.00  0.00    +0.155 HD
BRANCH  25  31
ATOM     31  C   UNL     1      11.564   3.113  -9.110  0.00  0.00    +0.417 C 
ATOM     32  F   UNL     1      10.851   3.673 -10.175  0.00  0.00    -0.166 F 
ATOM     33  F   UNL     1      11.681   4.054  -8.081  0.00  0.00    -0.166 F 
ATOM     34  F   UNL     1      12.839   2.739  -9.548  0.00  0.00    -0.166 F 
ENDBRANCH  25  31
ENDBRANCH  18  19
ENDBRANCH   1  18
TORSDOF 7
