REMARK  Name = ZINC46686107
REMARK  9 active torsions:
REMARK  status: ('A' for Active; 'I' for Inactive)
REMARK    1  A    between atoms: C_1  and  C_2
REMARK    2  A    between atoms: C_2  and  O_3
REMARK    3  A    between atoms: O_3  and  C_4
REMARK    4  A    between atoms: C_7  and  C_10
REMARK    5  A    between atoms: C_10  and  C_12
REMARK    6  A    between atoms: C_10  and  N_18
REMARK    7  A    between atoms: C_19  and  C_21
REMARK    8  A    between atoms: C_21  and  N_22
REMARK    9  A    between atoms: C_30  and  C_32
REMARK                            x       y       z     vdW  Elec       q    Type
REMARK                         _______ _______ _______ _____ _____    ______ ____
ROOT
ATOM      1  N   UNL     1      -3.113  -6.448  -0.895  0.00  0.00    -0.303 N 
ATOM      2  C   UNL     1      -3.160  -7.671  -1.460  0.00  0.00    +0.232 C 
ATOM      3  O   UNL     1      -2.281  -8.476  -1.237  0.00  0.00    -0.274 OA
ATOM      4  H   UNL     1      -3.816  -5.804  -1.074  0.00  0.00    +0.150 HD
ENDROOT
BRANCH   1   5
ATOM      5  C   UNL     1      -2.001  -6.092  -0.011  0.00  0.00    +0.134 C 
BRANCH   5   9
ATOM      6  C   UNL     1      -1.498  -1.848   0.006  0.00  0.00    +0.121 A 
ATOM      7  C   UNL     1      -0.388  -2.679  -0.003  0.00  0.00    +0.046 A 
ATOM      8  C   UNL     1      -0.553  -4.051  -0.008  0.00  0.00    +0.009 A 
ATOM      9  C   UNL     1      -1.823  -4.596  -0.005  0.00  0.00    -0.023 A 
ATOM     10  C   UNL     1      -2.932  -3.769   0.004  0.00  0.00    +0.009 A 
ATOM     11  C   UNL     1      -2.772  -2.397   0.016  0.00  0.00    +0.046 A 
BRANCH   6  12
ATOM     12  O   UNL     1      -1.339  -0.499   0.012  0.00  0.00    -0.492 OA
BRANCH  12  14
ATOM     13  C   UNL     1      -0.019   1.526   0.010  0.00  0.00    +0.048 C 
ATOM     14  C   UNL     1       0.002  -0.004   0.002  0.00  0.00    +0.225 C 
ENDBRANCH  12  14
ENDBRANCH   6  12
ENDBRANCH   5   9
BRANCH   5  15
ATOM     15  C   UNL     1      -2.298  -6.569   1.387  0.00  0.00    -0.023 A 
ATOM     16  C   UNL     1      -3.578  -6.459   1.897  0.00  0.00    +0.006 A 
ATOM     17  C   UNL     1      -3.851  -6.896   3.180  0.00  0.00    +0.000 A 
ATOM     18  C   UNL     1      -2.844  -7.443   3.953  0.00  0.00    +0.000 A 
ATOM     19  C   UNL     1      -1.564  -7.553   3.442  0.00  0.00    +0.000 A 
ATOM     20  C   UNL     1      -1.292  -7.120   2.158  0.00  0.00    +0.006 A 
ENDBRANCH   5  15
ENDBRANCH   1   5
BRANCH   2  21
ATOM     21  C   UNL     1      -4.304  -8.037  -2.370  0.00  0.00    +0.213 C 
BRANCH  21  22
ATOM     22  N   UNL     1      -4.124  -9.409  -2.853  0.00  0.00    -0.215 N 
ATOM     23  C   UNL     1      -3.453  -9.736  -3.976  0.00  0.00    +0.247 C 
ATOM     24  O   UNL     1      -2.904  -8.980  -4.749  0.00  0.00    -0.273 OA
ATOM     25  C   UNL     1      -3.528 -11.243  -4.067  0.00  0.00    +0.115 C 
ATOM     26  C   UNL     1      -4.253 -11.663  -5.341  0.00  0.00    +0.035 C 
ATOM     27  C   UNL     1      -4.345 -13.190  -5.399  0.00  0.00    +0.003 C 
ATOM     28  C   UNL     1      -2.936 -13.786  -5.374  0.00  0.00    +0.000 C 
ATOM     29  C   UNL     1      -2.230 -13.375  -4.080  0.00  0.00    +0.006 C 
ATOM     30  C   UNL     1      -2.130 -11.849  -4.017  0.00  0.00    +0.018 C 
ATOM     31  C   UNL     1      -1.442 -11.437  -2.714  0.00  0.00    +0.010 C 
ATOM     32  N   UNL     1      -4.301 -11.634  -2.882  0.00  0.00    -0.285 N 
ATOM     33  C   UNL     1      -4.601 -10.494  -2.230  0.00  0.00    +0.310 C 
ATOM     34  O   UNL     1      -5.237 -10.455  -1.195  0.00  0.00    -0.252 OA
ATOM     35  H   UNL     1      -4.545 -12.535  -2.619  0.00  0.00    +0.151 HD
ENDBRANCH  21  22
ENDBRANCH   2  21
TORSDOF 7
