REMARK  Name = ZINC21327436
REMARK  7 active torsions:
REMARK  status: ('A' for Active; 'I' for Inactive)
REMARK    1  A    between atoms: C_1  and  C_2
REMARK    2  A    between atoms: C_5  and  N_8
REMARK    3  A    between atoms: C_9  and  C_11
REMARK    4  A    between atoms: C_11  and  S_12
REMARK    5  A    between atoms: S_12  and  C_13
REMARK    6  A    between atoms: N_17  and  N_18
REMARK    7  A    between atoms: N_19  and  N_20
REMARK                            x       y       z     vdW  Elec       q    Type
REMARK                         _______ _______ _______ _____ _____    ______ ____
ROOT
ATOM      1  C   UNL     1       3.989  -6.564  -0.530  0.00  0.00    +0.210 A 
ATOM      2  N   UNL     1       2.869  -7.245  -0.518  0.00  0.00    -0.119 NA
ATOM      3  N   UNL     1       3.186  -8.604  -0.650  0.00  0.00    -0.109 NA
ATOM      4  C   UNL     1       4.490  -8.709  -0.729  0.00  0.00    +0.254 A 
ATOM      5  N   UNL     1       5.021  -7.451  -0.657  0.00  0.00    -0.211 N 
ATOM      6  N   UNL     1       5.207  -9.891  -0.863  0.00  0.00    -0.204 N 
ATOM      7  H   UNL     1       6.305  -9.864  -0.921  0.00  0.00    +0.177 HD
ENDROOT
BRANCH   6   8
ATOM      8  N   UNL     1       4.531 -11.116  -0.925  0.00  0.00    -0.189 NA
ATOM      9  C   UNL     1       5.192 -12.206  -1.048  0.00  0.00    +0.037 C 
ATOM     10  C   UNL     1       6.698 -12.336  -1.147  0.00  0.00    +0.052 C 
ATOM     11  C   UNL     1       7.008 -13.841  -1.288  0.00  0.00    +0.006 C 
ATOM     12  C   UNL     1       5.696 -14.433  -1.862  0.00  0.00    +0.006 C 
ATOM     13  C   UNL     1       4.611 -13.607  -1.129  0.00  0.00    +0.052 C 
ENDBRANCH   6   8
BRANCH   5  14
ATOM     14  N   UNL     1       6.349  -7.136  -0.705  0.00  0.00    -0.294 N 
ATOM     15  H   UNL     1       7.100  -7.933  -0.810  0.00  0.00    +0.163 HD
ATOM     16  H   UNL     1       6.668  -6.086  -0.639  0.00  0.00    +0.163 HD
ENDBRANCH   5  14
BRANCH   1  17
ATOM     17  S   UNL     1       4.139  -4.814  -0.398  0.00  0.00    -0.075 S 
BRANCH  17  18
ATOM     18  C   UNL     1       2.425  -4.236  -0.258  0.00  0.00    +0.173 C 
BRANCH  18  20
ATOM     19  N   UNL     1       1.237  -2.079  -0.020  0.00  0.00    -0.285 N 
ATOM     20  C   UNL     1       2.410  -2.734  -0.137  0.00  0.00    +0.227 C 
ATOM     21  O   UNL     1       3.452  -2.114  -0.144  0.00  0.00    -0.275 OA
ATOM     22  H   UNL     1       0.298  -2.645   0.073  0.00  0.00    +0.155 HD
BRANCH  19  27
ATOM     23  C   UNL     1       1.143   3.593  -0.015  0.00  0.00    +0.044 C 
ATOM     24  C   UNL     1       1.168   2.086  -0.017  0.00  0.00    -0.050 A 
ATOM     25  C   UNL     1       2.111   1.412  -0.771  0.00  0.00    +0.005 A 
ATOM     26  C   UNL     1       2.137   0.031  -0.774  0.00  0.00    +0.023 A 
ATOM     27  C   UNL     1       1.214  -0.680  -0.019  0.00  0.00    +0.033 A 
ATOM     28  C   UNL     1       0.268  -0.001   0.737  0.00  0.00    +0.023 A 
ATOM     29  C   UNL     1       0.248   1.380   0.736  0.00  0.00    +0.005 A 
ENDBRANCH  19  27
ENDBRANCH  18  20
ENDBRANCH  17  18
ENDBRANCH   1  17
TORSDOF 6
