REMARK  Name = ZINC05073741
REMARK  10 active torsions:
REMARK  status: ('A' for Active; 'I' for Inactive)
REMARK    1  A    between atoms: C_1  and  C_2
REMARK    2  A    between atoms: C_5  and  O_12
REMARK    3  A    between atoms: C_8  and  C_10
REMARK    4  A    between atoms: C_8  and  C_11
REMARK    5  A    between atoms: O_12  and  C_13
REMARK    6  A    between atoms: C_13  and  C_14
REMARK    7  A    between atoms: C_14  and  C_16
REMARK    8  A    between atoms: C_14  and  O_27
REMARK    9  A    between atoms: C_16  and  N_60
REMARK   10  A    between atoms: N_19  and  C_22
REMARK                            x       y       z     vdW  Elec       q    Type
REMARK                         _______ _______ _______ _____ _____    ______ ____
ROOT
ATOM      1  C   UNL     1      -0.800   1.987  -1.118  0.00  0.00    -0.045 C 
ENDROOT
BRANCH   1   7
ATOM      2  C   UNL     1       0.809   0.282  -0.511  0.00  0.00    -0.059 C 
ATOM      3  C   UNL     1       1.820  -0.136   0.559  0.00  0.00    +0.088 C 
ATOM      4  N   UNL     1       1.121  -0.343   1.835  0.00  0.00    -0.320 N 
ATOM      5  C   UNL     1       0.439   0.885   2.264  0.00  0.00    +0.088 C 
ATOM      6  C   UNL     1      -0.573   1.304   1.194  0.00  0.00    -0.059 C 
ATOM      7  N   UNL     1       0.146   1.530  -0.078  0.00  0.00    +0.383 N 
ATOM      8  H   UNL     1       0.859   2.255   0.066  0.00  0.00    -0.082 HD
BRANCH   4   9
ATOM      9  C   UNL     1       1.998  -0.794   2.815  0.00  0.00    +0.099 A 
ATOM     10  C   UNL     1       2.741  -1.950   2.597  0.00  0.00    +0.042 A 
ATOM     11  C   UNL     1       3.609  -2.387   3.581  0.00  0.00    +0.005 A 
ATOM     12  C   UNL     1       3.705  -1.651   4.755  0.00  0.00    +0.018 A 
ATOM     13  C   UNL     1       2.938  -0.514   4.904  0.00  0.00    +0.084 A 
ATOM     14  N   UNL     1       2.079  -0.051   3.957  0.00  0.00    -0.350 N 
ATOM     15  H   UNL     1       1.526   0.803   4.092  0.00  0.00    +0.166 HD
ENDBRANCH   4   9
ENDBRANCH   1   7
BRANCH   1  16
ATOM     16  C   UNL     1      -1.115   3.466  -0.880  0.00  0.00    +0.124 C 
BRANCH  16  17
ATOM     17  O   UNL     1       0.085   4.233  -0.998  0.00  0.00    -0.391 OA
ATOM     18  H   UNL     1       0.510   4.168  -1.864  0.00  0.00    +0.210 HD
ENDBRANCH  16  17
BRANCH  16  19
ATOM     19  C   UNL     1      -2.131   3.945  -1.919  0.00  0.00    +0.189 C 
BRANCH  19  20
ATOM     20  O   UNL     1      -2.513   5.290  -1.627  0.00  0.00    -0.374 OA
BRANCH  20  24
ATOM     21  C   UNL     1      -7.314   5.840  -2.520  0.00  0.00    +0.007 C 
ATOM     22  C   UNL     1      -5.899   6.130  -3.022  0.00  0.00    -0.011 C 
ATOM     23  C   UNL     1      -4.880   5.546  -2.041  0.00  0.00    +0.035 C 
ATOM     24  C   UNL     1      -3.464   5.836  -2.543  0.00  0.00    +0.119 C 
ATOM     25  C   UNL     1      -3.261   7.349  -2.648  0.00  0.00    +0.038 C 
ATOM     26  C   UNL     1      -4.279   7.934  -3.628  0.00  0.00    -0.032 C 
ATOM     27  C   UNL     1      -5.695   7.643  -3.127  0.00  0.00    +0.009 C 
ATOM     28  C   UNL     1      -4.085   7.296  -5.006  0.00  0.00    +0.011 C 
ATOM     29  C   UNL     1      -4.076   9.447  -3.733  0.00  0.00    +0.011 C 
ENDBRANCH  20  24
ENDBRANCH  19  20
ENDBRANCH  16  19
ENDBRANCH   1  16
TORSDOF 7
