REMARK  Name = ZINC11565884
REMARK  15 active torsions:
REMARK  status: ('A' for Active; 'I' for Inactive)
REMARK    1  A    between atoms: C_1  and  C_2
REMARK    2  A    between atoms: C_2  and  C_3
REMARK    3  A    between atoms: C_3  and  O_4
REMARK    4  A    between atoms: O_4  and  C_5
REMARK    5  A    between atoms: C_7  and  C_27
REMARK    6  A    between atoms: C_8  and  C_24
REMARK    7  A    between atoms: C_10  and  S_11
REMARK    8  A    between atoms: S_11  and  N_14
REMARK    9  A    between atoms: N_14  and  C_15
REMARK   10  A    between atoms: C_17  and  C_22
REMARK   11  A    between atoms: C_17  and  C_23
REMARK   12  A    between atoms: C_18  and  C_20
REMARK   13  A    between atoms: C_18  and  C_21
REMARK   14  A    between atoms: C_24  and  C_25
REMARK   15  A    between atoms: C_24  and  C_26
REMARK                            x       y       z     vdW  Elec       q    Type
REMARK                         _______ _______ _______ _____ _____    ______ ____
ROOT
ATOM      1  S   UNL     1       0.634   4.380  -3.885  0.00  0.00    +0.062 S 
ATOM      2  O   UNL     1       0.645   3.243  -3.033  0.00  0.00    -0.153 OA
ATOM      3  O   UNL     1       1.207   4.363  -5.186  0.00  0.00    -0.153 OA
ENDROOT
BRANCH   1   9
ATOM      4  C   UNL     1       1.057   5.961  -1.695  0.00  0.00    +0.147 A 
ATOM      5  C   UNL     1       1.686   6.985  -1.001  0.00  0.00    +0.051 A 
ATOM      6  C   UNL     1       2.682   7.722  -1.612  0.00  0.00    -0.043 A 
ATOM      7  C   UNL     1       3.052   7.440  -2.915  0.00  0.00    -0.040 A 
ATOM      8  C   UNL     1       2.430   6.417  -3.606  0.00  0.00    +0.036 A 
ATOM      9  C   UNL     1       1.430   5.680  -3.001  0.00  0.00    +0.147 A 
ATOM     10  C   UNL     1       3.365   8.834  -0.860  0.00  0.00    +0.044 C 
BRANCH   7  11
ATOM     11  C   UNL     1       4.138   8.245  -3.579  0.00  0.00    +0.013 C 
ATOM     12  C   UNL     1       5.225   7.303  -4.101  0.00  0.00    +0.012 C 
ATOM     13  C   UNL     1       3.545   9.036  -4.747  0.00  0.00    +0.012 C 
ENDBRANCH   7  11
BRANCH   4  14
ATOM     14  O   UNL     1       0.077   5.234  -1.096  0.00  0.00    -0.490 OA
BRANCH  14  15
ATOM     15  C   UNL     1      -0.332   5.649   0.209  0.00  0.00    +0.229 C 
BRANCH  15  17
ATOM     16  C   UNL     1      -1.892   5.169   2.101  0.00  0.00    +0.007 C 
ATOM     17  C   UNL     1      -1.363   4.661   0.758  0.00  0.00    +0.038 C 
ENDBRANCH  15  17
ENDBRANCH  14  15
ENDBRANCH   4  14
ENDBRANCH   1   9
BRANCH   1  18
ATOM     18  N   UNL     1      -0.953   4.816  -4.073  0.00  0.00    -0.187 NA
ATOM     19  H   UNL     1      -1.653   4.288  -3.658  0.00  0.00    +0.148 HD
BRANCH  18  20
ATOM     20  C   UNL     1      -1.300   6.001  -4.867  0.00  0.00    +0.074 C 
ATOM     21  C   UNL     1      -2.506   6.694  -4.235  0.00  0.00    +0.007 C 
ATOM     22  C   UNL     1      -2.903   7.921  -5.054  0.00  0.00    -0.072 C 
ATOM     23  C   UNL     1      -2.064   6.777  -7.127  0.00  0.00    -0.072 C 
ATOM     24  C   UNL     1      -1.676   5.566  -6.283  0.00  0.00    +0.007 C 
ATOM     25  C   UNL     1      -2.704   6.250  -8.431  0.00  0.00    -0.010 C 
ATOM     26  C   UNL     1      -0.802   7.552  -7.522  0.00  0.00    -0.010 C 
ATOM     27  C   UNL     1      -1.902   9.054  -4.797  0.00  0.00    -0.010 C 
ATOM     28  C   UNL     1      -4.278   8.399  -4.538  0.00  0.00    -0.010 C 
ATOM     29  N   UNL     1      -3.081   7.671  -6.510  0.00  0.00    +0.386 N 
ATOM     30  H   UNL     1      -3.045   8.575  -6.994  0.00  0.00    -0.084 HD
ATOM     31  H   UNL     1      -4.005   7.245  -6.648  0.00  0.00    -0.084 HD
ENDBRANCH  18  20
ENDBRANCH   1  18
TORSDOF 7
