REMARK  Name = ZINC19291885
REMARK  4 active torsions:
REMARK  status: ('A' for Active; 'I' for Inactive)
REMARK    1  A    between atoms: C_2  and  C_9
REMARK    2  A    between atoms: C_11  and  N_18
REMARK    3  A    between atoms: N_18  and  C_19
REMARK    4  A    between atoms: C_19  and  C_20
REMARK                            x       y       z     vdW  Elec       q    Type
REMARK                         _______ _______ _______ _____ _____    ______ ____
ROOT
ATOM      1  C   UNL     1       2.450   4.208   0.002  0.00  0.00    +0.089 C 
ATOM      2  C   UNL     1       2.743   4.689  -1.420  0.00  0.00    -0.046 C 
ATOM      3  C   UNL     1       3.935   5.654  -1.375  0.00  0.00    -0.004 C 
ATOM      4  C   UNL     1       3.503   6.923  -0.636  0.00  0.00    +0.094 C 
ATOM      5  C   UNL     1       2.825   6.557   0.653  0.00  0.00    +0.213 C 
ATOM      6  O   UNL     1       2.712   7.413   1.505  0.00  0.00    -0.276 OA
ATOM      7  N   UNL     1       2.342   5.341   0.912  0.00  0.00    -0.310 N 
ATOM      8  H   UNL     1       1.836   5.221   1.882  0.00  0.00    +0.149 HD
ENDROOT
BRANCH   1  10
ATOM      9  C   UNL     1       1.173   2.056   0.002  0.00  0.00    +0.044 A 
ATOM     10  C   UNL     1       1.155   3.438   0.009  0.00  0.00    -0.023 A 
ATOM     11  C   UNL     1      -0.051   4.114   0.025  0.00  0.00    +0.044 A 
ATOM     12  C   UNL     1      -1.241   3.407   0.032  0.00  0.00    +0.126 A 
ATOM     13  C   UNL     1      -1.224   2.023   0.019  0.00  0.00    +0.076 A 
ATOM     14  C   UNL     1      -0.016   1.347   0.009  0.00  0.00    +0.126 A 
ATOM     15  F   UNL     1       0.002  -0.004   0.002  0.00  0.00    -0.205 F 
ATOM     16  F   UNL     1      -2.419   4.068   0.046  0.00  0.00    -0.205 F 
ENDBRANCH   1  10
BRANCH   2  17
ATOM     17  N   UNL     1       3.068   3.538  -2.273  0.00  0.00    +0.383 N 
ATOM     18  H   UNL     1       4.137   3.299  -2.174  0.00  0.00    -0.085 HD
ATOM     19  H   UNL     1       2.468   2.671  -1.962  0.00  0.00    -0.085 HD
BRANCH  17  20
ATOM     20  C   UNL     1       2.779   3.830  -3.683  0.00  0.00    -0.076 C 
BRANCH  20  21
ATOM     21  C   UNL     1       3.129   2.611  -4.538  0.00  0.00    -0.000 C 
ATOM     22  C   UNL     1       2.852   2.891  -6.041  0.00  0.00    +0.032 C 
ATOM     23  C   UNL     1       3.881   1.946  -6.711  0.00  0.00    +0.160 C 
ATOM     24  O   UNL     1       5.036   1.983  -5.858  0.00  0.00    -0.380 OA
ATOM     25  C   UNL     1       4.651   2.352  -4.529  0.00  0.00    +0.161 C 
ENDBRANCH  20  21
ENDBRANCH  17  20
ENDBRANCH   2  17
TORSDOF 4
