REMARK  Name = ZINC06127580
REMARK  9 active torsions:
REMARK  status: ('A' for Active; 'I' for Inactive)
REMARK    1  A    between atoms: C_1  and  O_2
REMARK    2  A    between atoms: O_2  and  C_3
REMARK    3  A    between atoms: C_6  and  C_9
REMARK    4  A    between atoms: N_10  and  N_11
REMARK    5  A    between atoms: C_12  and  C_14
REMARK    6  A    between atoms: C_14  and  S_15
REMARK    7  A    between atoms: S_15  and  C_16
REMARK    8  A    between atoms: C_19  and  C_22
REMARK    9  A    between atoms: N_20  and  N_21
REMARK                            x       y       z     vdW  Elec       q    Type
REMARK                         _______ _______ _______ _____ _____    ______ ____
ROOT
ATOM      1  C   UNL     1       3.879  -6.421  -6.763  0.00  0.00    +0.174 C 
ENDROOT
BRANCH   1   3
ATOM      2  N   UNL     1       3.161  -4.407  -5.518  0.00  0.00    -0.206 N 
ATOM      3  C   UNL     1       3.210  -5.753  -5.590  0.00  0.00    +0.242 C 
ATOM      4  O   UNL     1       2.714  -6.425  -4.710  0.00  0.00    -0.273 OA
ATOM      5  H   UNL     1       3.557  -3.870  -6.222  0.00  0.00    +0.177 HD
BRANCH   2   7
ATOM      6  C   UNL     1       2.492  -2.491  -4.359  0.00  0.00    +0.138 C 
ATOM      7  N   UNL     1       2.539  -3.786  -4.428  0.00  0.00    -0.188 NA
BRANCH   6  11
ATOM      8  C   UNL     1       0.606  -0.607  -1.055  0.00  0.00    +0.120 A 
ATOM      9  C   UNL     1       1.172   0.165  -2.061  0.00  0.00    +0.046 A 
ATOM     10  C   UNL     1       1.786  -0.442  -3.135  0.00  0.00    +0.013 A 
ATOM     11  C   UNL     1       1.837  -1.837  -3.212  0.00  0.00    -0.005 A 
ATOM     12  C   UNL     1       1.266  -2.609  -2.197  0.00  0.00    +0.013 A 
ATOM     13  C   UNL     1       0.659  -1.993  -1.124  0.00  0.00    +0.046 A 
BRANCH   8  15
ATOM     14  C   UNL     1      -0.017   1.425   0.010  0.00  0.00    +0.277 C 
ATOM     15  O   UNL     1       0.002  -0.004   0.002  0.00  0.00    -0.495 OA
ENDBRANCH   8  15
ENDBRANCH   6  11
ENDBRANCH   2   7
ENDBRANCH   1   3
BRANCH   1  16
ATOM     16  S   UNL     1       3.780  -8.222  -6.569  0.00  0.00    -0.075 S 
BRANCH  16  17
ATOM     17  C   UNL     1       4.595  -8.850  -8.000  0.00  0.00    +0.209 A 
ATOM     18  N   UNL     1       5.143  -8.139  -8.960  0.00  0.00    -0.121 NA
ATOM     19  N   UNL     1       5.650  -8.915  -9.850  0.00  0.00    -0.127 NA
ATOM     20  C   UNL     1       5.458 -10.169  -9.512  0.00  0.00    +0.182 A 
ATOM     21  N   UNL     1       4.782 -10.166  -8.314  0.00  0.00    -0.224 N 
BRANCH  20  22
ATOM     22  C   UNL     1       5.891 -11.360 -10.273  0.00  0.00    +0.021 A 
ATOM     23  C   UNL     1       5.356 -12.615  -9.976  0.00  0.00    +0.011 A 
ATOM     24  C   UNL     1       5.764 -13.722 -10.690  0.00  0.00    +0.001 A 
ATOM     25  C   UNL     1       6.703 -13.591 -11.698  0.00  0.00    +0.000 A 
ATOM     26  C   UNL     1       7.238 -12.351 -11.997  0.00  0.00    +0.001 A 
ATOM     27  C   UNL     1       6.834 -11.235 -11.295  0.00  0.00    +0.011 A 
ENDBRANCH  20  22
BRANCH  21  28
ATOM     28  N   UNL     1       4.378 -11.252  -7.591  0.00  0.00    -0.295 N 
ATOM     29  H   UNL     1       3.452 -11.545  -7.864  0.00  0.00    +0.163 HD
ATOM     30  H   UNL     1       5.038 -12.011  -7.679  0.00  0.00    +0.163 HD
ENDBRANCH  21  28
ENDBRANCH  16  17
ENDBRANCH   1  16
TORSDOF 8
