REMARK  Name = ZINC12591491
REMARK  10 active torsions:
REMARK  status: ('A' for Active; 'I' for Inactive)
REMARK    1  A    between atoms: C_1  and  C_2
REMARK    2  A    between atoms: C_5  and  N_8
REMARK    3  A    between atoms: C_13  and  N_57
REMARK    4  A    between atoms: C_16  and  C_18
REMARK    5  A    between atoms: C_16  and  C_19
REMARK    6  A    between atoms: C_20  and  C_21
REMARK    7  A    between atoms: C_20  and  N_57
REMARK    8  A    between atoms: C_24  and  O_29
REMARK    9  A    between atoms: C_25  and  O_27
REMARK   10  A    between atoms: O_27  and  C_28
REMARK                            x       y       z     vdW  Elec       q    Type
REMARK                         _______ _______ _______ _____ _____    ______ ____
ROOT
ATOM      1  N   UNL     1      -1.000  -0.849   0.309  0.00  0.00    -0.237 N 
ATOM      2  C   UNL     1       0.038  -0.012   0.127  0.00  0.00    +0.047 A 
ATOM      3  C   UNL     1       1.109  -0.754  -0.256  0.00  0.00    -0.020 A 
ATOM      4  C   UNL     1       0.711  -2.088  -0.307  0.00  0.00    +0.137 A 
ATOM      5  N   UNL     1      -0.554  -2.150   0.031  0.00  0.00    -0.174 NA
ATOM      6  C   UNL     1       2.470  -0.180  -0.562  0.00  0.00    -0.037 C 
ATOM      7  C   UNL     1       2.320   1.332  -0.775  0.00  0.00    -0.005 C 
ATOM      8  C   UNL     1       1.530   1.936   0.389  0.00  0.00    -0.031 C 
ATOM      9  C   UNL     1       0.066   1.486   0.302  0.00  0.00    +0.062 C 
ATOM     10  C   UNL     1       1.599   3.462   0.315  0.00  0.00    +0.011 C 
ATOM     11  C   UNL     1       2.131   1.462   1.714  0.00  0.00    +0.011 C 
ENDROOT
BRANCH   1  16
ATOM     12  C   UNL     1      -6.242   0.621   1.914  0.00  0.00    +0.044 C 
ATOM     13  C   UNL     1      -4.850   0.230   1.488  0.00  0.00    -0.050 A 
ATOM     14  C   UNL     1      -4.171   1.000   0.561  0.00  0.00    +0.005 A 
ATOM     15  C   UNL     1      -2.895   0.645   0.168  0.00  0.00    +0.028 A 
ATOM     16  C   UNL     1      -2.294  -0.486   0.705  0.00  0.00    +0.066 A 
ATOM     17  C   UNL     1      -2.981  -1.260   1.631  0.00  0.00    +0.028 A 
ATOM     18  C   UNL     1      -4.254  -0.896   2.025  0.00  0.00    +0.005 A 
ENDBRANCH   1  16
BRANCH   6  19
ATOM     19  N   UNL     1       3.004  -0.796  -1.791  0.00  0.00    +0.386 N 
ATOM     20  H   UNL     1       3.677  -0.154  -2.227  0.00  0.00    -0.085 HD
ATOM     21  H   UNL     1       2.232  -0.977  -2.443  0.00  0.00    -0.085 HD
BRANCH  19  22
ATOM     22  C   UNL     1       3.680  -2.068  -1.474  0.00  0.00    -0.046 C 
BRANCH  22  23
ATOM     23  C   UNL     1       4.215  -2.673  -2.746  0.00  0.00    -0.061 A 
ATOM     24  C   UNL     1       5.493  -2.363  -3.174  0.00  0.00    +0.005 A 
ATOM     25  C   UNL     1       5.988  -2.916  -4.340  0.00  0.00    +0.049 A 
ATOM     26  C   UNL     1       5.204  -3.784  -5.083  0.00  0.00    +0.158 A 
ATOM     27  C   UNL     1       3.918  -4.097  -4.652  0.00  0.00    +0.161 A 
ATOM     28  C   UNL     1       3.430  -3.543  -3.480  0.00  0.00    +0.051 A 
BRANCH  27  29
ATOM     29  O   UNL     1       3.145  -4.948  -5.378  0.00  0.00    -0.491 OA
ATOM     30  C   UNL     1       1.836  -5.223  -4.875  0.00  0.00    +0.277 C 
ENDBRANCH  27  29
BRANCH  26  31
ATOM     31  O   UNL     1       5.690  -4.329  -6.230  0.00  0.00    -0.503 OA
ATOM     32  H   UNL     1       6.150  -5.169  -6.102  0.00  0.00    +0.292 HD
ENDBRANCH  26  31
ENDBRANCH  22  23
ENDBRANCH  19  22
ENDBRANCH   6  19
TORSDOF 6
