REMARK  Name = ZINC32548498
REMARK  5 active torsions:
REMARK  status: ('A' for Active; 'I' for Inactive)
REMARK    1  A    between atoms: C_1  and  C_2
REMARK    2  A    between atoms: C_4  and  S_8
REMARK    3  A    between atoms: C_5  and  C_7
REMARK    4  A    between atoms: S_8  and  O_11
REMARK    5  A    between atoms: O_11  and  C_12
REMARK                            x       y       z     vdW  Elec       q    Type
REMARK                         _______ _______ _______ _____ _____    ______ ____
ROOT
ATOM      1  S   UNL     1      -2.106  -3.397  -0.007  0.00  0.00    +0.152 S 
ATOM      2  O   UNL     1      -2.637  -3.587  -1.311  0.00  0.00    -0.131 OA
ATOM      3  O   UNL     1      -1.551  -4.463   0.752  0.00  0.00    -0.131 OA
ENDROOT
BRANCH   1   7
ATOM      4  C   UNL     1      -0.267   1.593  -0.173  0.00  0.00    +0.051 C 
ATOM      5  C   UNL     1      -0.177   0.089  -0.203  0.00  0.00    -0.011 A 
ATOM      6  C   UNL     1      -1.168  -0.828  -0.091  0.00  0.00    +0.041 A 
ATOM      7  C   UNL     1      -0.848  -2.171  -0.149  0.00  0.00    +0.138 A 
ATOM      8  C   UNL     1       0.448  -2.532  -0.316  0.00  0.00    +0.015 A 
ATOM      9  S   UNL     1       1.264  -0.946  -0.404  0.00  0.00    -0.097 S 
ATOM     10  C   UNL     1       1.044  -3.913  -0.408  0.00  0.00    +0.053 C 
ENDBRANCH   1   7
BRANCH   1  11
ATOM     11  O   UNL     1      -3.224  -2.799   0.835  0.00  0.00    -0.342 OA
BRANCH  11  12
ATOM     12  C   UNL     1      -2.947  -2.747   2.165  0.00  0.00    +0.157 A 
ATOM     13  C   UNL     1      -3.179  -3.856   2.966  0.00  0.00    +0.050 A 
ATOM     14  C   UNL     1      -2.897  -3.801   4.317  0.00  0.00    +0.019 A 
ATOM     15  C   UNL     1      -2.385  -2.641   4.871  0.00  0.00    +0.018 A 
ATOM     16  C   UNL     1      -2.154  -1.535   4.074  0.00  0.00    +0.019 A 
ATOM     17  C   UNL     1      -2.428  -1.587   2.721  0.00  0.00    +0.050 A 
ATOM     18 BR   UNL     1      -2.000  -2.569   6.721  0.00  0.00    -0.050 Br
ENDBRANCH  11  12
ENDBRANCH   1  11
TORSDOF 3
