REMARK  Name = ZINC52004815
REMARK  5 active torsions:
REMARK  status: ('A' for Active; 'I' for Inactive)
REMARK    1  A    between atoms: C_3  and  C_21
REMARK    2  A    between atoms: C_4  and  S_8
REMARK    3  A    between atoms: S_8  and  N_11
REMARK    4  A    between atoms: N_11  and  C_12
REMARK    5  A    between atoms: C_18  and  O_20
REMARK                            x       y       z     vdW  Elec       q    Type
REMARK                         _______ _______ _______ _____ _____    ______ ____
ROOT
ATOM      1  S   UNL     1       4.077  -0.902   0.011  0.00  0.00    +0.060 S 
ATOM      2  O   UNL     1       5.084  -0.408   0.883  0.00  0.00    -0.153 OA
ATOM      3  O   UNL     1       3.630  -2.250   0.048  0.00  0.00    -0.153 OA
ENDROOT
BRANCH   1   7
ATOM      4  C   UNL     1       0.413   1.695   0.661  0.00  0.00    +0.021 A 
ATOM      5  C   UNL     1       0.373   0.688  -0.281  0.00  0.00    +0.022 A 
ATOM      6  C   UNL     1       1.497  -0.115  -0.487  0.00  0.00    +0.078 A 
ATOM      7  C   UNL     1       2.654   0.107   0.263  0.00  0.00    +0.124 A 
ATOM      8  C   UNL     1       2.681   1.116   1.202  0.00  0.00    +0.049 A 
ATOM      9  C   UNL     1       1.563   1.910   1.401  0.00  0.00    +0.043 A 
ATOM     10 CL   UNL     1       1.605   3.179   2.585  0.00  0.00    -0.083 Cl
BRANCH   6  11
ATOM     11  C   UNL     1       1.462  -1.162  -1.463  0.00  0.00    +0.101 C 
ATOM     12  N   UNL     1       1.435  -1.993  -2.237  0.00  0.00    -0.191 NA
ENDBRANCH   6  11
ENDBRANCH   1   7
BRANCH   1  13
ATOM     13  N   UNL     1       4.608  -0.622  -1.533  0.00  0.00    -0.184 NA
ATOM     14  H   UNL     1       4.577  -1.332  -2.193  0.00  0.00    +0.148 HD
BRANCH  13  15
ATOM     15  C   UNL     1       5.125   0.699  -1.901  0.00  0.00    +0.105 C 
ATOM     16  C   UNL     1       4.012   1.516  -2.560  0.00  0.00    +0.023 C 
ATOM     17  C   UNL     1       4.551   2.895  -2.945  0.00  0.00    +0.002 C 
ATOM     18  C   UNL     1       5.714   2.732  -3.926  0.00  0.00    +0.003 C 
ATOM     19  C   UNL     1       6.827   1.915  -3.267  0.00  0.00    +0.033 C 
ATOM     20  C   UNL     1       6.287   0.536  -2.882  0.00  0.00    +0.133 C 
BRANCH  20  21
ATOM     21  O   UNL     1       7.327  -0.228  -2.267  0.00  0.00    -0.390 OA
ATOM     22  H   UNL     1       8.097  -0.371  -2.833  0.00  0.00    +0.210 HD
ENDBRANCH  20  21
ENDBRANCH  13  15
ENDBRANCH   1  13
TORSDOF 5
