REMARK  Name = ZINC35369265
REMARK  6 active torsions:
REMARK  status: ('A' for Active; 'I' for Inactive)
REMARK    1  A    between atoms: C_4  and  C_7
REMARK    2  A    between atoms: C_7  and  C_8
REMARK    3  A    between atoms: C_8  and  C_9
REMARK    4  A    between atoms: C_9  and  N_10
REMARK    5  A    between atoms: N_13  and  S_16
REMARK    6  A    between atoms: S_16  and  C_19
REMARK                            x       y       z     vdW  Elec       q    Type
REMARK                         _______ _______ _______ _____ _____    ______ ____
ROOT
ATOM      1  N   UNL     1       5.948  -1.956   2.760  0.00  0.00    -0.300 NA
ATOM      2  C   UNL     1       6.255  -0.695   3.448  0.00  0.00    +0.101 C 
ATOM      3  C   UNL     1       6.535  -0.978   4.928  0.00  0.00    +0.125 C 
ATOM      4  N   UNL     1       7.584  -2.005   5.016  0.00  0.00    -0.174 NA
ATOM      5  C   UNL     1       7.412  -3.244   4.243  0.00  0.00    +0.125 C 
ATOM      6  C   UNL     1       7.097  -2.871   2.790  0.00  0.00    +0.101 C 
ENDROOT
BRANCH   4   7
ATOM      7  S   UNL     1       8.923  -1.773   5.962  0.00  0.00    +0.061 S 
ATOM      8  O   UNL     1       9.946  -2.603   5.429  0.00  0.00    -0.153 OA
ATOM      9  O   UNL     1       9.080  -0.368   6.105  0.00  0.00    -0.153 OA
BRANCH   7  10
ATOM     10  C   UNL     1       8.546  -2.403   7.563  0.00  0.00    +0.106 A 
ATOM     11  C   UNL     1       7.976  -1.577   8.515  0.00  0.00    +0.030 A 
ATOM     12  C   UNL     1       7.680  -2.071   9.771  0.00  0.00    +0.022 A 
ATOM     13  C   UNL     1       7.954  -3.393  10.077  0.00  0.00    +0.041 A 
ATOM     14  C   UNL     1       8.523  -4.219   9.124  0.00  0.00    +0.022 A 
ATOM     15  C   UNL     1       8.814  -3.725   7.866  0.00  0.00    +0.030 A 
ATOM     16 CL   UNL     1       7.582  -4.014  11.655  0.00  0.00    -0.084 Cl
ENDBRANCH   7  10
ENDBRANCH   4   7
BRANCH   1  17
ATOM     17  C   UNL     1       5.507  -1.710   1.381  0.00  0.00    +0.085 C 
BRANCH  17  18
ATOM     18  C   UNL     1       4.171  -0.963   1.399  0.00  0.00    +0.020 C 
BRANCH  18  19
ATOM     19  C   UNL     1       3.711  -0.707  -0.038  0.00  0.00    +0.036 C 
BRANCH  19  23
ATOM     20  C   UNL     1      -0.017   1.378   0.010  0.00  0.00    +0.000 A 
ATOM     21  C   UNL     1       1.171   2.086   0.002  0.00  0.00    +0.000 A 
ATOM     22  C   UNL     1       2.377   1.411  -0.013  0.00  0.00    +0.003 A 
ATOM     23  C   UNL     1       2.396   0.029  -0.020  0.00  0.00    -0.047 A 
ATOM     24  C   UNL     1       1.208  -0.679  -0.012  0.00  0.00    +0.003 A 
ATOM     25  C   UNL     1       0.002  -0.004   0.002  0.00  0.00    +0.000 A 
ENDBRANCH  19  23
ENDBRANCH  18  19
ENDBRANCH  17  18
ENDBRANCH   1  17
TORSDOF 6
