REMARK  Name = ZINC34906295
REMARK  14 active torsions:
REMARK  status: ('A' for Active; 'I' for Inactive)
REMARK    1  A    between atoms: C_1  and  C_2
REMARK    2  A    between atoms: C_2  and  O_3
REMARK    3  A    between atoms: O_3  and  C_4
REMARK    4  A    between atoms: C_4  and  C_6
REMARK    5  A    between atoms: C_6  and  N_7
REMARK    6  A    between atoms: N_10  and  C_11
REMARK    7  A    between atoms: C_17  and  N_19
REMARK    8  A    between atoms: C_20  and  C_22
REMARK    9  A    between atoms: C_25  and  C_27
REMARK   10  A    between atoms: C_27  and  O_28
REMARK   11  A    between atoms: O_28  and  C_29
REMARK   12  A    between atoms: C_32  and  C_35
REMARK   13  A    between atoms: C_35  and  C_36
REMARK   14  A    between atoms: C_35  and  C_37
REMARK                            x       y       z     vdW  Elec       q    Type
REMARK                         _______ _______ _______ _____ _____    ______ ____
ROOT
ATOM      1  N   UNL     1       1.904  -8.779   3.334  0.00  0.00    -0.305 N 
ATOM      2  C   UNL     1       2.015  -9.721   2.377  0.00  0.00    +0.263 C 
ATOM      3  O   UNL     1       3.107  -9.993   1.916  0.00  0.00    -0.269 OA
ATOM      4  H   UNL     1       1.033  -8.562   3.702  0.00  0.00    +0.149 HD
ENDROOT
BRANCH   1  10
ATOM      5  C   UNL     1       2.699  -6.716   4.381  0.00  0.00    +0.095 C 
ATOM      6  C   UNL     1       1.716  -6.908   5.538  0.00  0.00    +0.024 C 
ATOM      7  C   UNL     1       2.380  -7.739   6.638  0.00  0.00    +0.002 C 
ATOM      8  C   UNL     1       2.779  -9.104   6.076  0.00  0.00    +0.002 C 
ATOM      9  C   UNL     1       3.762  -8.912   4.919  0.00  0.00    +0.024 C 
ATOM     10  C   UNL     1       3.098  -8.082   3.819  0.00  0.00    +0.093 C 
BRANCH   5  14
ATOM     11  N   UNL     1       1.497  -3.844   2.426  0.00  0.00    -0.289 N 
ATOM     12  C   UNL     1       2.081  -4.575   3.395  0.00  0.00    +0.300 C 
ATOM     13  O   UNL     1       2.624  -4.021   4.332  0.00  0.00    -0.253 OA
ATOM     14  N   UNL     1       2.064  -5.921   3.327  0.00  0.00    -0.295 N 
ATOM     15  H   UNL     1       1.064  -4.286   1.679  0.00  0.00    +0.151 HD
ATOM     16  H   UNL     1       1.631  -6.363   2.580  0.00  0.00    +0.151 HD
BRANCH  11  17
ATOM     17  C   UNL     1       1.516  -2.381   2.500  0.00  0.00    +0.226 C 
BRANCH  17  18
ATOM     18  C   UNL     1       0.801  -1.808   1.304  0.00  0.00    +0.324 C 
ATOM     19  O   UNL     1       0.324  -2.546   0.475  0.00  0.00    -0.249 OA
BRANCH  18  20
ATOM     20  O   UNL     1       0.693  -0.477   1.160  0.00  0.00    -0.464 OA
BRANCH  20  22
ATOM     21  C   UNL     1      -0.019   1.526   0.010  0.00  0.00    +0.048 C 
ATOM     22  C   UNL     1       0.002  -0.004   0.002  0.00  0.00    +0.229 C 
ENDBRANCH  20  22
ENDBRANCH  18  20
ENDBRANCH  17  18
ENDBRANCH  11  17
ENDBRANCH   5  14
ENDBRANCH   1  10
BRANCH   2  23
ATOM     23  C   UNL     1       0.815 -10.421   1.890  0.00  0.00    +0.133 A 
ATOM     24  C   UNL     1       0.882 -11.388   0.923  0.00  0.00    +0.080 A 
ATOM     25  S   UNL     1      -0.727 -11.840   0.751  0.00  0.00    -0.076 S 
ATOM     26  C   UNL     1      -1.420 -10.813   1.883  0.00  0.00    +0.116 A 
ATOM     27  N   UNL     1      -0.404 -10.154   2.370  0.00  0.00    -0.236 NA
BRANCH  26  28
ATOM     28  C   UNL     1      -2.875 -10.686   2.256  0.00  0.00    +0.291 C 
BRANCH  28  29
ATOM     29  O   UNL     1      -3.497  -9.707   1.422  0.00  0.00    -0.485 OA
BRANCH  29  30
ATOM     30  C   UNL     1      -4.819  -9.469   1.629  0.00  0.00    +0.121 A 
ATOM     31  C   UNL     1      -5.502 -10.161   2.619  0.00  0.00    +0.046 A 
ATOM     32  C   UNL     1      -6.845  -9.917   2.828  0.00  0.00    +0.007 A 
ATOM     33  C   UNL     1      -7.509  -8.986   2.052  0.00  0.00    -0.045 A 
ATOM     34  C   UNL     1      -6.831  -8.296   1.064  0.00  0.00    +0.007 A 
ATOM     35  C   UNL     1      -5.486  -8.531   0.855  0.00  0.00    +0.046 A 
BRANCH  33  36
ATOM     36  C   UNL     1      -8.975  -8.722   2.282  0.00  0.00    +0.013 C 
ATOM     37  C   UNL     1      -9.177  -7.252   2.652  0.00  0.00    +0.012 C 
ATOM     38  C   UNL     1      -9.757  -9.038   1.005  0.00  0.00    +0.012 C 
ENDBRANCH  33  36
ENDBRANCH  29  30
ENDBRANCH  28  29
ENDBRANCH  26  28
ENDBRANCH   2  23
TORSDOF 11
