REMARK  Name = ZINC61585406
REMARK  3 active torsions:
REMARK  status: ('A' for Active; 'I' for Inactive)
REMARK    1  A    between atoms: C_8  and  C_10
REMARK    2  A    between atoms: C_11  and  C_12
REMARK    3  A    between atoms: C_17  and  C_20
REMARK                            x       y       z     vdW  Elec       q    Type
REMARK                         _______ _______ _______ _____ _____    ______ ____
ROOT
ATOM      1  C   UNL     1       3.115  -3.964  -0.058  0.00  0.00    +0.021 C 
ATOM      2  C   UNL     1       4.435  -4.269  -0.066  0.00  0.00    +0.068 C 
ENDROOT
BRANCH   1  10
ATOM      3  C   UNL     1      -0.018   1.353  -0.016  0.00  0.00    +0.001 A 
ATOM      4  C   UNL     1       1.156   2.098  -0.018  0.00  0.00    +0.001 A 
ATOM      5  C   UNL     1       2.374   1.448  -0.028  0.00  0.00    +0.016 A 
ATOM      6  C   UNL     1       2.409   0.070  -0.035  0.00  0.00    +0.021 A 
ATOM      7  C   UNL     1       1.230  -0.714  -0.032  0.00  0.00    +0.008 A 
ATOM      8  C   UNL     1       0.001  -0.005  -0.022  0.00  0.00    +0.010 A 
ATOM      9  C   UNL     1       1.431  -2.106  -0.040  0.00  0.00    +0.063 A 
ATOM     10  C   UNL     1       2.701  -2.608  -0.049  0.00  0.00    +0.032 A 
ATOM     11  S   UNL     1       3.710  -1.137  -0.047  0.00  0.00    -0.087 S 
ATOM     12 CL   UNL     1       0.069  -3.183  -0.037  0.00  0.00    -0.082 Cl
ENDBRANCH   1  10
BRANCH   2  13
ATOM     13  C   UNL     1       4.849  -5.624  -0.075  0.00  0.00    +0.239 C 
ATOM     14  O   UNL     1       4.023  -6.514   0.022  0.00  0.00    -0.271 OA
ATOM     15  N   UNL     1       6.157  -5.928  -0.191  0.00  0.00    -0.298 N 
ATOM     16  C   UNL     1       6.591  -7.326  -0.320  0.00  0.00    +0.109 C 
ATOM     17  C   UNL     1       7.473  -7.455  -1.566  0.00  0.00    +0.037 C 
ATOM     18  C   UNL     1       8.620  -6.445  -1.481  0.00  0.00    +0.094 C 
ATOM     19  C   UNL     1       8.050  -5.025  -1.437  0.00  0.00    +0.037 C 
ATOM     20  C   UNL     1       7.174  -4.869  -0.196  0.00  0.00    +0.109 C 
BRANCH  18  21
ATOM     21  C   UNL     1       9.489  -6.588  -2.661  0.00  0.00    +0.066 C 
ATOM     22  N   UNL     1      10.159  -6.699  -3.571  0.00  0.00    -0.196 NA
ENDBRANCH  18  21
ENDBRANCH   2  13
TORSDOF 3
