REMARK  Name = ZINC44914949
REMARK  5 active torsions:
REMARK  status: ('A' for Active; 'I' for Inactive)
REMARK    1  A    between atoms: C_1  and  S_2
REMARK    2  A    between atoms: S_2  and  N_5
REMARK    3  A    between atoms: C_7  and  C_16
REMARK    4  A    between atoms: N_18  and  C_19
REMARK    5  A    between atoms: C_24  and  C_25
REMARK                            x       y       z     vdW  Elec       q    Type
REMARK                         _______ _______ _______ _____ _____    ______ ____
ROOT
ATOM      1  C   UNL     1      -0.614  -0.434  -5.007  0.00  0.00    +0.260 C 
ATOM      2  O   UNL     1      -0.202  -1.188  -5.863  0.00  0.00    -0.271 OA
ATOM      3  N   UNL     1      -1.851   0.091  -5.111  0.00  0.00    -0.282 N 
ATOM      4  H   UNL     1      -2.162   0.734  -4.454  0.00  0.00    +0.155 HD
ENDROOT
BRANCH   1   7
ATOM      5  N   UNL     1       0.527  -0.302  -1.425  0.00  0.00    -0.200 N 
ATOM      6  C   UNL     1      -0.379  -0.628  -2.540  0.00  0.00    +0.185 C 
ATOM      7  C   UNL     1       0.256  -0.085  -3.828  0.00  0.00    +0.278 C 
ATOM      8  O   UNL     1       1.547  -0.677  -3.990  0.00  0.00    -0.476 OA
ATOM      9  C   UNL     1       2.391  -0.657  -2.924  0.00  0.00    +0.144 A 
ATOM     10  C   UNL     1       1.905  -0.468  -1.634  0.00  0.00    +0.093 A 
ATOM     11  C   UNL     1       2.778  -0.449  -0.559  0.00  0.00    +0.028 A 
ATOM     12  C   UNL     1       4.135  -0.610  -0.770  0.00  0.00    +0.002 A 
ATOM     13  C   UNL     1       4.620  -0.790  -2.052  0.00  0.00    +0.004 A 
ATOM     14  C   UNL     1       3.753  -0.822  -3.124  0.00  0.00    +0.047 A 
BRANCH   5  16
ATOM     15  C   UNL     1      -0.113  -1.218   1.091  0.00  0.00    +0.218 C 
ATOM     16  S   UNL     1      -0.060   0.248   0.023  0.00  0.00    +0.043 S 
ATOM     17  O   UNL     1      -1.379   0.691  -0.266  0.00  0.00    -0.155 OA
ATOM     18  O   UNL     1       0.925   1.159   0.490  0.00  0.00    -0.155 OA
ENDBRANCH   5  16
ENDBRANCH   1   7
BRANCH   3  19
ATOM     19  C   UNL     1      -2.686  -0.291  -6.164  0.00  0.00    +0.041 A 
ATOM     20  C   UNL     1      -2.141  -0.673  -7.381  0.00  0.00    +0.024 A 
ATOM     21  C   UNL     1      -2.968  -1.050  -8.422  0.00  0.00    +0.002 A 
ATOM     22  C   UNL     1      -4.343  -1.048  -8.258  0.00  0.00    +0.001 A 
ATOM     23  C   UNL     1      -4.899  -0.670  -7.053  0.00  0.00    +0.010 A 
ATOM     24  C   UNL     1      -4.075  -0.293  -5.994  0.00  0.00    +0.003 A 
BRANCH  24  25
ATOM     25  C   UNL     1      -4.668   0.108  -4.696  0.00  0.00    -0.016 A 
ATOM     26  C   UNL     1      -4.196  -0.451  -3.509  0.00  0.00    +0.008 A 
ATOM     27  C   UNL     1      -4.751  -0.073  -2.303  0.00  0.00    +0.001 A 
ATOM     28  C   UNL     1      -5.773   0.859  -2.271  0.00  0.00    +0.000 A 
ATOM     29  C   UNL     1      -6.245   1.417  -3.445  0.00  0.00    +0.001 A 
ATOM     30  C   UNL     1      -5.694   1.051  -4.656  0.00  0.00    +0.008 A 
ENDBRANCH  24  25
ENDBRANCH   3  19
TORSDOF 4
