REMARK  Name = ZINC09503529
REMARK  4 active torsions:
REMARK  status: ('A' for Active; 'I' for Inactive)
REMARK    1  A    between atoms: C_10  and  C_11
REMARK    2  A    between atoms: C_11  and  C_12
REMARK    3  A    between atoms: N_14  and  C_15
REMARK    4  A    between atoms: C_15  and  C_16
REMARK                            x       y       z     vdW  Elec       q    Type
REMARK                         _______ _______ _______ _____ _____    ______ ____
ROOT
ATOM      1  C   UNL     1      -5.336  10.389   0.105  0.00  0.00    +0.218 C 
ATOM      2  O   UNL     1      -4.621  11.368   0.102  0.00  0.00    -0.275 OA
ATOM      3  N   UNL     1      -4.791   9.156   0.094  0.00  0.00    -0.306 N 
ATOM      4  H   UNL     1      -5.363   8.373   0.096  0.00  0.00    +0.149 HD
ENDROOT
BRANCH   1   5
ATOM      5  C   UNL     1      -6.835  10.549   0.120  0.00  0.00    +0.131 C 
BRANCH   5  15
ATOM      6  C   UNL     1      -7.408  14.192  -3.429  0.00  0.00    +0.001 A 
ATOM      7  C   UNL     1      -7.084  12.837  -3.459  0.00  0.00    +0.001 A 
ATOM      8  C   UNL     1      -7.005  12.111  -2.311  0.00  0.00    +0.009 A 
ATOM      9  C   UNL     1      -7.249  12.734  -1.075  0.00  0.00    -0.014 A 
ATOM     10  C   UNL     1      -7.582  14.111  -1.045  0.00  0.00    -0.018 A 
ATOM     11  C   UNL     1      -7.654  14.829  -2.252  0.00  0.00    +0.008 A 
ATOM     12  C   UNL     1      -7.830  14.734   0.190  0.00  0.00    +0.008 A 
ATOM     13  C   UNL     1      -7.752  14.007   1.338  0.00  0.00    +0.001 A 
ATOM     14  C   UNL     1      -7.429  12.652   1.309  0.00  0.00    +0.005 A 
ATOM     15  C   UNL     1      -7.183  12.015   0.131  0.00  0.00    -0.031 A 
ENDBRANCH   5  15
ENDBRANCH   1   5
BRANCH   3  16
ATOM     16  C   UNL     1      -3.334   9.000   0.079  0.00  0.00    +0.200 C 
BRANCH  16  17
ATOM     17  C   UNL     1      -2.987   7.534   0.068  0.00  0.00    +0.236 C 
ATOM     18  O   UNL     1      -3.869   6.701   0.073  0.00  0.00    -0.274 OA
ATOM     19  N   UNL     1      -1.695   7.147   0.054  0.00  0.00    -0.263 N 
ATOM     20  C   UNL     1      -1.376   5.799   0.044  0.00  0.00    +0.165 A 
ATOM     21  N   UNL     1      -0.191   5.234   0.030  0.00  0.00    -0.225 NA
ATOM     22  C   UNL     1      -0.026   3.894   0.022  0.00  0.00    +0.080 A 
ATOM     23  C   UNL     1       1.185   3.163   0.007  0.00  0.00    +0.029 A 
ATOM     24  C   UNL     1       1.175   1.793   0.001  0.00  0.00    +0.002 A 
ATOM     25  C   UNL     1      -0.013   1.076   0.008  0.00  0.00    +0.001 A 
ATOM     26  C   UNL     1      -1.215   1.758   0.017  0.00  0.00    +0.017 A 
ATOM     27  C   UNL     1      -1.216   3.131   0.029  0.00  0.00    +0.041 A 
ATOM     28  S   UNL     1      -2.471   4.387   0.048  0.00  0.00    -0.052 S 
ATOM     29  H   UNL     1      -0.990   7.813   0.050  0.00  0.00    +0.157 HD
ENDBRANCH  16  17
ENDBRANCH   3  16
TORSDOF 4
