REMARK  Name = ZINC09263215
REMARK  6 active torsions:
REMARK  status: ('A' for Active; 'I' for Inactive)
REMARK    1  A    between atoms: C_1  and  C_2
REMARK    2  A    between atoms: C_6  and  C_8
REMARK    3  A    between atoms: C_8  and  N_9
REMARK    4  A    between atoms: C_11  and  C_18
REMARK    5  A    between atoms: N_25  and  C_28
REMARK    6  A    between atoms: C_33  and  C_34
REMARK                            x       y       z     vdW  Elec       q    Type
REMARK                         _______ _______ _______ _____ _____    ______ ____
ROOT
ATOM      1  C   UNL     1       1.476   7.085  -4.337  0.00  0.00    +0.028 C 
ATOM      2  C   UNL     1       2.604   7.832  -4.023  0.00  0.00    +0.100 C 
ATOM      3  C   UNL     1       3.453   8.420  -5.074  0.00  0.00    +0.255 C 
ATOM      4  O   UNL     1       3.188   8.267  -6.251  0.00  0.00    -0.270 OA
ATOM      5  N   UNL     1       4.534   9.134  -4.695  0.00  0.00    -0.263 N 
ATOM      6  C   UNL     1       4.838   9.311  -3.401  0.00  0.00    +0.150 C 
ATOM      7  S   UNL     1       6.229  10.231  -3.014  0.00  0.00    -0.018 S 
ATOM      8  N   UNL     1       4.111   8.805  -2.395  0.00  0.00    -0.217 N 
ATOM      9  C   UNL     1       3.001   8.075  -2.625  0.00  0.00    +0.262 C 
ATOM     10  O   UNL     1       2.346   7.625  -1.703  0.00  0.00    -0.269 OA
ATOM     11  H   UNL     1       5.103   9.528  -5.374  0.00  0.00    +0.157 HD
ENDROOT
BRANCH   1  14
ATOM     12  N   UNL     1       0.389   5.079  -1.558  0.00  0.00    -0.342 N 
ATOM     13  C   UNL     1       1.361   5.593  -2.335  0.00  0.00    +0.095 A 
ATOM     14  C   UNL     1       0.796   6.377  -3.325  0.00  0.00    +0.001 A 
ATOM     15  C   UNL     1      -0.664   6.327  -3.104  0.00  0.00    +0.007 A 
ATOM     16  C   UNL     1      -0.854   5.500  -1.986  0.00  0.00    +0.050 A 
ATOM     17  C   UNL     1      -2.146   5.259  -1.530  0.00  0.00    +0.026 A 
ATOM     18  C   UNL     1      -3.222   5.830  -2.176  0.00  0.00    +0.002 A 
ATOM     19  C   UNL     1      -3.031   6.646  -3.280  0.00  0.00    +0.001 A 
ATOM     20  C   UNL     1      -1.758   6.897  -3.747  0.00  0.00    +0.010 A 
BRANCH  12  21
ATOM     21  C   UNL     1       0.620   4.198  -0.411  0.00  0.00    +0.157 C 
BRANCH  21  27
ATOM     22  C   UNL     1       2.680   0.004  -2.203  0.00  0.00    +0.044 C 
ATOM     23  C   UNL     1       1.472   0.755  -1.704  0.00  0.00    -0.050 A 
ATOM     24  C   UNL     1       0.243   0.126  -1.645  0.00  0.00    +0.003 A 
ATOM     25  C   UNL     1      -0.866   0.816  -1.192  0.00  0.00    +0.001 A 
ATOM     26  C   UNL     1      -0.743   2.133  -0.788  0.00  0.00    +0.005 A 
ATOM     27  C   UNL     1       0.487   2.761  -0.846  0.00  0.00    -0.028 A 
ATOM     28  C   UNL     1       1.595   2.072  -1.304  0.00  0.00    +0.008 A 
ENDBRANCH  21  27
ENDBRANCH  12  21
ENDBRANCH   1  14
BRANCH   8  29
ATOM     29  C   UNL     1       4.511   9.046  -1.074  0.00  0.00    +0.048 A 
ATOM     30  C   UNL     1       4.046  10.167  -0.400  0.00  0.00    +0.024 A 
ATOM     31  C   UNL     1       4.437  10.400   0.904  0.00  0.00    +0.003 A 
ATOM     32  C   UNL     1       5.299   9.522   1.536  0.00  0.00    +0.020 A 
ATOM     33  C   UNL     1       5.769   8.407   0.865  0.00  0.00    +0.046 A 
ATOM     34  C   UNL     1       5.377   8.166  -0.438  0.00  0.00    -0.010 A 
ATOM     35  C   UNL     1       5.888   6.951  -1.168  0.00  0.00    +0.047 C 
ATOM     36 CL   UNL     1       6.851   7.308   1.662  0.00  0.00    -0.083 Cl
ENDBRANCH   8  29
TORSDOF 4
