REMARK  Name = ZINC21039170
REMARK  14 active torsions:
REMARK  status: ('A' for Active; 'I' for Inactive)
REMARK    1  A    between atoms: C_1  and  C_2
REMARK    2  A    between atoms: C_2  and  C_3
REMARK    3  A    between atoms: C_3  and  C_5
REMARK    4  A    between atoms: C_3  and  S_6
REMARK    5  A    between atoms: S_6  and  C_7
REMARK    6  A    between atoms: C_13  and  C_15
REMARK    7  A    between atoms: C_15  and  S_16
REMARK    8  A    between atoms: S_16  and  C_17
REMARK    9  A    between atoms: N_23  and  N_24
REMARK   10  A    between atoms: C_25  and  C_26
REMARK   11  A    between atoms: C_29  and  O_34
REMARK   12  A    between atoms: C_30  and  O_32
REMARK   13  A    between atoms: O_32  and  C_33
REMARK   14  A    between atoms: O_34  and  C_35
REMARK                            x       y       z     vdW  Elec       q    Type
REMARK                         _______ _______ _______ _____ _____    ______ ____
ROOT
ATOM      1  C   UNL     1     -12.353  -3.617  -0.198  0.00  0.00    +0.186 A 
ATOM      2  N   UNL     1     -13.268  -4.222  -0.986  0.00  0.00    -0.252 N 
ATOM      3  H   UNL     1     -13.121  -4.581  -1.875  0.00  0.00    +0.191 HD
ATOM      4  N   UNL     1     -14.473  -4.229  -0.265  0.00  0.00    -0.134 NA
ATOM      5  C   UNL     1     -14.233  -3.647   0.886  0.00  0.00    +0.255 A 
ATOM      6  N   UNL     1     -12.947  -3.281   0.928  0.00  0.00    -0.187 NA
ATOM      7  N   UNL     1     -15.166  -3.446   1.902  0.00  0.00    -0.204 N 
ATOM      8  H   UNL     1     -14.901  -3.004   2.724  0.00  0.00    +0.177 HD
ENDROOT
BRANCH   7   9
ATOM      9  N   UNL     1     -16.487  -3.882   1.736  0.00  0.00    -0.187 NA
ATOM     10  C   UNL     1     -17.357  -3.695   2.682  0.00  0.00    +0.138 C 
BRANCH  10  11
ATOM     11  C   UNL     1     -18.747  -4.155   2.508  0.00  0.00    -0.002 A 
ATOM     12  C   UNL     1     -19.129  -4.797   1.327  0.00  0.00    +0.013 A 
ATOM     13  C   UNL     1     -20.430  -5.226   1.166  0.00  0.00    +0.050 A 
ATOM     14  C   UNL     1     -21.361  -5.021   2.174  0.00  0.00    +0.162 A 
ATOM     15  C   UNL     1     -20.987  -4.382   3.353  0.00  0.00    +0.162 A 
ATOM     16  C   UNL     1     -19.683  -3.954   3.525  0.00  0.00    +0.059 A 
BRANCH  15  17
ATOM     17  O   UNL     1     -21.903  -4.183   4.339  0.00  0.00    -0.491 OA
ATOM     18  C   UNL     1     -21.450  -3.520   5.521  0.00  0.00    +0.277 C 
ENDBRANCH  15  17
BRANCH  14  19
ATOM     19  O   UNL     1     -22.642  -5.446   2.010  0.00  0.00    -0.491 OA
ATOM     20  C   UNL     1     -22.957  -6.094   0.776  0.00  0.00    +0.277 C 
ENDBRANCH  14  19
ENDBRANCH  10  11
ENDBRANCH   7   9
BRANCH   1  21
ATOM     21  S   UNL     1     -10.662  -3.335  -0.602  0.00  0.00    -0.077 S 
BRANCH  21  22
ATOM     22  C   UNL     1      -9.993  -2.503   0.865  0.00  0.00    +0.173 C 
BRANCH  22  29
ATOM     23  C   UNL     1      -3.900  -0.616   1.373  0.00  0.00    +0.160 A 
ATOM     24  N   UNL     1      -4.480  -1.227   0.350  0.00  0.00    -0.133 NA
ATOM     25  N   UNL     1      -5.699  -1.551   0.370  0.00  0.00    -0.125 NA
ATOM     26  C   UNL     1      -6.473  -1.301   1.413  0.00  0.00    +0.189 A 
ATOM     27  S   UNL     1      -5.290  -0.507   2.497  0.00  0.00    -0.024 S 
ATOM     28  N   UNL     1      -7.823  -1.580   1.612  0.00  0.00    -0.263 N 
ATOM     29  C   UNL     1      -8.533  -2.200   0.649  0.00  0.00    +0.229 C 
ATOM     30  O   UNL     1      -7.996  -2.515  -0.392  0.00  0.00    -0.275 OA
ATOM     31  H   UNL     1      -8.253  -1.328   2.445  0.00  0.00    +0.157 HD
BRANCH  23  32
ATOM     32  S   UNL     1      -2.236  -0.073   1.573  0.00  0.00    -0.094 S 
BRANCH  32  33
ATOM     33  C   UNL     1      -1.433  -0.534   0.013  0.00  0.00    +0.050 C 
ATOM     34  C   UNL     1      -1.416  -2.058  -0.121  0.00  0.00    +0.019 C 
BRANCH  33  36
ATOM     35  C   UNL     1      -0.019   1.526   0.010  0.00  0.00    +0.005 C 
ATOM     36  C   UNL     1       0.002  -0.004   0.002  0.00  0.00    +0.011 C 
ENDBRANCH  33  36
ENDBRANCH  32  33
ENDBRANCH  23  32
ENDBRANCH  22  29
ENDBRANCH  21  22
ENDBRANCH   1  21
TORSDOF 10
