REMARK  Name = ZINC16885124
REMARK  12 active torsions:
REMARK  status: ('A' for Active; 'I' for Inactive)
REMARK    1  A    between atoms: C_1  and  C_2
REMARK    2  A    between atoms: C_2  and  O_3
REMARK    3  A    between atoms: O_3  and  C_4
REMARK    4  A    between atoms: C_7  and  C_10
REMARK    5  A    between atoms: C_10  and  C_11
REMARK    6  A    between atoms: C_12  and  C_35
REMARK    7  A    between atoms: N_15  and  C_18
REMARK    8  A    between atoms: C_18  and  C_19
REMARK    9  A    between atoms: C_21  and  C_26
REMARK   10  A    between atoms: C_24  and  C_25
REMARK   11  A    between atoms: N_27  and  C_28
REMARK   12  A    between atoms: C_33  and  N_34
REMARK                            x       y       z     vdW  Elec       q    Type
REMARK                         _______ _______ _______ _____ _____    ______ ____
ROOT
ATOM      1  C   UNL     1      -4.860   6.015   3.007  0.00  0.00    +0.042 A 
ATOM      2  C   UNL     1      -5.355   6.366   1.784  0.00  0.00    +0.050 A 
ATOM      3  N   UNL     1      -5.374   5.479   0.792  0.00  0.00    -0.220 NA
ATOM      4  C   UNL     1      -4.921   4.253   0.960  0.00  0.00    +0.203 A 
ATOM      5  N   UNL     1      -4.417   3.846   2.157  0.00  0.00    -0.276 N 
ATOM      6  C   UNL     1      -4.380   4.707   3.196  0.00  0.00    +0.259 A 
ATOM      7  O   UNL     1      -3.936   4.358   4.278  0.00  0.00    -0.267 OA
ATOM      8  N   UNL     1      -4.960   3.372  -0.088  0.00  0.00    -0.283 N 
ATOM      9  C   UNL     1      -5.880   7.760   1.558  0.00  0.00    +0.066 C 
ATOM     10  H   UNL     1      -4.708   2.445   0.048  0.00  0.00    +0.155 HD
ENDROOT
BRANCH   8  11
ATOM     11  C   UNL     1      -5.364   3.809  -1.357  0.00  0.00    +0.054 A 
ATOM     12  C   UNL     1      -5.095   5.107  -1.763  0.00  0.00    +0.025 A 
ATOM     13  C   UNL     1      -5.490   5.535  -3.016  0.00  0.00    +0.002 A 
ATOM     14  C   UNL     1      -6.165   4.676  -3.864  0.00  0.00    +0.002 A 
ATOM     15  C   UNL     1      -6.443   3.382  -3.465  0.00  0.00    +0.024 A 
ATOM     16  C   UNL     1      -6.045   2.942  -2.211  0.00  0.00    +0.046 A 
BRANCH  16  17
ATOM     17  N   UNL     1      -6.326   1.633  -1.805  0.00  0.00    -0.357 N 
ATOM     18  H   UNL     1      -6.047   1.327  -0.928  0.00  0.00    +0.142 HD
ATOM     19  H   UNL     1      -6.799   1.031  -2.401  0.00  0.00    +0.142 HD
ENDBRANCH  16  17
ENDBRANCH   8  11
BRANCH   1  20
ATOM     20  C   UNL     1      -4.834   7.012   4.137  0.00  0.00    +0.077 C 
BRANCH  20  24
ATOM     21  C   UNL     1      -8.324   6.517   6.553  0.00  0.00    +0.121 A 
ATOM     22  C   UNL     1      -7.170   5.805   6.845  0.00  0.00    +0.046 A 
ATOM     23  C   UNL     1      -6.043   5.967   6.063  0.00  0.00    +0.007 A 
ATOM     24  C   UNL     1      -6.064   6.838   4.989  0.00  0.00    -0.043 A 
ATOM     25  C   UNL     1      -7.212   7.553   4.699  0.00  0.00    +0.007 A 
ATOM     26  C   UNL     1      -8.343   7.391   5.475  0.00  0.00    +0.046 A 
BRANCH  21  27
ATOM     27  O   UNL     1      -9.434   6.360   7.321  0.00  0.00    -0.492 OA
BRANCH  27  29
ATOM     28  C   UNL     1     -11.726   6.818   7.934  0.00  0.00    +0.048 C 
ATOM     29  C   UNL     1     -10.586   7.126   6.962  0.00  0.00    +0.225 C 
ENDBRANCH  27  29
ENDBRANCH  21  27
ENDBRANCH  20  24
ENDBRANCH   1  20
BRANCH   5  30
ATOM     30  C   UNL     1      -3.920   2.477   2.318  0.00  0.00    +0.163 C 
BRANCH  30  31
ATOM     31  C   UNL     1      -2.498   2.398   1.826  0.00  0.00    -0.024 A 
ATOM     32  C   UNL     1      -1.866   3.533   1.352  0.00  0.00    +0.009 A 
ATOM     33  C   UNL     1      -0.563   3.458   0.896  0.00  0.00    -0.050 A 
ATOM     34  C   UNL     1       0.111   2.252   0.922  0.00  0.00    +0.003 A 
ATOM     35  C   UNL     1      -0.519   1.118   1.400  0.00  0.00    +0.004 A 
ATOM     36  C   UNL     1      -1.824   1.192   1.853  0.00  0.00    -0.046 A 
ATOM     37  C   UNL     1      -2.511  -0.044   2.374  0.00  0.00    +0.044 C 
ATOM     38  C   UNL     1       0.124   4.694   0.374  0.00  0.00    +0.044 C 
ENDBRANCH  30  31
ENDBRANCH   5  30
TORSDOF 8
