REMARK  Name = ZINC42484218
REMARK  10 active torsions:
REMARK  status: ('A' for Active; 'I' for Inactive)
REMARK    1  A    between atoms: C_1  and  N_2
REMARK    2  A    between atoms: N_2  and  C_3
REMARK    3  A    between atoms: N_2  and  C_4
REMARK    4  A    between atoms: C_4  and  C_10
REMARK    5  A    between atoms: C_10  and  N_11
REMARK    6  A    between atoms: N_11  and  C_12
REMARK    7  A    between atoms: C_12  and  C_13
REMARK    8  A    between atoms: C_18  and  C_19
REMARK    9  A    between atoms: C_22  and  O_26
REMARK   10  A    between atoms: O_26  and  C_27
REMARK                            x       y       z     vdW  Elec       q    Type
REMARK                         _______ _______ _______ _____ _____    ______ ____
ROOT
ATOM      1  C   UNL     1      -3.367   3.174   2.470  0.00  0.00    +0.012 A 
ATOM      2  C   UNL     1      -2.595   4.013   3.195  0.00  0.00    +0.110 A 
ATOM      3  N   UNL     1      -2.963   5.278   2.901  0.00  0.00    -0.284 N 
ATOM      4  H   UNL     1      -2.577   6.085   3.275  0.00  0.00    +0.188 HD
ATOM      5  N   UNL     1      -4.000   5.222   1.960  0.00  0.00    -0.173 NA
ATOM      6  C   UNL     1      -4.244   3.957   1.694  0.00  0.00    +0.100 A 
ENDROOT
BRANCH   6   7
ATOM      7  C   UNL     1      -5.263   3.445   0.746  0.00  0.00    +0.038 A 
ATOM      8  C   UNL     1      -6.133   2.429   1.137  0.00  0.00    +0.016 A 
ATOM      9  C   UNL     1      -7.081   1.955   0.254  0.00  0.00    +0.046 A 
ATOM     10  C   UNL     1      -7.169   2.488  -1.026  0.00  0.00    +0.123 A 
ATOM     11  C   UNL     1      -6.305   3.500  -1.420  0.00  0.00    +0.084 A 
ATOM     12  C   UNL     1      -5.357   3.983  -0.538  0.00  0.00    +0.136 A 
ATOM     13  F   UNL     1      -4.520   4.972  -0.921  0.00  0.00    -0.205 F 
BRANCH  10  14
ATOM     14  O   UNL     1      -8.103   2.018  -1.893  0.00  0.00    -0.495 OA
ATOM     15  C   UNL     1      -8.139   2.611  -3.192  0.00  0.00    +0.277 C 
ENDBRANCH  10  14
ENDBRANCH   6   7
BRANCH   1  16
ATOM     16  C   UNL     1      -3.298   1.669   2.485  0.00  0.00    +0.120 C 
BRANCH  16  17
ATOM     17  N   UNL     1      -2.655   1.196   1.251  0.00  0.00    -0.313 NA
ATOM     18  H   UNL     1      -1.744   1.612   1.135  0.00  0.00    +0.122 HD
BRANCH  17  19
ATOM     19  C   UNL     1      -2.571  -0.271   1.230  0.00  0.00    +0.069 C 
BRANCH  19  20
ATOM     20  C   UNL     1      -2.014  -0.730  -0.119  0.00  0.00    -0.053 C 
ATOM     21  C   UNL     1      -1.993  -2.259  -0.168  0.00  0.00    -0.011 C 
ATOM     22  C   UNL     1      -1.106  -2.794   0.959  0.00  0.00    -0.001 C 
ATOM     23  C   UNL     1       0.317  -2.258   0.786  0.00  0.00    -0.000 C 
ATOM     24  C   UNL     1       0.296  -0.729   0.835  0.00  0.00    -0.001 C 
ATOM     25  C   UNL     1      -0.591  -0.195  -0.292  0.00  0.00    -0.011 C 
BRANCH  20  27
ATOM     26  C   UNL     1      -2.329  -0.657  -2.496  0.00  0.00    -0.096 C 
ATOM     27  N   UNL     1      -2.865  -0.217  -1.200  0.00  0.00    +0.381 N 
ATOM     28  C   UNL     1      -4.231  -0.732  -1.035  0.00  0.00    -0.096 C 
ATOM     29  H   UNL     1      -2.879   0.791  -1.167  0.00  0.00    -0.082 HD
ENDBRANCH  20  27
ENDBRANCH  19  20
ENDBRANCH  17  19
ENDBRANCH  16  17
ENDBRANCH   1  16
TORSDOF 7
