REMARK  Name = ZINC41004578
REMARK  9 active torsions:
REMARK  status: ('A' for Active; 'I' for Inactive)
REMARK    1  A    between atoms: C_1  and  C_2
REMARK    2  A    between atoms: C_2  and  S_3
REMARK    3  A    between atoms: S_3  and  C_4
REMARK    4  A    between atoms: C_9  and  C_21
REMARK    5  A    between atoms: C_15  and  C_19
REMARK    6  A    between atoms: C_15  and  C_20
REMARK    7  A    between atoms: C_26  and  O_27
REMARK    8  A    between atoms: O_27  and  C_28
REMARK    9  A    between atoms: C_28  and  C_29
REMARK                            x       y       z     vdW  Elec       q    Type
REMARK                         _______ _______ _______ _____ _____    ______ ____
ROOT
ATOM      1  C   UNL     1       0.792  -2.345  -1.354  0.00  0.00    +0.210 A 
ATOM      2  N   UNL     1       0.226  -3.029  -0.349  0.00  0.00    -0.187 NA
ATOM      3  C   UNL     1       0.364  -4.309  -0.562  0.00  0.00    +0.219 A 
ATOM      4  N   UNL     1       1.029  -4.474  -1.732  0.00  0.00    -0.220 N 
ATOM      5  N   UNL     1       1.292  -3.196  -2.224  0.00  0.00    -0.141 NA
ATOM      6  C   UNL     1       1.353  -5.779  -2.294  0.00  0.00    +0.179 C 
ATOM      7  C   UNL     1       1.156  -6.856  -1.250  0.00  0.00    +0.041 C 
ATOM      8  C   UNL     1       0.491  -6.625  -0.098  0.00  0.00    +0.020 C 
ATOM      9  N   UNL     1      -0.047  -5.395   0.195  0.00  0.00    -0.287 N 
ATOM     10  C   UNL     1       0.316  -7.719   0.929  0.00  0.00    +0.058 C 
ATOM     11  C   UNL     1       0.248  -9.078   0.229  0.00  0.00    -0.023 C 
ATOM     12  C   UNL     1       1.540  -9.272  -0.572  0.00  0.00    +0.086 C 
ATOM     13  C   UNL     1       1.697  -8.124  -1.529  0.00  0.00    +0.164 C 
ATOM     14  O   UNL     1       2.306  -8.294  -2.567  0.00  0.00    -0.292 OA
ATOM     15  C   UNL     1       0.116 -10.189   1.272  0.00  0.00    +0.011 C 
ATOM     16  C   UNL     1      -0.955  -9.111  -0.716  0.00  0.00    +0.011 C 
ATOM     17  H   UNL     1      -0.694  -5.289   0.909  0.00  0.00    +0.155 HD
ENDROOT
BRANCH   6  18
ATOM     18  C   UNL     1       0.451  -6.054  -3.470  0.00  0.00    +0.023 A 
ATOM     19  C   UNL     1      -0.919  -6.089  -3.297  0.00  0.00    +0.009 A 
ATOM     20  C   UNL     1      -1.746  -6.343  -4.375  0.00  0.00    +0.001 A 
ATOM     21  C   UNL     1      -1.205  -6.561  -5.629  0.00  0.00    +0.004 A 
ATOM     22  C   UNL     1       0.164  -6.526  -5.807  0.00  0.00    +0.046 A 
ATOM     23  C   UNL     1       0.996  -6.267  -4.727  0.00  0.00    +0.127 A 
BRANCH  23  24
ATOM     24  O   UNL     1       2.344  -6.227  -4.901  0.00  0.00    -0.487 OA
BRANCH  24  25
ATOM     25  C   UNL     1       2.834  -6.455  -6.223  0.00  0.00    +0.266 C 
BRANCH  25  26
ATOM     26  C   UNL     1       4.339  -6.373  -6.222  0.00  0.00    +0.008 A 
ATOM     27  C   UNL     1       5.016  -6.114  -5.045  0.00  0.00    +0.008 A 
ATOM     28  C   UNL     1       6.396  -6.039  -5.043  0.00  0.00    +0.000 A 
ATOM     29  C   UNL     1       7.101  -6.221  -6.219  0.00  0.00    +0.001 A 
ATOM     30  C   UNL     1       6.425  -6.479  -7.397  0.00  0.00    +0.020 A 
ATOM     31  C   UNL     1       5.043  -6.561  -7.398  0.00  0.00    +0.047 A 
ATOM     32 CL   UNL     1       4.194  -6.892  -8.875  0.00  0.00    -0.083 Cl
ENDBRANCH  25  26
ENDBRANCH  24  25
ENDBRANCH  23  24
ENDBRANCH   6  18
BRANCH   1  33
ATOM     33  S   UNL     1       0.851  -0.589  -1.490  0.00  0.00    -0.085 S 
BRANCH  33  35
ATOM     34  C   UNL     1      -0.019   1.526   0.010  0.00  0.00    +0.016 C 
ATOM     35  C   UNL     1       0.002  -0.004   0.002  0.00  0.00    +0.074 C 
ENDBRANCH  33  35
ENDBRANCH   1  33
TORSDOF 6
