REMARK  Name = ZINC17195650
REMARK  7 active torsions:
REMARK  status: ('A' for Active; 'I' for Inactive)
REMARK    1  A    between atoms: C_1  and  C_2
REMARK    2  A    between atoms: C_2  and  O_3
REMARK    3  A    between atoms: O_3  and  C_4
REMARK    4  A    between atoms: C_7  and  C_12
REMARK    5  A    between atoms: C_9  and  O_10
REMARK    6  A    between atoms: O_10  and  C_11
REMARK    7  A    between atoms: N_18  and  C_19
REMARK                            x       y       z     vdW  Elec       q    Type
REMARK                         _______ _______ _______ _____ _____    ______ ____
ROOT
ATOM      1  C   UNL     1       1.106  -6.011  -1.838  0.00  0.00    +0.028 C 
ATOM      2  C   UNL     1       1.272  -6.811  -0.755  0.00  0.00    +0.078 C 
ATOM      3  C   UNL     1       1.513  -8.265  -0.694  0.00  0.00    +0.256 C 
ATOM      4  O   UNL     1       1.590  -8.941  -1.703  0.00  0.00    -0.269 OA
ATOM      5  N   UNL     1       1.640  -8.802   0.508  0.00  0.00    -0.260 N 
ATOM      6  C   UNL     1       1.550  -8.021   1.640  0.00  0.00    +0.166 C 
ATOM      7  N   UNL     1       1.652  -8.389   2.897  0.00  0.00    -0.226 NA
ATOM      8  S   UNL     1       1.267  -6.385   0.981  0.00  0.00    -0.049 S 
ATOM      9  H   UNL     1       1.799  -9.755   0.594  0.00  0.00    +0.157 HD
ENDROOT
BRANCH   7  10
ATOM     10  C   UNL     1       1.532  -7.458   3.894  0.00  0.00    +0.067 A 
ATOM     11  C   UNL     1       2.189  -6.230   3.790  0.00  0.00    +0.029 A 
ATOM     12  C   UNL     1       2.064  -5.297   4.798  0.00  0.00    +0.017 A 
ATOM     13  C   UNL     1       1.290  -5.576   5.912  0.00  0.00    +0.018 A 
ATOM     14  C   UNL     1       0.636  -6.792   6.021  0.00  0.00    +0.017 A 
ATOM     15  C   UNL     1       0.748  -7.731   5.017  0.00  0.00    +0.029 A 
ATOM     16 BR   UNL     1       1.125  -4.292   7.289  0.00  0.00    -0.050 Br
ENDBRANCH   7  10
BRANCH   1  20
ATOM     17  C   UNL     1      -0.007  -1.949  -1.318  0.00  0.00    +0.162 A 
ATOM     18  C   UNL     1      -0.181  -2.854  -0.280  0.00  0.00    +0.050 A 
ATOM     19  C   UNL     1       0.179  -4.173  -0.444  0.00  0.00    +0.012 A 
ATOM     20  C   UNL     1       0.721  -4.605  -1.660  0.00  0.00    -0.020 A 
ATOM     21  C   UNL     1       0.896  -3.691  -2.707  0.00  0.00    +0.057 A 
ATOM     22  C   UNL     1       0.527  -2.371  -2.535  0.00  0.00    +0.162 A 
BRANCH  22  23
ATOM     23  O   UNL     1       0.690  -1.482  -3.551  0.00  0.00    -0.491 OA
ATOM     24  C   UNL     1       1.243  -1.983  -4.769  0.00  0.00    +0.277 C 
ENDBRANCH  22  23
BRANCH  17  25
ATOM     25  O   UNL     1      -0.363  -0.648  -1.150  0.00  0.00    -0.489 OA
BRANCH  25  27
ATOM     26  C   UNL     1      -1.243   1.209   0.122  0.00  0.00    +0.048 C 
ATOM     27  C   UNL     1      -0.904  -0.283   0.122  0.00  0.00    +0.226 C 
ENDBRANCH  25  27
ENDBRANCH  17  25
ENDBRANCH   1  20
TORSDOF 5
