REMARK  Name = ZINC20612098
REMARK  7 active torsions:
REMARK  status: ('A' for Active; 'I' for Inactive)
REMARK    1  A    between atoms: C_1  and  C_2
REMARK    2  A    between atoms: C_6  and  C_41
REMARK    3  A    between atoms: C_17  and  C_19
REMARK    4  A    between atoms: C_19  and  N_20
REMARK    5  A    between atoms: N_23  and  C_26
REMARK    6  A    between atoms: C_26  and  C_28
REMARK    7  A    between atoms: C_26  and  C_34
REMARK                            x       y       z     vdW  Elec       q    Type
REMARK                         _______ _______ _______ _____ _____    ______ ____
ROOT
ATOM      1  N   UNL     1      -8.034   1.805  -1.140  0.00  0.00    +0.382 N 
ATOM      2  C   UNL     1      -8.176   1.364  -2.535  0.00  0.00    -0.063 C 
ATOM      3  C   UNL     1      -9.181   0.212  -2.603  0.00  0.00    +0.067 C 
ATOM      4  N   UNL     1     -10.472   0.659  -2.061  0.00  0.00    -0.295 NA
ATOM      5  C   UNL     1     -10.330   1.099  -0.667  0.00  0.00    +0.067 C 
ATOM      6  C   UNL     1      -9.325   2.252  -0.598  0.00  0.00    -0.063 C 
ATOM      7  H   UNL     1      -7.695   0.944  -0.545  0.00  0.00    -0.082 HD
ENDROOT
BRANCH   1   8
ATOM      8  C   UNL     1      -7.020   2.861  -1.022  0.00  0.00    -0.063 C 
BRANCH   8  23
ATOM      9  C   UNL     1      -7.671   7.766   2.026  0.00  0.00    +0.044 C 
ATOM     10  C   UNL     1      -6.795   6.927   2.920  0.00  0.00    -0.051 C 
ATOM     11  C   UNL     1      -6.476   7.348   4.132  0.00  0.00    -0.023 C 
ATOM     12  C   UNL     1      -5.630   6.584   5.104  0.00  0.00    +0.028 C 
ATOM     13  C   UNL     1      -4.821   5.481   4.417  0.00  0.00    +0.015 C 
ATOM     14  C   UNL     1      -5.758   4.689   3.506  0.00  0.00    -0.003 C 
ATOM     15  C   UNL     1      -6.279   5.620   2.453  0.00  0.00    -0.042 C 
ATOM     16  C   UNL     1      -6.226   5.349   1.167  0.00  0.00    -0.015 C 
ATOM     17  C   UNL     1      -5.578   4.136   0.609  0.00  0.00    +0.065 C 
ATOM     18  C   UNL     1      -4.543   3.535   1.590  0.00  0.00    +0.185 C 
ATOM     19  C   UNL     1      -5.159   3.418   2.984  0.00  0.00    +0.056 C 
ATOM     20  O   UNL     1      -4.447   2.152   1.073  0.00  0.00    -0.461 OA
ATOM     21  C   UNL     1      -5.705   1.743   0.797  0.00  0.00    +0.309 C 
ATOM     22  O   UNL     1      -6.096   0.601   0.836  0.00  0.00    -0.251 OA
ATOM     23  C   UNL     1      -6.547   2.954   0.430  0.00  0.00    +0.092 C 
ATOM     24  C   UNL     1      -6.957   4.279   4.362  0.00  0.00    +0.016 C 
ENDBRANCH   8  23
ENDBRANCH   1   8
BRANCH   4  25
ATOM     25  C   UNL     1     -11.486  -0.397  -2.179  0.00  0.00    +0.117 C 
BRANCH  25  26
ATOM     26  C   UNL     1     -11.603  -0.823  -3.620  0.00  0.00    -0.026 A 
ATOM     27  C   UNL     1     -11.559   0.125  -4.626  0.00  0.00    +0.007 A 
ATOM     28  C   UNL     1     -11.661  -0.266  -5.948  0.00  0.00    +0.020 A 
ATOM     29  C   UNL     1     -11.818  -1.603  -6.264  0.00  0.00    +0.041 A 
ATOM     30  C   UNL     1     -11.868  -2.550  -5.257  0.00  0.00    +0.020 A 
ATOM     31  C   UNL     1     -11.761  -2.159  -3.935  0.00  0.00    +0.007 A 
ATOM     32 CL   UNL     1     -11.953  -2.093  -7.924  0.00  0.00    -0.084 Cl
ENDBRANCH  25  26
BRANCH  25  33
ATOM     33  C   UNL     1     -12.816   0.127  -1.701  0.00  0.00    -0.026 A 
ATOM     34  C   UNL     1     -13.201   1.419  -2.009  0.00  0.00    +0.005 A 
ATOM     35  C   UNL     1     -14.422   1.898  -1.575  0.00  0.00    +0.000 A 
ATOM     36  C   UNL     1     -15.254   1.089  -0.823  0.00  0.00    +0.000 A 
ATOM     37  C   UNL     1     -14.866  -0.200  -0.509  0.00  0.00    +0.000 A 
ATOM     38  C   UNL     1     -13.647  -0.681  -0.949  0.00  0.00    +0.005 A 
ENDBRANCH  25  33
ENDBRANCH   4  25
TORSDOF 5
