REMARK  Name = ZINC43265257
REMARK  10 active torsions:
REMARK  status: ('A' for Active; 'I' for Inactive)
REMARK    1  A    between atoms: C_1  and  C_2
REMARK    2  A    between atoms: C_2  and  C_4
REMARK    3  A    between atoms: C_2  and  N_23
REMARK    4  A    between atoms: C_4  and  C_6
REMARK    5  A    between atoms: C_4  and  O_12
REMARK    6  A    between atoms: O_12  and  C_13
REMARK    7  A    between atoms: C_16  and  C_19
REMARK    8  A    between atoms: C_19  and  C_20
REMARK    9  A    between atoms: C_20  and  O_21
REMARK   10  A    between atoms: O_21  and  C_22
REMARK                            x       y       z     vdW  Elec       q    Type
REMARK                         _______ _______ _______ _____ _____    ______ ____
ROOT
ATOM      1  C   UNL     1      -0.984  -0.727   3.101  0.00  0.00    +0.196 C 
ENDROOT
BRANCH   1   2
ATOM      2  C   UNL     1      -1.836  -1.466   2.102  0.00  0.00    +0.029 A 
ATOM      3  C   UNL     1      -3.184  -1.599   2.063  0.00  0.00    +0.016 A 
ATOM      4  C   UNL     1      -3.756  -2.333   1.040  0.00  0.00    +0.023 A 
ATOM      5  C   UNL     1      -2.951  -2.897   0.106  0.00  0.00    +0.055 A 
ATOM      6  S   UNL     1      -1.331  -2.388   0.658  0.00  0.00    -0.083 S 
ATOM      7 BR   UNL     1      -3.422  -3.945  -1.396  0.00  0.00    -0.043 Br
ENDBRANCH   1   2
BRANCH   1   9
ATOM      8  C   UNL     1       0.475  -0.971   5.115  0.00  0.00    -0.010 C 
ATOM      9  C   UNL     1      -0.390  -1.722   4.100  0.00  0.00    -0.032 C 
BRANCH   9  10
ATOM     10  N   UNL     1      -1.476  -2.417   4.803  0.00  0.00    +0.382 N 
ATOM     11  H   UNL     1      -2.044  -1.744   5.296  0.00  0.00    -0.089 HD
ATOM     12  H   UNL     1      -2.047  -2.912   4.134  0.00  0.00    -0.089 HD
ATOM     13  H   UNL     1      -1.085  -3.073   5.462  0.00  0.00    -0.089 HD
ENDBRANCH   9  10
ENDBRANCH   1   9
BRANCH   1  14
ATOM     14  O   UNL     1       0.073  -0.050   2.417  0.00  0.00    -0.485 OA
BRANCH  14  15
ATOM     15  C   UNL     1       0.399   1.193   2.861  0.00  0.00    +0.121 A 
ATOM     16  C   UNL     1       1.329   1.956   2.170  0.00  0.00    +0.046 A 
ATOM     17  C   UNL     1       1.658   3.219   2.622  0.00  0.00    +0.007 A 
ATOM     18  C   UNL     1       1.061   3.723   3.763  0.00  0.00    -0.045 A 
ATOM     19  C   UNL     1       0.134   2.964   4.454  0.00  0.00    +0.007 A 
ATOM     20  C   UNL     1      -0.203   1.703   4.002  0.00  0.00    +0.046 A 
BRANCH  18  21
ATOM     21  C   UNL     1       1.422   5.101   4.255  0.00  0.00    +0.063 C 
BRANCH  21  22
ATOM     22  C   UNL     1       0.486   6.130   3.619  0.00  0.00    +0.164 C 
BRANCH  22  23
ATOM     23  O   UNL     1       0.828   7.437   4.085  0.00  0.00    -0.383 OA
ATOM     24  C   UNL     1       0.009   8.479   3.548  0.00  0.00    +0.193 C 
ENDBRANCH  22  23
ENDBRANCH  21  22
ENDBRANCH  18  21
ENDBRANCH  14  15
ENDBRANCH   1  14
TORSDOF 8
