REMARK  Name = ZINC39851533
REMARK  9 active torsions:
REMARK  status: ('A' for Active; 'I' for Inactive)
REMARK    1  A    between atoms: C_1  and  C_2
REMARK    2  A    between atoms: C_3  and  C_23
REMARK    3  A    between atoms: C_4  and  N_12
REMARK    4  A    between atoms: N_5  and  C_11
REMARK    5  A    between atoms: C_8  and  C_9
REMARK    6  A    between atoms: N_12  and  C_13
REMARK    7  A    between atoms: C_13  and  C_14
REMARK    8  A    between atoms: N_27  and  C_31
REMARK    9  A    between atoms: C_31  and  C_32
REMARK                            x       y       z     vdW  Elec       q    Type
REMARK                         _______ _______ _______ _____ _____    ______ ____
ROOT
ATOM      1  C   UNL     1       0.374   1.313   0.011  0.00  0.00    +0.046 C 
ATOM      2  C   UNL     1       0.220  -0.186   0.008  0.00  0.00    -0.017 A 
ATOM      3  C   UNL     1      -1.057  -0.773  -0.009  0.00  0.00    +0.019 A 
ATOM      4  C   UNL     1      -1.174  -2.172  -0.012  0.00  0.00    +0.109 A 
ATOM      5  N   UNL     1      -0.066  -2.957   0.003  0.00  0.00    -0.298 N 
ATOM      6  C   UNL     1       1.167  -2.420   0.019  0.00  0.00    +0.270 A 
ATOM      7  O   UNL     1       2.144  -3.149   0.032  0.00  0.00    -0.266 OA
ATOM      8  C   UNL     1       1.340  -1.012   0.017  0.00  0.00    +0.120 A 
ATOM      9  C   UNL     1      -0.216  -4.414   0.001  0.00  0.00    +0.154 C 
ENDROOT
BRANCH   3  10
ATOM     10  C   UNL     1      -2.255   0.068  -0.023  0.00  0.00    +0.032 C 
ATOM     11  C   UNL     1      -3.189  -0.061   0.958  0.00  0.00    +0.077 C 
ATOM     12  C   UNL     1      -3.147  -0.838   2.156  0.00  0.00    +0.259 C 
ATOM     13  O   UNL     1      -2.175  -1.520   2.427  0.00  0.00    -0.269 OA
ATOM     14  N   UNL     1      -4.195  -0.795   2.960  0.00  0.00    -0.252 N 
ATOM     15  C   UNL     1      -5.273  -0.039   2.659  0.00  0.00    +0.121 C 
ATOM     16  S   UNL     1      -6.723   0.164   3.546  0.00  0.00    -0.027 S 
ATOM     17  S   UNL     1      -4.799   0.702   1.104  0.00  0.00    -0.061 S 
BRANCH  14  18
ATOM     18  C   UNL     1      -4.187  -1.580   4.197  0.00  0.00    +0.141 C 
BRANCH  18  19
ATOM     19  C   UNL     1      -3.607  -0.752   5.314  0.00  0.00    -0.015 C 
ATOM     20  C   UNL     1      -4.289  -0.571   6.418  0.00  0.00    +0.005 C 
ENDBRANCH  18  19
ENDBRANCH  14  18
ENDBRANCH   3  10
BRANCH   8  21
ATOM     21  C   UNL     1       2.655  -0.446   0.029  0.00  0.00    +0.105 C 
ATOM     22  N   UNL     1       3.699   0.003   0.038  0.00  0.00    -0.191 NA
ENDBRANCH   8  21
BRANCH   4  23
ATOM     23  N   UNL     1      -2.411  -2.748  -0.028  0.00  0.00    -0.326 N 
ATOM     24  H   UNL     1      -2.832  -3.016   0.803  0.00  0.00    +0.148 HD
BRANCH  23  25
ATOM     25  C   UNL     1      -3.102  -2.962  -1.302  0.00  0.00    +0.138 C 
BRANCH  25  26
ATOM     26  C   UNL     1      -4.487  -3.495  -1.039  0.00  0.00    -0.027 A 
ATOM     27  C   UNL     1      -4.697  -4.859  -0.954  0.00  0.00    +0.009 A 
ATOM     28  C   UNL     1      -5.965  -5.352  -0.712  0.00  0.00    +0.050 A 
ATOM     29  C   UNL     1      -7.030  -4.480  -0.554  0.00  0.00    +0.166 A 
ATOM     30  C   UNL     1      -6.819  -3.106  -0.640  0.00  0.00    +0.167 A 
ATOM     31  C   UNL     1      -5.544  -2.618  -0.876  0.00  0.00    +0.054 A 
ATOM     32  O   UNL     1      -8.011  -2.469  -0.451  0.00  0.00    -0.453 OA
ATOM     33  C   UNL     1      -9.021  -3.474  -0.656  0.00  0.00    +0.466 C 
ATOM     34  O   UNL     1      -8.355  -4.703  -0.312  0.00  0.00    -0.453 OA
ENDBRANCH  25  26
ENDBRANCH  23  25
ENDBRANCH   4  23
TORSDOF 7
