REMARK  Name = ZINC38610306
REMARK  9 active torsions:
REMARK  status: ('A' for Active; 'I' for Inactive)
REMARK    1  A    between atoms: C_1  and  C_2
REMARK    2  A    between atoms: C_2  and  C_3
REMARK    3  A    between atoms: C_3  and  O_4
REMARK    4  A    between atoms: O_4  and  C_5
REMARK    5  A    between atoms: C_9  and  C_11
REMARK    6  A    between atoms: C_14  and  C_30
REMARK    7  A    between atoms: N_21  and  C_22
REMARK    8  A    between atoms: C_22  and  C_23
REMARK    9  A    between atoms: C_35  and  O_36
REMARK                            x       y       z     vdW  Elec       q    Type
REMARK                         _______ _______ _______ _____ _____    ______ ____
ROOT
ATOM      1  C   UNL     1       2.031  -5.619  -3.848  0.00  0.00    +0.142 C 
ATOM      2  C   UNL     1       0.918  -6.366  -4.530  0.00  0.00    +0.035 A 
ATOM      3  C   UNL     1      -0.452  -6.644  -4.591  0.00  0.00    +0.102 A 
ATOM      4  N   UNL     1      -0.639  -7.493  -5.582  0.00  0.00    -0.173 NA
ATOM      5  N   UNL     1       0.477  -7.779  -6.153  0.00  0.00    -0.272 N 
ATOM      6  H   UNL     1       0.579  -8.382  -6.905  0.00  0.00    +0.189 HD
ATOM      7  C   UNL     1       1.497  -7.106  -5.543  0.00  0.00    +0.126 A 
ATOM      8  C   UNL     1       2.943  -6.858  -5.533  0.00  0.00    +0.266 C 
ATOM      9  O   UNL     1       3.739  -7.361  -6.302  0.00  0.00    -0.268 OA
ATOM     10  N   UNL     1       3.265  -5.995  -4.550  0.00  0.00    -0.281 N 
ENDROOT
BRANCH   1  15
ATOM     11  C   UNL     1       1.274  -2.031  -2.937  0.00  0.00    +0.121 A 
ATOM     12  C   UNL     1       1.385  -1.405  -4.171  0.00  0.00    +0.045 A 
ATOM     13  C   UNL     1       1.704  -2.145  -5.293  0.00  0.00    +0.004 A 
ATOM     14  C   UNL     1       1.913  -3.508  -5.187  0.00  0.00    +0.006 A 
ATOM     15  C   UNL     1       1.803  -4.134  -3.959  0.00  0.00    -0.019 A 
ATOM     16  C   UNL     1       1.489  -3.397  -2.833  0.00  0.00    +0.051 A 
BRANCH  11  17
ATOM     17  O   UNL     1       0.960  -1.305  -1.832  0.00  0.00    -0.492 OA
BRANCH  17  18
ATOM     18  C   UNL     1       0.752   0.097  -2.014  0.00  0.00    +0.229 C 
BRANCH  18  20
ATOM     19  C   UNL     1       0.188   2.242  -0.864  0.00  0.00    +0.007 C 
ATOM     20  C   UNL     1       0.411   0.741  -0.669  0.00  0.00    +0.038 C 
ENDBRANCH  18  20
ENDBRANCH  17  18
ENDBRANCH  11  17
ENDBRANCH   1  15
BRANCH   3  21
ATOM     21  C   UNL     1      -1.502  -6.086  -3.703  0.00  0.00    +0.044 A 
ATOM     22  C   UNL     1      -1.149  -5.289  -2.617  0.00  0.00    +0.014 A 
ATOM     23  C   UNL     1      -2.129  -4.772  -1.794  0.00  0.00    +0.001 A 
ATOM     24  C   UNL     1      -3.462  -5.043  -2.043  0.00  0.00    +0.004 A 
ATOM     25  C   UNL     1      -3.824  -5.833  -3.118  0.00  0.00    +0.046 A 
ATOM     26  C   UNL     1      -2.850  -6.353  -3.956  0.00  0.00    +0.126 A 
BRANCH  26  27
ATOM     27  O   UNL     1      -3.205  -7.125  -5.016  0.00  0.00    -0.506 OA
ATOM     28  H   UNL     1      -3.260  -8.069  -4.815  0.00  0.00    +0.292 HD
ENDBRANCH  26  27
ENDBRANCH   3  21
BRANCH  10  29
ATOM     29  C   UNL     1       4.612  -5.513  -4.236  0.00  0.00    +0.144 C 
BRANCH  29  30
ATOM     30  C   UNL     1       5.254  -6.435  -3.231  0.00  0.00    -0.030 A 
ATOM     31  C   UNL     1       5.098  -6.197  -1.878  0.00  0.00    +0.006 A 
ATOM     32  C   UNL     1       5.686  -7.042  -0.956  0.00  0.00    +0.020 A 
ATOM     33  C   UNL     1       6.431  -8.125  -1.387  0.00  0.00    +0.041 A 
ATOM     34  C   UNL     1       6.586  -8.362  -2.741  0.00  0.00    +0.020 A 
ATOM     35  C   UNL     1       5.993  -7.520  -3.662  0.00  0.00    +0.006 A 
ATOM     36 CL   UNL     1       7.170  -9.187  -0.229  0.00  0.00    -0.084 Cl
ENDBRANCH  29  30
ENDBRANCH  10  29
TORSDOF 8
