REMARK  Name = ZINC66853910
REMARK  13 active torsions:
REMARK  status: ('A' for Active; 'I' for Inactive)
REMARK    1  A    between atoms: C_1  and  C_2
REMARK    2  A    between atoms: C_2  and  C_4
REMARK    3  A    between atoms: C_2  and  C_24
REMARK    4  A    between atoms: C_4  and  N_5
REMARK    5  A    between atoms: N_5  and  C_6
REMARK    6  A    between atoms: N_5  and  C_7
REMARK    7  A    between atoms: C_7  and  C_8
REMARK    8  A    between atoms: C_8  and  C_10
REMARK    9  A    between atoms: C_11  and  N_23
REMARK   10  A    between atoms: N_12  and  C_19
REMARK   11  A    between atoms: C_19  and  C_20
REMARK   12  A    between atoms: C_20  and  C_21
REMARK   13  A    between atoms: C_20  and  C_22
REMARK                            x       y       z     vdW  Elec       q    Type
REMARK                         _______ _______ _______ _____ _____    ______ ____
ROOT
ATOM      1  C   UNL     1       0.152  -0.473  -6.093  0.00  0.00    +0.118 A 
ATOM      2  C   UNL     1      -0.493   0.043  -7.230  0.00  0.00    +0.116 A 
ATOM      3  N   UNL     1      -0.065  -0.348  -8.466  0.00  0.00    -0.281 N 
ATOM      4  C   UNL     1       0.954  -1.209  -8.612  0.00  0.00    +0.331 A 
ATOM      5  O   UNL     1       1.298  -1.526  -9.734  0.00  0.00    -0.246 OA
ATOM      6  N   UNL     1       1.608  -1.734  -7.563  0.00  0.00    -0.274 N 
ATOM      7  H   UNL     1       2.339  -2.354  -7.716  0.00  0.00    +0.173 HD
ATOM      8  C   UNL     1       1.266  -1.407  -6.300  0.00  0.00    +0.266 A 
ATOM      9  O   UNL     1       1.864  -1.881  -5.352  0.00  0.00    -0.267 OA
ENDROOT
BRANCH   2  10
ATOM     10  N   UNL     1      -1.528   0.917  -7.101  0.00  0.00    -0.344 N 
ATOM     11  H   UNL     1      -1.755   1.274  -6.228  0.00  0.00    +0.144 HD
ATOM     12  H   UNL     1      -2.039   1.182  -7.882  0.00  0.00    +0.144 HD
ENDBRANCH   2  10
BRANCH   1  13
ATOM     13  C   UNL     1      -0.253  -0.100  -4.793  0.00  0.00    +0.155 C 
ATOM     14  O   UNL     1      -1.247   0.581  -4.639  0.00  0.00    -0.294 OA
BRANCH  13  15
ATOM     15  C   UNL     1       0.548  -0.545  -3.597  0.00  0.00    +0.002 C 
BRANCH  15  16
ATOM     16  N   UNL     1      -0.076  -0.031  -2.371  0.00  0.00    +0.383 N 
ATOM     17  C   UNL     1      -0.003   1.437  -2.362  0.00  0.00    -0.096 C 
ATOM     18  H   UNL     1      -1.042  -0.320  -2.338  0.00  0.00    -0.082 HD
BRANCH  16  19
ATOM     19  C   UNL     1       0.634  -0.563  -1.200  0.00  0.00    -0.071 C 
BRANCH  19  21
ATOM     20  C   UNL     1       0.694  -0.608   1.298  0.00  0.00    +0.010 C 
ATOM     21  C   UNL     1      -0.103  -0.148   0.075  0.00  0.00    -0.001 C 
BRANCH  21  22
ATOM     22  C   UNL     1      -1.468  -0.787   0.097  0.00  0.00    -0.046 A 
ATOM     23  C   UNL     1      -1.587  -2.164   0.081  0.00  0.00    +0.004 A 
ATOM     24  C   UNL     1      -2.839  -2.750   0.100  0.00  0.00    +0.000 A 
ATOM     25  C   UNL     1      -3.972  -1.959   0.137  0.00  0.00    +0.000 A 
ATOM     26  C   UNL     1      -3.853  -0.582   0.154  0.00  0.00    +0.000 A 
ATOM     27  C   UNL     1      -2.601   0.004   0.138  0.00  0.00    +0.004 A 
ENDBRANCH  21  22
ENDBRANCH  19  21
ENDBRANCH  16  19
ENDBRANCH  15  16
ENDBRANCH  13  15
ENDBRANCH   1  13
BRANCH   3  28
ATOM     28  C   UNL     1      -0.731   0.184  -9.658  0.00  0.00    +0.131 C 
BRANCH  28  29
ATOM     29  C   UNL     1      -0.034   1.473 -10.100  0.00  0.00    +0.003 C 
ATOM     30  C   UNL     1      -0.648   1.961 -11.413  0.00  0.00    +0.009 C 
ATOM     31  C   UNL     1      -0.214   2.545  -9.023  0.00  0.00    +0.009 C 
ENDBRANCH  28  29
ENDBRANCH   3  28
TORSDOF 9
