REMARK  Name = ZINC39963513
REMARK  11 active torsions:
REMARK  status: ('A' for Active; 'I' for Inactive)
REMARK    1  A    between atoms: C_1  and  C_2
REMARK    2  A    between atoms: C_2  and  C_3
REMARK    3  A    between atoms: C_3  and  C_4
REMARK    4  A    between atoms: C_6  and  C_18
REMARK    5  A    between atoms: C_8  and  C_16
REMARK    6  A    between atoms: C_9  and  N_15
REMARK    7  A    between atoms: C_21  and  O_26
REMARK    8  A    between atoms: C_22  and  O_24
REMARK    9  A    between atoms: O_24  and  C_25
REMARK   10  A    between atoms: O_26  and  C_27
REMARK   11  A    between atoms: C_27  and  C_28
REMARK                            x       y       z     vdW  Elec       q    Type
REMARK                         _______ _______ _______ _____ _____    ______ ____
ROOT
ATOM      1  C   UNL     1      -1.413  -2.041   0.005  0.00  0.00    +0.069 C 
ATOM      2  C   UNL     1      -1.491  -2.797   1.073  0.00  0.00    +0.030 C 
ATOM      3  C   UNL     1      -1.483  -2.509   2.549  0.00  0.00    +0.098 C 
ATOM      4  C   UNL     1      -0.593  -3.572   3.166  0.00  0.00    +0.097 C 
ATOM      5  C   UNL     1      -0.140  -4.621   2.448  0.00  0.00    +0.195 C 
ATOM      6  O   UNL     1      -0.367  -4.862   1.145  0.00  0.00    -0.448 OA
ATOM      7  C   UNL     1      -1.503  -4.232   0.545  0.00  0.00    +0.343 C 
ATOM      8  N   UNL     1      -1.327  -4.028  -0.896  0.00  0.00    -0.138 NA
ATOM      9  N   UNL     1      -1.316  -2.809  -1.110  0.00  0.00    -0.155 NA
ENDROOT
BRANCH   3  10
ATOM     10  C   UNL     1      -2.880  -2.608   3.107  0.00  0.00    -0.031 A 
ATOM     11  C   UNL     1      -3.576  -3.799   3.018  0.00  0.00    +0.008 A 
ATOM     12  C   UNL     1      -4.857  -3.895   3.527  0.00  0.00    +0.050 A 
ATOM     13  C   UNL     1      -5.447  -2.795   4.130  0.00  0.00    +0.162 A 
ATOM     14  C   UNL     1      -4.746  -1.596   4.221  0.00  0.00    +0.162 A 
ATOM     15  C   UNL     1      -3.460  -1.509   3.712  0.00  0.00    +0.054 A 
BRANCH  14  16
ATOM     16  O   UNL     1      -5.320  -0.514   4.811  0.00  0.00    -0.491 OA
ATOM     17  C   UNL     1      -4.542   0.683   4.868  0.00  0.00    +0.277 C 
ENDBRANCH  14  16
BRANCH  13  18
ATOM     18  O   UNL     1      -6.707  -2.887   4.632  0.00  0.00    -0.484 OA
BRANCH  18  19
ATOM     19  C   UNL     1      -7.366  -4.149   4.503  0.00  0.00    +0.267 C 
BRANCH  19  20
ATOM     20  C   UNL     1      -8.742  -4.061   5.112  0.00  0.00    +0.025 A 
ATOM     21  C   UNL     1      -9.177  -2.874   5.671  0.00  0.00    +0.010 A 
ATOM     22  C   UNL     1     -10.438  -2.794   6.229  0.00  0.00    +0.001 A 
ATOM     23  C   UNL     1     -11.268  -3.900   6.229  0.00  0.00    +0.003 A 
ATOM     24  C   UNL     1     -10.836  -5.088   5.670  0.00  0.00    +0.039 A 
ATOM     25  C   UNL     1      -9.573  -5.168   5.106  0.00  0.00    +0.130 A 
ATOM     26  F   UNL     1      -9.152  -6.328   4.555  0.00  0.00    -0.205 F 
ENDBRANCH  19  20
ENDBRANCH  18  19
ENDBRANCH  13  18
ENDBRANCH   3  10
BRANCH   5  27
ATOM     27  N   UNL     1       0.634  -5.537   3.117  0.00  0.00    -0.329 N 
ATOM     28  H   UNL     1       0.829  -5.411   4.059  0.00  0.00    +0.145 HD
ATOM     29  H   UNL     1       0.985  -6.309   2.648  0.00  0.00    +0.145 HD
ENDBRANCH   5  27
BRANCH   4  30
ATOM     30  C   UNL     1      -0.224  -3.459   4.545  0.00  0.00    +0.101 C 
ATOM     31  N   UNL     1       0.069  -3.369   5.639  0.00  0.00    -0.191 NA
ENDBRANCH   4  30
BRANCH   1  32
ATOM     32  C   UNL     1      -1.433  -0.534   0.013  0.00  0.00    +0.057 C 
BRANCH  32  34
ATOM     33  C   UNL     1      -0.019   1.526   0.010  0.00  0.00    +0.004 C 
ATOM     34  C   UNL     1       0.002  -0.004   0.002  0.00  0.00    +0.003 C 
ENDBRANCH  32  34
ENDBRANCH   1  32
TORSDOF 9
