REMARK  Name = ZINC01973819
REMARK  7 active torsions:
REMARK  status: ('A' for Active; 'I' for Inactive)
REMARK    1  A    between atoms: C_1  and  C_2
REMARK    2  A    between atoms: C_2  and  O_3
REMARK    3  A    between atoms: O_3  and  C_4
REMARK    4  A    between atoms: C_4  and  C_6
REMARK    5  A    between atoms: C_10  and  N_11
REMARK    6  A    between atoms: C_12  and  C_14
REMARK    7  A    between atoms: C_24  and  C_26
REMARK                            x       y       z     vdW  Elec       q    Type
REMARK                         _______ _______ _______ _____ _____    ______ ____
ROOT
ATOM      1  C   UNL     1       3.405   1.952  -1.707  0.00  0.00    +0.091 A 
ATOM      2  C   UNL     1       2.172   1.420  -1.152  0.00  0.00    -0.019 A 
ATOM      3  C   UNL     1       1.723   0.286  -1.732  0.00  0.00    -0.004 A 
ATOM      4  S   UNL     1       2.908  -0.078  -2.995  0.00  0.00    -0.077 S 
ATOM      5  C   UNL     1       3.988   1.256  -2.759  0.00  0.00    +0.087 A 
ATOM      6  C   UNL     1       0.489  -0.484  -1.373  0.00  0.00    +0.043 C 
ATOM      7  C   UNL     1       0.002  -0.004   0.002  0.00  0.00    +0.006 C 
ATOM      8  C   UNL     1      -0.019   1.527   0.010  0.00  0.00    +0.008 C 
ATOM      9  C   UNL     1       1.413   2.067  -0.000  0.00  0.00    +0.018 C 
ATOM     10  C   UNL     1       1.387   3.585  -0.191  0.00  0.00    +0.012 C 
ENDROOT
BRANCH   5  11
ATOM     11  N   UNL     1       5.150   1.556  -3.450  0.00  0.00    -0.275 N 
ATOM     12  C   UNL     1       5.563   0.755  -4.452  0.00  0.00    +0.249 C 
ATOM     13  O   UNL     1       4.917  -0.231  -4.749  0.00  0.00    -0.270 OA
ATOM     14  H   UNL     1       5.735   2.448  -3.182  0.00  0.00    +0.156 HD
BRANCH  12  15
ATOM     15  C   UNL     1       6.803   1.075  -5.190  0.00  0.00    +0.037 A 
ATOM     16  C   UNL     1       7.544   2.210  -4.856  0.00  0.00    +0.014 A 
ATOM     17  C   UNL     1       8.703   2.500  -5.545  0.00  0.00    +0.016 A 
ATOM     18  C   UNL     1       9.126   1.675  -6.574  0.00  0.00    +0.018 A 
ATOM     19  C   UNL     1       8.392   0.551  -6.914  0.00  0.00    +0.016 A 
ATOM     20  C   UNL     1       7.234   0.247  -6.229  0.00  0.00    +0.014 A 
ATOM     21 BR   UNL     1      10.712   2.085  -7.518  0.00  0.00    -0.050 Br
ENDBRANCH  12  15
ENDBRANCH   5  11
BRANCH   1  22
ATOM     22  C   UNL     1       4.011   3.176  -1.178  0.00  0.00    +0.342 C 
ATOM     23  O   UNL     1       4.819   3.111  -0.271  0.00  0.00    -0.245 OA
BRANCH  22  24
ATOM     24  O   UNL     1       3.672   4.375  -1.696  0.00  0.00    -0.461 OA
BRANCH  24  26
ATOM     25  C   UNL     1       3.807   6.802  -1.833  0.00  0.00    +0.048 C 
ATOM     26  C   UNL     1       4.312   5.545  -1.122  0.00  0.00    +0.229 C 
ENDBRANCH  24  26
ENDBRANCH  22  24
ENDBRANCH   1  22
TORSDOF 5
