REMARK  Name = ZINC20176322
REMARK  10 active torsions:
REMARK  status: ('A' for Active; 'I' for Inactive)
REMARK    1  A    between atoms: C_1  and  C_2
REMARK    2  A    between atoms: C_2  and  O_3
REMARK    3  A    between atoms: O_3  and  C_4
REMARK    4  A    between atoms: C_7  and  N_10
REMARK    5  A    between atoms: N_12  and  C_22
REMARK    6  A    between atoms: C_13  and  C_16
REMARK    7  A    between atoms: C_22  and  C_23
REMARK    8  A    between atoms: C_23  and  C_24
REMARK    9  A    between atoms: C_27  and  S_30
REMARK   10  A    between atoms: S_30  and  N_33
REMARK                            x       y       z     vdW  Elec       q    Type
REMARK                         _______ _______ _______ _____ _____    ______ ____
ROOT
ATOM      1  N   UNL     1       3.614  -0.315  -0.100  0.00  0.00    -0.336 N 
ATOM      2  C   UNL     1       2.358   0.088  -0.053  0.00  0.00    +0.152 A 
ATOM      3  N   UNL     1       1.206  -0.663  -0.014  0.00  0.00    -0.320 N 
ATOM      4  C   UNL     1       0.001  -0.014   0.032  0.00  0.00    +0.064 A 
ATOM      5  C   UNL     1      -0.028   1.337   0.038  0.00  0.00    +0.075 A 
ATOM      6  S   UNL     1       1.707   1.750  -0.023  0.00  0.00    -0.059 S 
ATOM      7  H   UNL     1       3.845  -1.386  -0.195  0.00  0.00    +0.168 HD
ENDROOT
BRANCH   1  11
ATOM      8  C   UNL     1       6.685   2.454   0.114  0.00  0.00    +0.121 A 
ATOM      9  C   UNL     1       6.113   1.965   1.279  0.00  0.00    +0.047 A 
ATOM     10  C   UNL     1       5.090   1.042   1.214  0.00  0.00    +0.029 A 
ATOM     11  C   UNL     1       4.629   0.601  -0.029  0.00  0.00    +0.041 A 
ATOM     12  C   UNL     1       5.212   1.092  -1.199  0.00  0.00    +0.029 A 
ATOM     13  C   UNL     1       6.231   2.018  -1.123  0.00  0.00    +0.047 A 
BRANCH   8  14
ATOM     14  O   UNL     1       7.694   3.364   0.184  0.00  0.00    -0.492 OA
BRANCH  14  16
ATOM     15  C   UNL     1       9.352   4.836  -0.776  0.00  0.00    +0.048 C 
ATOM     16  C   UNL     1       8.237   3.826  -1.054  0.00  0.00    +0.225 C 
ENDBRANCH  14  16
ENDBRANCH   8  14
ENDBRANCH   1  11
BRANCH   4  17
ATOM     17  C   UNL     1      -1.255  -0.784   0.075  0.00  0.00    +0.038 A 
ATOM     18  C   UNL     1      -2.541  -0.331   0.215  0.00  0.00    +0.019 A 
ATOM     19  C   UNL     1      -3.568  -1.250   0.227  0.00  0.00    +0.028 A 
ATOM     20  C   UNL     1      -3.276  -2.570   0.100  0.00  0.00    +0.079 A 
ATOM     21  S   UNL     1      -1.497  -2.548  -0.050  0.00  0.00    -0.075 S 
ATOM     22 CL   UNL     1      -4.356  -3.929   0.082  0.00  0.00    -0.076 Cl
ENDBRANCH   4  17
BRANCH   3  23
ATOM     23  C   UNL     1       1.267  -2.127  -0.022  0.00  0.00    +0.129 C 
BRANCH  23  24
ATOM     24  C   UNL     1       1.176  -2.649   1.413  0.00  0.00    +0.057 C 
BRANCH  24  25
ATOM     25  C   UNL     1       1.238  -4.154   1.405  0.00  0.00    -0.046 A 
ATOM     26  C   UNL     1       0.074  -4.894   1.314  0.00  0.00    +0.005 A 
ATOM     27  C   UNL     1       0.132  -6.275   1.301  0.00  0.00    +0.029 A 
ATOM     28  C   UNL     1       1.353  -6.917   1.391  0.00  0.00    +0.105 A 
ATOM     29  C   UNL     1       2.517  -6.177   1.487  0.00  0.00    +0.029 A 
ATOM     30  C   UNL     1       2.459  -4.796   1.494  0.00  0.00    +0.005 A 
BRANCH  28  31
ATOM     31  S   UNL     1       1.426  -8.677   1.382  0.00  0.00    +0.056 S 
ATOM     32  O   UNL     1       0.245  -9.129   0.734  0.00  0.00    -0.153 OA
ATOM     33  O   UNL     1       2.726  -9.028   0.928  0.00  0.00    -0.153 OA
BRANCH  31  34
ATOM     34  N   UNL     1       1.323  -9.179   2.957  0.00  0.00    -0.204 NA
ATOM     35  H   UNL     1       1.365 -10.277   2.995  0.00  0.00    +0.144 HD
ATOM     36  H   UNL     1       0.373  -8.833   3.391  0.00  0.00    +0.144 HD
ENDBRANCH  31  34
ENDBRANCH  28  31
ENDBRANCH  24  25
ENDBRANCH  23  24
ENDBRANCH   3  23
TORSDOF 9
