REMARK  Name = ZINC00995700
REMARK  4 active torsions:
REMARK  status: ('A' for Active; 'I' for Inactive)
REMARK    1  A    between atoms: C_1  and  C_2
REMARK    2  A    between atoms: C_9  and  N_13
REMARK    3  A    between atoms: C_10  and  C_11
REMARK    4  A    between atoms: C_14  and  C_16
REMARK                            x       y       z     vdW  Elec       q    Type
REMARK                         _______ _______ _______ _____ _____    ______ ____
ROOT
ATOM      1  C   UNL     1      -1.397  -0.538   0.318  0.00  0.00    +0.008 C 
ATOM      2  C   UNL     1       0.002  -0.004   0.002  0.00  0.00    -0.009 C 
ATOM      3  C   UNL     1       0.992  -0.490   1.064  0.00  0.00    +0.008 C 
ATOM      4  C   UNL     1       2.423  -0.174   0.625  0.00  0.00    +0.037 C 
ATOM      5  C   UNL     1       2.510   1.304   0.265  0.00  0.00    -0.018 A 
ATOM      6  C   UNL     1       1.396   2.022  -0.000  0.00  0.00    -0.004 A 
ATOM      7  S   UNL     1       1.984   3.653  -0.358  0.00  0.00    -0.077 S 
ATOM      8  C   UNL     1       3.685   3.387  -0.160  0.00  0.00    +0.090 A 
ATOM      9  C   UNL     1       3.757   2.044   0.178  0.00  0.00    +0.084 A 
ATOM     10  C   UNL     1      -0.019   1.531   0.011  0.00  0.00    +0.046 C 
ENDROOT
BRANCH   8  11
ATOM     11  N   UNL     1       4.722   4.296  -0.305  0.00  0.00    -0.272 N 
ATOM     12  C   UNL     1       4.456   5.574  -0.642  0.00  0.00    +0.284 C 
ATOM     13  O   UNL     1       3.305   5.930  -0.819  0.00  0.00    -0.266 OA
ATOM     14  H   UNL     1       5.638   4.013  -0.164  0.00  0.00    +0.156 HD
BRANCH  12  15
ATOM     15  C   UNL     1       5.551   6.534  -0.795  0.00  0.00    +0.191 A 
ATOM     16  C   UNL     1       5.422   7.852  -1.131  0.00  0.00    +0.056 A 
ATOM     17  C   UNL     1       6.718   8.389  -1.164  0.00  0.00    +0.058 A 
ATOM     18  C   UNL     1       7.572   7.388  -0.850  0.00  0.00    +0.171 A 
ATOM     19  O   UNL     1       6.864   6.273  -0.623  0.00  0.00    -0.444 OA
ATOM     20 BR   UNL     1       9.454   7.539  -0.742  0.00  0.00    -0.008 Br
ENDBRANCH  12  15
ENDBRANCH   8  11
BRANCH   9  21
ATOM     21  C   UNL     1       5.015   1.409   0.432  0.00  0.00    +0.102 C 
ATOM     22  N   UNL     1       6.014   0.905   0.634  0.00  0.00    -0.191 NA
ENDBRANCH   9  21
TORSDOF 3
