REMARK  Name = ZINC19972801
REMARK  5 active torsions:
REMARK  status: ('A' for Active; 'I' for Inactive)
REMARK    1  A    between atoms: C_1  and  C_2
REMARK    2  A    between atoms: C_3  and  C_19
REMARK    3  A    between atoms: C_4  and  C_14
REMARK    4  A    between atoms: C_19  and  O_21
REMARK    5  A    between atoms: O_21  and  C_22
REMARK                            x       y       z     vdW  Elec       q    Type
REMARK                         _______ _______ _______ _____ _____    ______ ____
ROOT
ATOM      1  C   UNL     1       5.508  -0.698  -2.840  0.00  0.00    +0.061 C 
ATOM      2  C   UNL     1       4.481  -0.027  -1.965  0.00  0.00    +0.016 C 
ATOM      3  C   UNL     1       4.780   1.131  -1.352  0.00  0.00    +0.066 C 
ATOM      4  C   UNL     1       3.786   1.823  -0.466  0.00  0.00    +0.099 C 
ATOM      5  C   UNL     1       2.389   1.313  -0.717  0.00  0.00    +0.024 C 
ATOM      6  C   UNL     1       2.188   0.143  -1.360  0.00  0.00    +0.015 C 
ATOM      7  N   UNL     1       3.251  -0.600  -1.799  0.00  0.00    -0.321 N 
ATOM      8  C   UNL     1       0.794  -0.374  -1.616  0.00  0.00    +0.051 C 
ATOM      9  C   UNL     1      -0.140   0.094  -0.498  0.00  0.00    +0.014 C 
ATOM     10  C   UNL     1      -0.113   1.626  -0.452  0.00  0.00    +0.080 C 
ATOM     11  C   UNL     1       1.307   2.085  -0.261  0.00  0.00    +0.162 C 
ATOM     12  O   UNL     1       1.522   3.142   0.299  0.00  0.00    -0.292 OA
ATOM     13  H   UNL     1       3.108  -1.669  -2.019  0.00  0.00    +0.152 HD
ENDROOT
BRANCH   4  14
ATOM     14  C   UNL     1       4.151   1.576   0.975  0.00  0.00    +0.002 A 
ATOM     15  C   UNL     1       4.491   2.471   1.935  0.00  0.00    +0.012 A 
ATOM     16  C   UNL     1       4.789   2.011   3.204  0.00  0.00    +0.008 A 
ATOM     17  C   UNL     1       4.734   0.680   3.451  0.00  0.00    +0.045 A 
ATOM     18  S   UNL     1       4.241   0.030   1.863  0.00  0.00    -0.101 S 
ENDBRANCH   4  14
BRANCH   3  19
ATOM     19  C   UNL     1       6.057   1.709  -1.545  0.00  0.00    +0.338 C 
ATOM     20  O   UNL     1       6.180   2.688  -2.256  0.00  0.00    -0.245 OA
BRANCH  19  21
ATOM     21  O   UNL     1       7.138   1.174  -0.940  0.00  0.00    -0.458 OA
BRANCH  21  22
ATOM     22  C   UNL     1       8.396   1.808  -1.180  0.00  0.00    +0.177 C 
ATOM     23  C   UNL     1       9.019   1.215  -2.460  0.00  0.00    +0.044 C 
ATOM     24  C   UNL     1      10.038   2.186  -2.990  0.00  0.00    +0.004 C 
ATOM     25  C   UNL     1      11.463   1.875  -2.495  0.00  0.00    +0.000 C 
ATOM     26  C   UNL     1      11.506   1.481  -1.006  0.00  0.00    +0.000 C 
ATOM     27  C   UNL     1      10.606   2.338  -0.158  0.00  0.00    +0.004 C 
ATOM     28  C   UNL     1       9.246   1.625  -0.013  0.00  0.00    +0.044 C 
ENDBRANCH  21  22
ENDBRANCH  19  21
ENDBRANCH   3  19
TORSDOF 4
