REMARK  Name = ZINC14734559
REMARK  15 active torsions:
REMARK  status: ('A' for Active; 'I' for Inactive)
REMARK    1  A    between atoms: C_1  and  C_2
REMARK    2  A    between atoms: C_2  and  C_3
REMARK    3  A    between atoms: C_2  and  C_4
REMARK    4  A    between atoms: C_7  and  O_10
REMARK    5  A    between atoms: O_10  and  C_11
REMARK    6  A    between atoms: C_11  and  C_12
REMARK    7  A    between atoms: N_14  and  C_15
REMARK    8  A    between atoms: N_14  and  C_20
REMARK    9  A    between atoms: C_15  and  C_16
REMARK   10  A    between atoms: C_16  and  C_17
REMARK   11  A    between atoms: C_17  and  O_18
REMARK   12  A    between atoms: O_18  and  C_19
REMARK   13  A    between atoms: C_21  and  N_36
REMARK   14  A    between atoms: N_22  and  C_29
REMARK   15  A    between atoms: C_29  and  C_30
REMARK                            x       y       z     vdW  Elec       q    Type
REMARK                         _______ _______ _______ _____ _____    ______ ____
ROOT
ATOM      1  C   UNL     1       2.319   5.023  -0.093  0.00  0.00    +0.258 C 
ATOM      2  O   UNL     1       1.252   5.598  -0.129  0.00  0.00    -0.272 OA
ATOM      3  N   UNL     1       2.359   3.681   0.046  0.00  0.00    -0.261 N 
ENDROOT
BRANCH   3   4
ATOM      4  C   UNL     1       1.160   2.937   0.045  0.00  0.00    +0.140 A 
ATOM      5  C   UNL     1       0.748   2.269   1.181  0.00  0.00    +0.128 A 
ATOM      6  N   UNL     1      -0.425   1.552   1.149  0.00  0.00    -0.276 N 
ATOM      7  C   UNL     1      -1.165   1.506   0.027  0.00  0.00    +0.331 A 
ATOM      8  O   UNL     1      -2.202   0.870   0.021  0.00  0.00    -0.246 OA
ATOM      9  N   UNL     1      -0.777   2.146  -1.090  0.00  0.00    -0.273 N 
ATOM     10  H   UNL     1      -1.342   2.090  -1.914  0.00  0.00    +0.173 HD
ATOM     11  C   UNL     1       0.364   2.863  -1.113  0.00  0.00    +0.277 A 
ATOM     12  O   UNL     1       0.704   3.443  -2.130  0.00  0.00    -0.266 OA
BRANCH   5  13
ATOM     13  N   UNL     1       1.502   2.319   2.329  0.00  0.00    -0.343 N 
ATOM     14  H   UNL     1       2.349   2.791   2.333  0.00  0.00    +0.144 HD
ATOM     15  H   UNL     1       1.187   1.883   3.135  0.00  0.00    +0.144 HD
ENDBRANCH   5  13
BRANCH   6  16
ATOM     16  C   UNL     1      -0.874   0.838   2.347  0.00  0.00    +0.163 C 
BRANCH  16  17
ATOM     17  C   UNL     1      -1.744   1.746   3.177  0.00  0.00    -0.028 A 
ATOM     18  C   UNL     1      -1.178   2.544   4.153  0.00  0.00    +0.005 A 
ATOM     19  C   UNL     1      -1.975   3.381   4.911  0.00  0.00    +0.000 A 
ATOM     20  C   UNL     1      -3.341   3.412   4.699  0.00  0.00    +0.000 A 
ATOM     21  C   UNL     1      -3.908   2.611   3.726  0.00  0.00    +0.000 A 
ATOM     22  C   UNL     1      -3.110   1.778   2.965  0.00  0.00    +0.005 A 
ENDBRANCH  16  17
ENDBRANCH   6  16
ENDBRANCH   3   4
BRANCH   1  23
ATOM     23  C   UNL     1       3.602   5.806  -0.205  0.00  0.00    +0.325 C 
BRANCH  23  24
ATOM     24  O   UNL     1       3.300   7.197  -0.343  0.00  0.00    -0.483 OA
BRANCH  24  28
ATOM     25  C   UNL     1       6.497   9.782  -0.687  0.00  0.00    -0.045 A 
ATOM     26  C   UNL     1       5.205  10.274  -0.709  0.00  0.00    +0.007 A 
ATOM     27  C   UNL     1       4.133   9.411  -0.594  0.00  0.00    +0.046 A 
ATOM     28  C   UNL     1       4.353   8.048  -0.456  0.00  0.00    +0.121 A 
ATOM     29  C   UNL     1       5.650   7.557  -0.429  0.00  0.00    +0.046 A 
ATOM     30  C   UNL     1       6.719   8.424  -0.550  0.00  0.00    +0.007 A 
BRANCH  25  32
ATOM     31  C   UNL     1       8.544  10.618   0.435  0.00  0.00    +0.012 C 
ATOM     32  C   UNL     1       7.664  10.726  -0.812  0.00  0.00    +0.013 C 
ATOM     33  C   UNL     1       8.487  10.359  -2.049  0.00  0.00    +0.012 C 
ENDBRANCH  25  32
ENDBRANCH  24  28
ENDBRANCH  23  24
ENDBRANCH   1  23
BRANCH   3  34
ATOM     34  C   UNL     1       3.646   2.998   0.198  0.00  0.00    +0.116 C 
BRANCH  34  35
ATOM     35  C   UNL     1       4.247   2.731  -1.183  0.00  0.00    +0.047 C 
BRANCH  35  36
ATOM     36  C   UNL     1       5.591   2.017  -1.024  0.00  0.00    +0.161 C 
BRANCH  36  37
ATOM     37  O   UNL     1       6.154   1.768  -2.314  0.00  0.00    -0.383 OA
ATOM     38  C   UNL     1       7.417   1.101  -2.279  0.00  0.00    +0.193 C 
ENDBRANCH  36  37
ENDBRANCH  35  36
ENDBRANCH  34  35
ENDBRANCH   3  34
TORSDOF 12
