REMARK  Name = ZINC20205462
REMARK  8 active torsions:
REMARK  status: ('A' for Active; 'I' for Inactive)
REMARK    1  A    between atoms: C_1  and  O_2
REMARK    2  A    between atoms: O_2  and  C_3
REMARK    3  A    between atoms: C_5  and  C_19
REMARK    4  A    between atoms: C_8  and  O_9
REMARK    5  A    between atoms: O_9  and  S_10
REMARK    6  A    between atoms: S_10  and  C_13
REMARK    7  A    between atoms: C_30  and  S_31
REMARK    8  A    between atoms: S_31  and  C_32
REMARK                            x       y       z     vdW  Elec       q    Type
REMARK                         _______ _______ _______ _____ _____    ______ ____
ROOT
ATOM      1  C   UNL     1       0.290  -0.991  -1.409  0.00  0.00    +0.165 A 
ATOM      2  C   UNL     1       1.011  -0.118  -2.198  0.00  0.00    +0.057 A 
ATOM      3  C   UNL     1       1.627  -0.584  -3.369  0.00  0.00    -0.021 A 
ATOM      4  C   UNL     1       1.506  -1.933  -3.730  0.00  0.00    +0.012 A 
ATOM      5  C   UNL     1       0.786  -2.795  -2.935  0.00  0.00    +0.053 A 
ATOM      6  C   UNL     1       0.181  -2.334  -1.773  0.00  0.00    +0.198 A 
ENDROOT
BRANCH   3   7
ATOM      7  C   UNL     1       2.392   0.337  -4.212  0.00  0.00    +0.024 C 
ATOM      8  C   UNL     1       3.538  -0.096  -4.840  0.00  0.00    +0.079 C 
ATOM      9  C   UNL     1       4.249   0.743  -5.848  0.00  0.00    +0.137 C 
ATOM     10  N   UNL     1       4.286   2.047  -5.801  0.00  0.00    -0.284 NA
ATOM     11  N   UNL     1       4.876  -0.015  -6.858  0.00  0.00    -0.211 N 
ATOM     12  C   UNL     1       5.202  -1.329  -6.586  0.00  0.00    +0.183 C 
ATOM     13  N   UNL     1       4.898  -2.002  -5.498  0.00  0.00    -0.152 NA
ATOM     14  C   UNL     1       4.138  -1.421  -4.548  0.00  0.00    +0.273 C 
ATOM     15  O   UNL     1       3.946  -1.971  -3.476  0.00  0.00    -0.268 OA
ATOM     16  S   UNL     1       6.027  -1.811  -7.952  0.00  0.00    +0.048 S 
ATOM     17  N   UNL     1       5.864  -0.423  -8.877  0.00  0.00    -0.185 NA
ATOM     18  C   UNL     1       5.217   0.405  -8.102  0.00  0.00    +0.175 C 
ATOM     19  H   UNL     1       3.837   2.519  -5.082  0.00  0.00    +0.188 HD
BRANCH  18  20
ATOM     20  S   UNL     1       4.800   2.025  -8.657  0.00  0.00    -0.093 S 
ATOM     21  C   UNL     1       5.462   2.095 -10.345  0.00  0.00    +0.093 C 
ENDBRANCH  18  20
ENDBRANCH   3   7
BRANCH   1  23
ATOM     22  C   UNL     1      -0.154   0.842   0.039  0.00  0.00    +0.277 C 
ATOM     23  O   UNL     1      -0.308  -0.544  -0.272  0.00  0.00    -0.491 OA
ENDBRANCH   1  23
BRANCH   6  24
ATOM     24  O   UNL     1      -0.524  -3.191  -0.991  0.00  0.00    -0.339 OA
BRANCH  24  25
ATOM     25  S   UNL     1      -1.998  -3.292  -1.355  0.00  0.00    +0.151 S 
ATOM     26  O   UNL     1      -2.619  -4.053  -0.328  0.00  0.00    -0.131 OA
ATOM     27  O   UNL     1      -2.424  -1.979  -1.694  0.00  0.00    -0.131 OA
BRANCH  25  28
ATOM     28  C   UNL     1      -2.106  -4.253  -2.828  0.00  0.00    +0.128 A 
ATOM     29  C   UNL     1      -2.049  -3.634  -4.063  0.00  0.00    +0.030 A 
ATOM     30  C   UNL     1      -2.133  -4.387  -5.218  0.00  0.00    +0.002 A 
ATOM     31  C   UNL     1      -2.275  -5.760  -5.140  0.00  0.00    +0.000 A 
ATOM     32  C   UNL     1      -2.331  -6.379  -3.905  0.00  0.00    +0.002 A 
ATOM     33  C   UNL     1      -2.242  -5.626  -2.749  0.00  0.00    +0.030 A 
ENDBRANCH  25  28
ENDBRANCH  24  25
ENDBRANCH   6  24
TORSDOF 6
