REMARK  Name = ZINC59384258
REMARK  11 active torsions:
REMARK  status: ('A' for Active; 'I' for Inactive)
REMARK    1  A    between atoms: C_1  and  C_2
REMARK    2  A    between atoms: C_3  and  C_19
REMARK    3  A    between atoms: C_4  and  C_10
REMARK    4  A    between atoms: C_13  and  O_18
REMARK    5  A    between atoms: C_14  and  O_16
REMARK    6  A    between atoms: O_16  and  C_17
REMARK    7  A    between atoms: N_21  and  N_22
REMARK    8  A    between atoms: C_23  and  C_24
REMARK    9  A    between atoms: C_27  and  N_30
REMARK   10  A    between atoms: N_30  and  C_31
REMARK   11  A    between atoms: N_30  and  C_32
REMARK                            x       y       z     vdW  Elec       q    Type
REMARK                         _______ _______ _______ _____ _____    ______ ____
ROOT
ATOM      1  C   UNL     1       0.129   1.405   0.548  0.00  0.00    +0.061 C 
ATOM      2  C   UNL     1       0.101  -0.067   0.226  0.00  0.00    +0.017 C 
ATOM      3  C   UNL     1      -1.080  -0.667  -0.033  0.00  0.00    +0.057 C 
ATOM      4  C   UNL     1      -1.063  -2.148  -0.352  0.00  0.00    +0.139 C 
ATOM      5  N   UNL     1       0.250  -2.816  -0.355  0.00  0.00    -0.315 N 
ATOM      6  C   UNL     1       1.344  -2.079  -0.077  0.00  0.00    +0.135 C 
ATOM      7  S   UNL     1       2.877  -2.841  -0.076  0.00  0.00    -0.019 S 
ATOM      8  N   UNL     1       1.272  -0.770   0.194  0.00  0.00    -0.300 N 
ATOM      9  H   UNL     1       0.326  -3.762  -0.552  0.00  0.00    +0.149 HD
ATOM     10  H   UNL     1       2.096  -0.295   0.382  0.00  0.00    +0.154 HD
ENDROOT
BRANCH   4  11
ATOM     11  C   UNL     1      -1.682  -2.337  -1.714  0.00  0.00    -0.019 A 
ATOM     12  C   UNL     1      -2.852  -3.062  -1.845  0.00  0.00    +0.009 A 
ATOM     13  C   UNL     1      -3.423  -3.238  -3.091  0.00  0.00    +0.049 A 
ATOM     14  C   UNL     1      -2.823  -2.687  -4.212  0.00  0.00    +0.158 A 
ATOM     15  C   UNL     1      -1.646  -1.957  -4.080  0.00  0.00    +0.162 A 
ATOM     16  C   UNL     1      -1.081  -1.781  -2.827  0.00  0.00    +0.055 A 
BRANCH  15  17
ATOM     17  O   UNL     1      -1.053  -1.415  -5.178  0.00  0.00    -0.491 OA
ATOM     18  C   UNL     1       0.210  -0.777  -4.984  0.00  0.00    +0.277 C 
ENDBRANCH  15  17
BRANCH  14  19
ATOM     19  O   UNL     1      -3.384  -2.860  -5.439  0.00  0.00    -0.503 OA
ATOM     20  H   UNL     1      -4.017  -2.170  -5.683  0.00  0.00    +0.292 HD
ENDBRANCH  14  19
ENDBRANCH   4  11
BRANCH   3  21
ATOM     21  C   UNL     1      -2.294   0.062  -0.006  0.00  0.00    +0.263 C 
ATOM     22  O   UNL     1      -2.275   1.271   0.137  0.00  0.00    -0.269 OA
ATOM     23  N   UNL     1      -3.470  -0.583  -0.137  0.00  0.00    -0.203 N 
ATOM     24  H   UNL     1      -3.491  -1.552  -0.175  0.00  0.00    +0.178 HD
BRANCH  23  25
ATOM     25  N   UNL     1      -4.663   0.147  -0.219  0.00  0.00    -0.187 NA
ATOM     26  C   UNL     1      -5.803  -0.474  -0.248  0.00  0.00    +0.138 C 
BRANCH  26  27
ATOM     27  C   UNL     1      -7.051   0.285  -0.445  0.00  0.00    -0.005 A 
ATOM     28  C   UNL     1      -7.008   1.673  -0.608  0.00  0.00    +0.011 A 
ATOM     29  C   UNL     1      -8.177   2.379  -0.793  0.00  0.00    +0.024 A 
ATOM     30  C   UNL     1      -9.398   1.713  -0.817  0.00  0.00    +0.029 A 
ATOM     31  C   UNL     1      -9.444   0.332  -0.656  0.00  0.00    +0.024 A 
ATOM     32  C   UNL     1      -8.279  -0.381  -0.476  0.00  0.00    +0.011 A 
BRANCH  30  33
ATOM     33  N   UNL     1     -10.578   2.432  -1.004  0.00  0.00    -0.336 N 
ATOM     34  C   UNL     1     -10.524   3.861  -1.318  0.00  0.00    +0.129 C 
ATOM     35  C   UNL     1     -11.873   1.756  -0.886  0.00  0.00    +0.129 C 
ENDBRANCH  30  33
ENDBRANCH  26  27
ENDBRANCH  23  25
ENDBRANCH   3  21
TORSDOF 7
