REMARK  Name = ZINC33326492
REMARK  7 active torsions:
REMARK  status: ('A' for Active; 'I' for Inactive)
REMARK    1  A    between atoms: C_4  and  C_7
REMARK    2  A    between atoms: C_7  and  C_9
REMARK    3  A    between atoms: C_7  and  S_24
REMARK    4  A    between atoms: C_9  and  N_10
REMARK    5  A    between atoms: N_10  and  S_11
REMARK    6  A    between atoms: S_11  and  C_14
REMARK    7  A    between atoms: S_24  and  C_27
REMARK                            x       y       z     vdW  Elec       q    Type
REMARK                         _______ _______ _______ _____ _____    ______ ____
ROOT
ATOM      1  C   UNL     1      -3.537   3.080  -2.391  0.00  0.00    +0.137 C 
ENDROOT
BRANCH   1   2
ATOM      2  N   UNL     1      -3.232   4.226  -1.530  0.00  0.00    -0.188 NA
ATOM      3  H   UNL     1      -3.137   5.231  -1.965  0.00  0.00    +0.148 HD
BRANCH   2   4
ATOM      4  S   UNL     1      -2.789   3.981   0.047  0.00  0.00    +0.058 S 
ATOM      5  O   UNL     1      -3.741   3.084   0.602  0.00  0.00    -0.153 OA
ATOM      6  O   UNL     1      -2.539   5.265   0.602  0.00  0.00    -0.153 OA
BRANCH   4   7
ATOM      7  C   UNL     1      -1.246   3.131   0.029  0.00  0.00    +0.106 A 
ATOM      8  C   UNL     1      -1.217   1.748   0.017  0.00  0.00    +0.030 A 
ATOM      9  C   UNL     1      -0.013   1.076   0.008  0.00  0.00    +0.025 A 
ATOM     10  C   UNL     1       1.186   1.788   0.000  0.00  0.00    +0.037 A 
ATOM     11  C   UNL     1       1.143   3.176   0.008  0.00  0.00    -0.016 A 
ATOM     12  C   UNL     1      -0.061   3.844   0.022  0.00  0.00    +0.034 A 
ATOM     13  C   UNL     1       2.579   3.646  -0.003  0.00  0.00    +0.133 C 
ATOM     14  C   UNL     1       3.385   2.364  -0.017  0.00  0.00    +0.222 C 
ATOM     15  O   UNL     1       4.595   2.274  -0.028  0.00  0.00    -0.275 OA
ATOM     16  N   UNL     1       2.509   1.346  -0.014  0.00  0.00    -0.285 N 
ATOM     17  H   UNL     1       2.729   0.268  -0.021  0.00  0.00    +0.155 HD
ENDBRANCH   4   7
ENDBRANCH   2   4
ENDBRANCH   1   2
BRANCH   1  18
ATOM     18  C   UNL     1      -4.264   3.565  -3.647  0.00  0.00    +0.182 C 
BRANCH  18  22
ATOM     19  C   UNL     1      -5.150   0.225  -6.158  0.00  0.00    +0.000 A 
ATOM     20  C   UNL     1      -4.355   1.253  -6.629  0.00  0.00    +0.000 A 
ATOM     21  C   UNL     1      -4.068   2.333  -5.817  0.00  0.00    +0.005 A 
ATOM     22  C   UNL     1      -4.577   2.387  -4.532  0.00  0.00    -0.022 A 
ATOM     23  C   UNL     1      -5.368   1.357  -4.059  0.00  0.00    +0.005 A 
ATOM     24  C   UNL     1      -5.658   0.278  -4.873  0.00  0.00    +0.000 A 
ENDBRANCH  18  22
BRANCH  18  25
ATOM     25  S   UNL     1      -5.808   4.390  -3.170  0.00  0.00    +0.011 S 
ATOM     26  O   UNL     1      -6.674   3.470  -2.520  0.00  0.00    -0.168 OA
ATOM     27  O   UNL     1      -5.527   5.655  -2.588  0.00  0.00    -0.168 OA
BRANCH  25  28
ATOM     28  C   UNL     1      -6.610   4.764  -4.693  0.00  0.00    +0.126 A 
ATOM     29  C   UNL     1      -7.484   4.011  -5.405  0.00  0.00    +0.035 A 
ATOM     30  C   UNL     1      -7.996   4.514  -6.586  0.00  0.00    +0.009 A 
ATOM     31  C   UNL     1      -7.601   5.742  -7.003  0.00  0.00    +0.047 A 
ATOM     32  S   UNL     1      -6.478   6.230  -5.704  0.00  0.00    -0.078 S 
ENDBRANCH  25  28
ENDBRANCH  18  25
ENDBRANCH   1  18
TORSDOF 7
