REMARK  Name = ZINC26895652
REMARK  7 active torsions:
REMARK  status: ('A' for Active; 'I' for Inactive)
REMARK    1  A    between atoms: C_1  and  C_2
REMARK    2  A    between atoms: C_2  and  C_4
REMARK    3  A    between atoms: C_4  and  N_5
REMARK    4  A    between atoms: C_11  and  S_12
REMARK    5  A    between atoms: S_12  and  C_13
REMARK    6  A    between atoms: C_13  and  C_14
REMARK    7  A    between atoms: N_16  and  C_17
REMARK                            x       y       z     vdW  Elec       q    Type
REMARK                         _______ _______ _______ _____ _____    ______ ____
ROOT
ATOM      1  N   UNL     1      -1.861   2.401  -1.334  0.00  0.00    -0.283 N 
ATOM      2  C   UNL     1      -1.531   3.492  -2.058  0.00  0.00    +0.259 A 
ATOM      3  O   UNL     1      -0.821   4.364  -1.582  0.00  0.00    -0.267 OA
ATOM      4  C   UNL     1      -2.015   3.599  -3.367  0.00  0.00    +0.050 A 
ATOM      5  C   UNL     1      -2.826   2.589  -3.866  0.00  0.00    +0.083 A 
ATOM      6  N   UNL     1      -3.122   1.532  -3.103  0.00  0.00    -0.223 NA
ATOM      7  C   UNL     1      -2.657   1.435  -1.873  0.00  0.00    +0.173 A 
ATOM      8  C   UNL     1      -3.352   2.715  -5.245  0.00  0.00    +0.004 A 
ATOM      9  C   UNL     1      -4.469   1.993  -5.654  0.00  0.00    +0.010 A 
ATOM     10  C   UNL     1      -4.934   2.128  -6.947  0.00  0.00    +0.001 A 
ATOM     11  C   UNL     1      -4.292   2.978  -7.831  0.00  0.00    +0.000 A 
ATOM     12  C   UNL     1      -3.181   3.698  -7.427  0.00  0.00    +0.004 A 
ATOM     13  C   UNL     1      -2.708   3.573  -6.138  0.00  0.00    -0.037 A 
ATOM     14  C   UNL     1      -1.506   4.360  -5.685  0.00  0.00    +0.047 C 
ATOM     15  C   UNL     1      -1.674   4.782  -4.227  0.00  0.00    +0.007 C 
ATOM     16  C   UNL     1      -2.777   5.847  -4.117  0.00  0.00    +0.012 C 
ATOM     17  C   UNL     1      -2.107   7.115  -3.548  0.00  0.00    +0.001 C 
ATOM     18  C   UNL     1      -0.612   6.954  -3.918  0.00  0.00    +0.001 C 
ATOM     19  C   UNL     1      -0.373   5.435  -3.724  0.00  0.00    +0.012 C 
ENDROOT
BRANCH   1  20
ATOM     20  C   UNL     1      -1.368   2.258   0.038  0.00  0.00    +0.157 C 
BRANCH  20  22
ATOM     21  C   UNL     1      -0.017   0.025   0.010  0.00  0.00    +0.040 C 
ATOM     22  C   UNL     1      -0.048   1.531   0.024  0.00  0.00    -0.060 C 
ATOM     23  C   UNL     1       1.073   2.209   0.018  0.00  0.00    +0.009 C 
ENDBRANCH  20  22
ENDBRANCH   1  20
BRANCH   7  24
ATOM     24  S   UNL     1      -3.074   0.023  -0.904  0.00  0.00    -0.078 S 
BRANCH  24  25
ATOM     25  C   UNL     1      -4.105  -0.877  -2.089  0.00  0.00    +0.173 C 
BRANCH  25  26
ATOM     26  C   UNL     1      -4.590  -2.158  -1.460  0.00  0.00    +0.228 C 
ATOM     27  O   UNL     1      -4.270  -2.435  -0.324  0.00  0.00    -0.275 OA
ATOM     28  N   UNL     1      -5.379  -2.996  -2.161  0.00  0.00    -0.284 N 
ATOM     29  H   UNL     1      -5.730  -2.711  -3.164  0.00  0.00    +0.155 HD
BRANCH  28  30
ATOM     30  C   UNL     1      -5.753  -4.229  -1.613  0.00  0.00    +0.052 A 
ATOM     31  C   UNL     1      -5.977  -4.344  -0.247  0.00  0.00    +0.025 A 
ATOM     32  C   UNL     1      -6.351  -5.560   0.290  0.00  0.00    +0.002 A 
ATOM     33  C   UNL     1      -6.492  -6.665  -0.529  0.00  0.00    +0.002 A 
ATOM     34  C   UNL     1      -6.264  -6.557  -1.888  0.00  0.00    +0.022 A 
ATOM     35  C   UNL     1      -5.895  -5.341  -2.433  0.00  0.00    +0.062 A 
ATOM     36 CL   UNL     1      -5.609  -5.205  -4.140  0.00  0.00    -0.082 Cl
ENDBRANCH  28  30
ENDBRANCH  25  26
ENDBRANCH  24  25
ENDBRANCH   7  24
TORSDOF 6
