REMARK  Name = ZINC09499490
REMARK  8 active torsions:
REMARK  status: ('A' for Active; 'I' for Inactive)
REMARK    1  A    between atoms: C_1  and  C_2
REMARK    2  A    between atoms: C_5  and  N_8
REMARK    3  A    between atoms: C_21  and  S_22
REMARK    4  A    between atoms: S_22  and  C_23
REMARK    5  A    between atoms: C_23  and  C_25
REMARK    6  A    between atoms: C_23  and  C_26
REMARK    7  A    between atoms: N_28  and  C_29
REMARK    8  A    between atoms: C_29  and  C_35
REMARK                            x       y       z     vdW  Elec       q    Type
REMARK                         _______ _______ _______ _____ _____    ______ ____
ROOT
ATOM      1  N   UNL     1       5.120  -5.495  -1.574  0.00  0.00    -0.245 N 
ATOM      2  C   UNL     1       4.529  -6.262  -2.513  0.00  0.00    +0.268 A 
ATOM      3  O   UNL     1       5.195  -6.989  -3.226  0.00  0.00    -0.267 OA
ATOM      4  C   UNL     1       3.064  -6.206  -2.663  0.00  0.00    +0.064 A 
ATOM      5  C   UNL     1       2.404  -6.978  -3.618  0.00  0.00    +0.015 A 
ATOM      6  C   UNL     1       1.032  -6.901  -3.728  0.00  0.00    +0.001 A 
ATOM      7  C   UNL     1       0.309  -6.060  -2.896  0.00  0.00    +0.002 A 
ATOM      8  C   UNL     1       0.951  -5.290  -1.946  0.00  0.00    +0.027 A 
ATOM      9  C   UNL     1       2.330  -5.355  -1.820  0.00  0.00    +0.064 A 
ATOM     10  N   UNL     1       3.005  -4.593  -0.875  0.00  0.00    -0.255 N 
ATOM     11  C   UNL     1       4.369  -4.664  -0.757  0.00  0.00    +0.245 A 
ATOM     12  N   UNL     1       4.711  -3.843   0.207  0.00  0.00    -0.109 NA
ATOM     13  N   UNL     1       3.667  -3.268   0.688  0.00  0.00    -0.120 NA
ATOM     14  C   UNL     1       2.592  -3.692   0.069  0.00  0.00    +0.198 A 
ENDROOT
BRANCH   1  19
ATOM     15  C   UNL     1      10.757  -5.671  -0.958  0.00  0.00    +0.044 C 
ATOM     16  C   UNL     1       9.260  -5.624  -1.122  0.00  0.00    -0.050 A 
ATOM     17  C   UNL     1       8.689  -4.713  -1.992  0.00  0.00    +0.005 A 
ATOM     18  C   UNL     1       7.317  -4.668  -2.144  0.00  0.00    +0.026 A 
ATOM     19  C   UNL     1       6.511  -5.539  -1.422  0.00  0.00    +0.053 A 
ATOM     20  C   UNL     1       7.087  -6.449  -0.545  0.00  0.00    +0.026 A 
ATOM     21  C   UNL     1       8.460  -6.492  -0.401  0.00  0.00    +0.005 A 
ENDBRANCH   1  19
BRANCH  14  22
ATOM     22  S   UNL     1       0.933  -3.192   0.386  0.00  0.00    -0.073 S 
BRANCH  22  23
ATOM     23  C   UNL     1       1.086  -1.995   1.741  0.00  0.00    +0.137 C 
ATOM     24  C   UNL     1       1.609  -2.705   2.992  0.00  0.00    +0.029 C 
BRANCH  23  25
ATOM     25  C   UNL     1      -0.263  -1.391   2.033  0.00  0.00    +0.227 C 
ATOM     26  O   UNL     1      -1.274  -2.001   1.756  0.00  0.00    -0.275 OA
ATOM     27  N   UNL     1      -0.346  -0.172   2.602  0.00  0.00    -0.296 N 
ATOM     28  H   UNL     1       0.462   0.316   2.824  0.00  0.00    +0.150 HD
BRANCH  27  29
ATOM     29  C   UNL     1      -1.658   0.418   2.880  0.00  0.00    +0.121 C 
ATOM     30  C   UNL     1      -2.438   0.566   1.573  0.00  0.00    +0.041 C 
ATOM     31  C   UNL     1      -3.808   1.183   1.863  0.00  0.00    +0.003 C 
ATOM     32  C   UNL     1      -3.623   2.559   2.505  0.00  0.00    +0.000 C 
ATOM     33  C   UNL     1      -2.842   2.410   3.813  0.00  0.00    +0.003 C 
ATOM     34  C   UNL     1      -1.472   1.794   3.522  0.00  0.00    +0.041 C 
BRANCH  29  35
ATOM     35  C   UNL     1      -2.404  -0.456   3.800  0.00  0.00    +0.088 C 
ATOM     36  N   UNL     1      -2.980  -1.131   4.510  0.00  0.00    -0.194 NA
ENDBRANCH  29  35
ENDBRANCH  27  29
ENDBRANCH  23  25
ENDBRANCH  22  23
ENDBRANCH  14  22
TORSDOF 6
