REMARK  Name = ZINC43092881
REMARK  7 active torsions:
REMARK  status: ('A' for Active; 'I' for Inactive)
REMARK    1  A    between atoms: C_1  and  C_2
REMARK    2  A    between atoms: C_2  and  C_3
REMARK    3  A    between atoms: C_3  and  C_5
REMARK    4  A    between atoms: C_3  and  N_23
REMARK    5  A    between atoms: C_5  and  C_7
REMARK    6  A    between atoms: C_5  and  N_14
REMARK    7  A    between atoms: N_17  and  C_20
REMARK                            x       y       z     vdW  Elec       q    Type
REMARK                         _______ _______ _______ _____ _____    ______ ____
ROOT
ATOM      1  C   UNL     1      -1.681  -1.996  -0.340  0.00  0.00    +0.073 C 
ENDROOT
BRANCH   1   2
ATOM      2  C   UNL     1      -1.277  -2.245  -1.770  0.00  0.00    -0.018 A 
ATOM      3  C   UNL     1      -2.222  -2.184  -2.777  0.00  0.00    +0.006 A 
ATOM      4  C   UNL     1      -1.851  -2.412  -4.088  0.00  0.00    +0.000 A 
ATOM      5  C   UNL     1      -0.534  -2.703  -4.394  0.00  0.00    +0.001 A 
ATOM      6  C   UNL     1       0.411  -2.764  -3.388  0.00  0.00    +0.015 A 
ATOM      7  C   UNL     1       0.042  -2.531  -2.076  0.00  0.00    +0.022 A 
ATOM      8 BR   UNL     1       1.336  -2.608  -0.700  0.00  0.00    -0.050 Br
ENDBRANCH   1   2
BRANCH   1   9
ATOM      9  N   UNL     1      -3.107  -2.307  -0.173  0.00  0.00    -0.300 NA
ATOM     10  C   UNL     1      -3.587  -1.886   1.151  0.00  0.00    +0.066 C 
ATOM     11  C   UNL     1      -5.086  -2.173   1.262  0.00  0.00    -0.063 C 
ATOM     12  N   UNL     1      -5.326  -3.609   1.070  0.00  0.00    +0.383 N 
ATOM     13  C   UNL     1      -4.864  -4.010  -0.266  0.00  0.00    -0.063 C 
ATOM     14  C   UNL     1      -3.363  -3.738  -0.390  0.00  0.00    +0.066 C 
ATOM     15  H   UNL     1      -4.821  -4.131   1.770  0.00  0.00    -0.081 HD
BRANCH  12  16
ATOM     16  C   UNL     1      -6.763  -3.886   1.194  0.00  0.00    -0.069 C 
ATOM     17  C   UNL     1      -7.224  -4.690   2.412  0.00  0.00    -0.017 C 
ATOM     18  C   UNL     1      -7.220  -5.337   1.025  0.00  0.00    -0.017 C 
ENDBRANCH  12  16
ENDBRANCH   1   9
BRANCH   1  19
ATOM     19  C   UNL     1      -1.435  -0.527   0.011  0.00  0.00    -0.053 C 
BRANCH  19  20
ATOM     20  N   UNL     1      -0.019  -0.202  -0.206  0.00  0.00    +0.381 N 
ATOM     21  H   UNL     1       0.127   0.784  -0.049  0.00  0.00    -0.090 HD
ATOM     22  H   UNL     1       0.550  -0.734   0.435  0.00  0.00    -0.090 HD
ATOM     23  H   UNL     1       0.237  -0.433  -1.155  0.00  0.00    -0.090 HD
ENDBRANCH  19  20
BRANCH  19  25
ATOM     24  C   UNL     1      -2.154   1.822  -0.446  0.00  0.00    +0.002 C 
ATOM     25  C   UNL     1      -2.305   0.362  -0.880  0.00  0.00    -0.018 C 
ENDBRANCH  19  25
ENDBRANCH   1  19
TORSDOF 6
