REMARK  Name = ZINC40397845
REMARK  9 active torsions:
REMARK  status: ('A' for Active; 'I' for Inactive)
REMARK    1  A    between atoms: C_1  and  O_2
REMARK    2  A    between atoms: O_2  and  C_3
REMARK    3  A    between atoms: C_3  and  C_4
REMARK    4  A    between atoms: C_5  and  C_32
REMARK    5  A    between atoms: N_15  and  C_18
REMARK    6  A    between atoms: C_18  and  C_19
REMARK    7  A    between atoms: C_19  and  C_20
REMARK    8  A    between atoms: C_27  and  O_30
REMARK    9  A    between atoms: O_30  and  C_31
REMARK                            x       y       z     vdW  Elec       q    Type
REMARK                         _______ _______ _______ _____ _____    ______ ____
ROOT
ATOM      1  C   UNL     1       0.633  -2.085   1.012  0.00  0.00    +0.099 A 
ATOM      2  C   UNL     1      -0.372  -2.914   1.527  0.00  0.00    +0.051 A 
ATOM      3  C   UNL     1      -0.029  -4.232   1.208  0.00  0.00    +0.164 A 
ATOM      4  N   UNL     1      -0.635  -5.401   1.458  0.00  0.00    -0.235 NA
ATOM      5  C   UNL     1      -0.129  -6.544   1.059  0.00  0.00    +0.128 A 
ATOM      6  C   UNL     1       1.086  -6.556   0.347  0.00  0.00    +0.083 A 
ATOM      7  C   UNL     1       1.734  -5.338   0.077  0.00  0.00    +0.083 A 
ATOM      8  N   UNL     1       1.156  -4.173   0.519  0.00  0.00    -0.213 N 
ATOM      9  N   UNL     1       1.530  -2.829   0.415  0.00  0.00    -0.166 NA
ATOM     10  C   UNL     1       2.943  -5.355  -0.634  0.00  0.00    +0.046 A 
ATOM     11  C   UNL     1       3.470  -6.527  -1.048  0.00  0.00    +0.091 A 
ATOM     12  N   UNL     1       2.868  -7.721  -0.802  0.00  0.00    -0.314 N 
ATOM     13  C   UNL     1       1.702  -7.795  -0.125  0.00  0.00    +0.262 A 
ATOM     14  O   UNL     1       1.174  -8.872   0.089  0.00  0.00    -0.267 OA
ENDROOT
BRANCH   2  15
ATOM     15  C   UNL     1      -1.576  -2.476   2.271  0.00  0.00    -0.012 A 
ATOM     16  C   UNL     1      -1.740  -2.834   3.609  0.00  0.00    +0.010 A 
ATOM     17  C   UNL     1      -2.863  -2.423   4.298  0.00  0.00    +0.020 A 
ATOM     18  C   UNL     1      -3.825  -1.656   3.663  0.00  0.00    +0.041 A 
ATOM     19  C   UNL     1      -3.667  -1.298   2.335  0.00  0.00    +0.020 A 
ATOM     20  C   UNL     1      -2.546  -1.699   1.639  0.00  0.00    +0.010 A 
ATOM     21 CL   UNL     1      -5.236  -1.143   4.536  0.00  0.00    -0.084 Cl
ENDBRANCH   2  15
BRANCH   1  22
ATOM     22  C   UNL     1       0.673  -0.582   1.123  0.00  0.00    +0.217 C 
BRANCH  22  24
ATOM     23  C   UNL     1      -0.017   1.425   0.010  0.00  0.00    +0.194 C 
ATOM     24  O   UNL     1       0.002  -0.004   0.002  0.00  0.00    -0.377 OA
ENDBRANCH  22  24
ENDBRANCH   1  22
BRANCH  12  25
ATOM     25  C   UNL     1       3.497  -8.954  -1.283  0.00  0.00    +0.129 C 
BRANCH  25  26
ATOM     26  C   UNL     1       4.444  -9.495  -0.210  0.00  0.00    +0.059 C 
BRANCH  26  27
ATOM     27  C   UNL     1       5.092 -10.762  -0.704  0.00  0.00    -0.021 A 
ATOM     28  C   UNL     1       4.674 -12.016  -0.469  0.00  0.00    +0.087 A 
ATOM     29  N   UNL     1       5.512 -12.909  -1.079  0.00  0.00    -0.360 N 
ATOM     30  H   UNL     1       5.414 -13.874  -1.051  0.00  0.00    +0.165 HD
ATOM     31  C   UNL     1       6.517 -12.233  -1.738  0.00  0.00    +0.047 A 
ATOM     32  C   UNL     1       6.293 -10.860  -1.537  0.00  0.00    +0.006 A 
ATOM     33  C   UNL     1       7.161  -9.921  -2.099  0.00  0.00    +0.056 A 
ATOM     34  C   UNL     1       8.233 -10.351  -2.855  0.00  0.00    +0.121 A 
ATOM     35  C   UNL     1       8.450 -11.712  -3.056  0.00  0.00    +0.047 A 
ATOM     36  C   UNL     1       7.605 -12.646  -2.499  0.00  0.00    +0.030 A 
BRANCH  34  37
ATOM     37  O   UNL     1       9.081  -9.442  -3.406  0.00  0.00    -0.495 OA
ATOM     38  C   UNL     1      10.171  -9.954  -4.176  0.00  0.00    +0.277 C 
ENDBRANCH  34  37
ENDBRANCH  26  27
ENDBRANCH  25  26
ENDBRANCH  12  25
TORSDOF 7
