REMARK  Name = ZINC64080440
REMARK  8 active torsions:
REMARK  status: ('A' for Active; 'I' for Inactive)
REMARK    1  A    between atoms: C_6  and  O_7
REMARK    2  A    between atoms: O_7  and  C_8
REMARK    3  A    between atoms: C_8  and  C_9
REMARK    4  A    between atoms: N_11  and  N_12
REMARK    5  A    between atoms: N_12  and  C_13
REMARK    6  A    between atoms: C_13  and  N_15
REMARK    7  A    between atoms: N_15  and  C_16
REMARK    8  A    between atoms: C_16  and  C_17
REMARK                            x       y       z     vdW  Elec       q    Type
REMARK                         _______ _______ _______ _____ _____    ______ ____
ROOT
ATOM      1  C   UNL     1      -3.555  -0.877   0.032  0.00  0.00    +0.267 C 
ATOM      2  O   UNL     1      -3.378  -2.077   0.023  0.00  0.00    -0.271 OA
ATOM      3  N   UNL     1      -4.809  -0.381   0.046  0.00  0.00    -0.232 N 
ATOM      4  H   UNL     1      -4.950   0.578   0.053  0.00  0.00    +0.173 HD
ENDROOT
BRANCH   3   5
ATOM      5  N   UNL     1      -5.906  -1.252   0.052  0.00  0.00    -0.246 N 
ATOM      6  H   UNL     1      -5.765  -2.211   0.045  0.00  0.00    +0.172 HD
BRANCH   5   7
ATOM      7  C   UNL     1      -7.160  -0.755   0.067  0.00  0.00    +0.147 C 
ATOM      8  S   UNL     1      -8.501  -1.819   0.074  0.00  0.00    -0.017 S 
BRANCH   7   9
ATOM      9  N   UNL     1      -7.356   0.578   0.076  0.00  0.00    -0.317 N 
ATOM     10  H   UNL     1      -6.596   1.180   0.072  0.00  0.00    +0.148 HD
BRANCH   9  11
ATOM     11  C   UNL     1      -8.718   1.117   0.092  0.00  0.00    +0.216 C 
BRANCH  11  12
ATOM     12  C   UNL     1      -8.661   2.646   0.099  0.00  0.00    +0.405 C 
ATOM     13  F   UNL     1      -7.996   3.094  -1.047  0.00  0.00    -0.169 F 
ATOM     14  F   UNL     1      -9.962   3.161   0.115  0.00  0.00    -0.169 F 
ATOM     15  F   UNL     1      -7.974   3.081   1.238  0.00  0.00    -0.169 F 
ENDBRANCH  11  12
ENDBRANCH   9  11
ENDBRANCH   7   9
ENDBRANCH   5   7
ENDBRANCH   3   5
BRANCH   1  16
ATOM     16  C   UNL     1      -2.374   0.059   0.025  0.00  0.00    +0.326 C 
BRANCH  16  17
ATOM     17  O   UNL     1      -1.164  -0.701   0.009  0.00  0.00    -0.483 OA
BRANCH  17  23
ATOM     18  C   UNL     1      -0.017   1.383   0.010  0.00  0.00    +0.046 A 
ATOM     19  C   UNL     1       1.171   2.087   0.002  0.00  0.00    +0.007 A 
ATOM     20  C   UNL     1       2.381   1.414  -0.014  0.00  0.00    -0.044 A 
ATOM     21  C   UNL     1       2.403   0.031  -0.021  0.00  0.00    -0.041 A 
ATOM     22  C   UNL     1       1.214  -0.677  -0.013  0.00  0.00    +0.049 A 
ATOM     23  C   UNL     1       0.002  -0.004   0.002  0.00  0.00    +0.121 A 
ATOM     24  C   UNL     1       3.835  -0.458  -0.039  0.00  0.00    +0.036 C 
ATOM     25  C   UNL     1       4.673   0.760  -0.481  0.00  0.00    +0.009 C 
ATOM     26  C   UNL     1       3.798   1.947  -0.025  0.00  0.00    +0.036 C 
ENDBRANCH  17  23
ENDBRANCH  16  17
ENDBRANCH   1  16
TORSDOF 8
