REMARK  Name = ZINC02088698
REMARK  7 active torsions:
REMARK  status: ('A' for Active; 'I' for Inactive)
REMARK    1  A    between atoms: C_1  and  C_2
REMARK    2  A    between atoms: C_2  and  O_3
REMARK    3  A    between atoms: O_3  and  C_4
REMARK    4  A    between atoms: C_4  and  C_6
REMARK    5  A    between atoms: C_10  and  N_11
REMARK    6  A    between atoms: C_13  and  C_22
REMARK    7  A    between atoms: N_24  and  C_25
REMARK                            x       y       z     vdW  Elec       q    Type
REMARK                         _______ _______ _______ _____ _____    ______ ____
ROOT
ATOM      1  N   UNL     1      -0.908  -1.623  -4.043  0.00  0.00    -0.319 N 
ATOM      2  C   UNL     1      -1.107  -2.434  -5.066  0.00  0.00    +0.212 A 
ATOM      3  C   UNL     1      -2.441  -2.995  -5.345  0.00  0.00    +0.098 A 
ATOM      4  C   UNL     1      -2.717  -3.365  -6.654  0.00  0.00    +0.030 A 
ATOM      5  C   UNL     1      -1.691  -3.209  -7.623  0.00  0.00    +0.018 A 
ATOM      6  C   UNL     1      -1.970  -3.374  -8.987  0.00  0.00    +0.011 A 
ATOM      7  C   UNL     1      -0.983  -3.180  -9.911  0.00  0.00    +0.001 A 
ATOM      8  C   UNL     1       0.299  -2.829  -9.510  0.00  0.00    +0.004 A 
ATOM      9  C   UNL     1       0.601  -2.680  -8.172  0.00  0.00    +0.047 A 
ATOM     10  C   UNL     1      -0.385  -2.879  -7.215  0.00  0.00    +0.137 A 
ATOM     11  O   UNL     1      -0.092  -2.774  -5.899  0.00  0.00    -0.439 OA
ATOM     12  H   UNL     1      -1.663  -1.297  -3.528  0.00  0.00    +0.169 HD
ENDROOT
BRANCH   1  17
ATOM     13  C   UNL     1       0.766  -0.407  -2.676  0.00  0.00    +0.093 A 
ATOM     14  C   UNL     1       2.194  -0.173  -2.539  0.00  0.00    -0.021 A 
ATOM     15  C   UNL     1       2.991  -0.792  -3.438  0.00  0.00    -0.004 A 
ATOM     16  S   UNL     1       1.887  -1.698  -4.487  0.00  0.00    -0.075 S 
ATOM     17  C   UNL     1       0.344  -1.249  -3.713  0.00  0.00    +0.095 A 
ATOM     18  C   UNL     1       4.485  -0.722  -3.524  0.00  0.00    +0.043 C 
ATOM     19  C   UNL     1       4.966   0.457  -2.666  0.00  0.00    +0.005 C 
ATOM     20  C   UNL     1       4.275   0.384  -1.301  0.00  0.00    +0.005 C 
ATOM     21  C   UNL     1       2.790   0.716  -1.452  0.00  0.00    +0.037 C 
BRANCH  13  22
ATOM     22  C   UNL     1      -0.165   0.191  -1.789  0.00  0.00    +0.342 C 
ATOM     23  O   UNL     1      -0.485  -0.384  -0.765  0.00  0.00    -0.245 OA
BRANCH  22  24
ATOM     24  O   UNL     1      -0.695   1.398  -2.079  0.00  0.00    -0.461 OA
BRANCH  24  26
ATOM     25  C   UNL     1      -2.115   3.302  -1.637  0.00  0.00    +0.048 C 
ATOM     26  C   UNL     1      -1.626   1.940  -1.141  0.00  0.00    +0.229 C 
ENDBRANCH  24  26
ENDBRANCH  22  24
ENDBRANCH  13  22
ENDBRANCH   1  17
BRANCH   3  27
ATOM     27  C   UNL     1      -3.443  -3.157  -4.277  0.00  0.00    +0.253 C 
ATOM     28  O   UNL     1      -4.571  -3.519  -4.551  0.00  0.00    -0.270 OA
ATOM     29  N   UNL     1      -3.108  -2.905  -2.996  0.00  0.00    -0.279 N 
ATOM     30  H   UNL     1      -2.223  -2.571  -2.782  0.00  0.00    +0.155 HD
BRANCH  29  31
ATOM     31  C   UNL     1      -4.038  -3.125  -1.973  0.00  0.00    +0.069 A 
ATOM     32  C   UNL     1      -5.395  -3.171  -2.265  0.00  0.00    +0.026 A 
ATOM     33  C   UNL     1      -6.311  -3.388  -1.254  0.00  0.00    +0.002 A 
ATOM     34  C   UNL     1      -5.879  -3.560   0.048  0.00  0.00    +0.003 A 
ATOM     35  C   UNL     1      -4.529  -3.515   0.344  0.00  0.00    +0.040 A 
ATOM     36  C   UNL     1      -3.606  -3.303  -0.664  0.00  0.00    +0.144 A 
ATOM     37  F   UNL     1      -2.286  -3.264  -0.376  0.00  0.00    -0.204 F 
ENDBRANCH  29  31
ENDBRANCH   3  27
TORSDOF 6
