REMARK  Name = ZINC03414026
REMARK  8 active torsions:
REMARK  status: ('A' for Active; 'I' for Inactive)
REMARK    1  A    between atoms: C_1  and  C_2
REMARK    2  A    between atoms: C_2  and  C_31
REMARK    3  A    between atoms: N_5  and  N_9
REMARK    4  A    between atoms: C_10  and  C_12
REMARK    5  A    between atoms: C_12  and  S_13
REMARK    6  A    between atoms: S_13  and  C_14
REMARK    7  A    between atoms: C_17  and  C_20
REMARK    8  A    between atoms: N_18  and  C_19
REMARK                            x       y       z     vdW  Elec       q    Type
REMARK                         _______ _______ _______ _____ _____    ______ ____
ROOT
ATOM      1  N   UNL     1       1.548  -1.866  -0.024  0.00  0.00    -0.223 N 
ATOM      2  C   UNL     1       1.388  -2.583  -1.154  0.00  0.00    +0.240 C 
ATOM      3  O   UNL     1       0.982  -2.044  -2.161  0.00  0.00    -0.273 OA
ATOM      4  H   UNL     1       1.873  -2.297   0.782  0.00  0.00    +0.174 HD
ENDROOT
BRANCH   1   9
ATOM      5  C   UNL     1       1.711   2.588   1.258  0.00  0.00    +0.047 C 
ATOM      6  C   UNL     1       1.389   1.782  -0.002  0.00  0.00    +0.137 C 
ATOM      7  C   UNL     1       2.170   0.482  -0.016  0.00  0.00    +0.267 C 
ATOM      8  O   UNL     1       3.375   0.352  -0.029  0.00  0.00    -0.271 OA
ATOM      9  N   UNL     1       1.245  -0.498  -0.013  0.00  0.00    -0.137 N 
ATOM     10  C   UNL     1       0.002  -0.004   0.002  0.00  0.00    +0.327 C 
ATOM     11  O   UNL     1      -0.999  -0.693   0.008  0.00  0.00    -0.251 OA
ATOM     12  N   UNL     1      -0.016   1.341   0.009  0.00  0.00    -0.280 N 
ATOM     13  H   UNL     1      -0.802   1.910   0.016  0.00  0.00    +0.152 HD
BRANCH   6  14
ATOM     14  C   UNL     1       1.682   2.590  -1.240  0.00  0.00    -0.015 A 
ATOM     15  C   UNL     1       2.946   2.563  -1.800  0.00  0.00    +0.006 A 
ATOM     16  C   UNL     1       3.213   3.300  -2.938  0.00  0.00    +0.000 A 
ATOM     17  C   UNL     1       2.219   4.072  -3.510  0.00  0.00    +0.000 A 
ATOM     18  C   UNL     1       0.957   4.103  -2.947  0.00  0.00    +0.000 A 
ATOM     19  C   UNL     1       0.689   3.362  -1.812  0.00  0.00    +0.006 A 
ENDBRANCH   6  14
ENDBRANCH   1   9
BRANCH   2  20
ATOM     20  C   UNL     1       1.714  -4.054  -1.165  0.00  0.00    +0.174 C 
BRANCH  20  21
ATOM     21  S   UNL     1       1.398  -4.729  -2.815  0.00  0.00    -0.077 S 
BRANCH  21  22
ATOM     22  C   UNL     1       1.850  -6.411  -2.549  0.00  0.00    +0.192 A 
ATOM     23  N   UNL     1       2.291  -6.933  -1.428  0.00  0.00    -0.122 NA
ATOM     24  N   UNL     1       2.521  -8.187  -1.591  0.00  0.00    -0.130 NA
ATOM     25  C   UNL     1       2.250  -8.536  -2.817  0.00  0.00    +0.178 A 
ATOM     26  N   UNL     1       1.813  -7.417  -3.471  0.00  0.00    -0.306 N 
ATOM     27  C   UNL     1       1.393  -7.319  -4.872  0.00  0.00    +0.153 C 
BRANCH  25  28
ATOM     28  C   UNL     1       2.393  -9.916  -3.405  0.00  0.00    +0.278 C 
ATOM     29  C   UNL     1       3.877 -10.229  -3.637  0.00  0.00    +0.281 C 
ATOM     30  O   UNL     1       3.977 -11.549  -4.182  0.00  0.00    -0.484 OA
ATOM     31  C   UNL     1       3.239 -12.519  -3.576  0.00  0.00    +0.162 A 
ATOM     32  C   UNL     1       3.547 -13.852  -3.804  0.00  0.00    +0.049 A 
ATOM     33  C   UNL     1       2.805 -14.847  -3.198  0.00  0.00    +0.004 A 
ATOM     34  C   UNL     1       1.752 -14.518  -2.365  0.00  0.00    +0.004 A 
ATOM     35  C   UNL     1       1.440 -13.192  -2.133  0.00  0.00    +0.049 A 
ATOM     36  C   UNL     1       2.183 -12.188  -2.736  0.00  0.00    +0.163 A 
ATOM     37  O   UNL     1       1.867 -10.886  -2.493  0.00  0.00    -0.474 OA
ENDBRANCH  25  28
ENDBRANCH  21  22
ENDBRANCH  20  21
ENDBRANCH   2  20
TORSDOF 6
