REMARK  Name = ZINC35458013
REMARK  6 active torsions:
REMARK  status: ('A' for Active; 'I' for Inactive)
REMARK    1  A    between atoms: C_1  and  N_2
REMARK    2  A    between atoms: N_2  and  C_3
REMARK    3  A    between atoms: C_3  and  C_5
REMARK    4  A    between atoms: C_3  and  C_13
REMARK    5  A    between atoms: C_18  and  O_19
REMARK    6  A    between atoms: O_19  and  C_20
REMARK                            x       y       z     vdW  Elec       q    Type
REMARK                         _______ _______ _______ _____ _____    ______ ____
ROOT
ATOM      1  C   UNL     1       0.769  -0.555  -1.325  0.00  0.00    -0.005 C 
ENDROOT
BRANCH   1   2
ATOM      2  C   UNL     1       2.191  -0.076  -1.191  0.00  0.00    -0.038 A 
ATOM      3  C   UNL     1       2.675   0.318   0.042  0.00  0.00    +0.019 A 
ATOM      4  C   UNL     1       3.981   0.757   0.165  0.00  0.00    +0.018 A 
ATOM      5  C   UNL     1       4.803   0.803  -0.947  0.00  0.00    +0.017 A 
ATOM      6  C   UNL     1       4.319   0.409  -2.180  0.00  0.00    +0.021 A 
ATOM      7  C   UNL     1       3.015  -0.037  -2.302  0.00  0.00    +0.043 A 
ATOM      8 CL   UNL     1       2.410  -0.539  -3.850  0.00  0.00    -0.083 Cl
ATOM      9 BR   UNL     1       4.642   1.296   1.852  0.00  0.00    -0.050 Br
ENDBRANCH   1   2
BRANCH   1  10
ATOM     10  C   UNL     1       0.728  -2.055  -1.186  0.00  0.00    -0.013 A 
ATOM     11  C   UNL     1       1.815  -2.730  -0.664  0.00  0.00    +0.026 A 
ATOM     12  C   UNL     1       1.778  -4.107  -0.535  0.00  0.00    +0.042 A 
ATOM     13  C   UNL     1       0.654  -4.812  -0.930  0.00  0.00    +0.039 A 
ATOM     14  C   UNL     1      -0.434  -4.140  -1.453  0.00  0.00    +0.061 A 
ATOM     15  C   UNL     1      -0.402  -2.758  -1.577  0.00  0.00    +0.136 A 
ATOM     16 BR   UNL     1      -1.970  -5.103  -1.993  0.00  0.00    -0.046 Br
ATOM     17 CL   UNL     1       3.145  -4.953   0.121  0.00  0.00    -0.083 Cl
BRANCH  15  18
ATOM     18  O   UNL     1      -1.473  -2.095  -2.086  0.00  0.00    -0.494 OA
ATOM     19  C   UNL     1      -1.524  -1.937  -3.505  0.00  0.00    +0.277 C 
ENDBRANCH  15  18
ENDBRANCH   1  10
BRANCH   1  21
ATOM     20  C   UNL     1      -0.113   1.510  -0.480  0.00  0.00    -0.099 C 
ATOM     21  N   UNL     1      -0.055   0.057  -0.273  0.00  0.00    +0.385 N 
ATOM     22  H   UNL     1       0.352  -0.139   0.629  0.00  0.00    -0.085 HD
ATOM     23  H   UNL     1      -0.988  -0.326  -0.311  0.00  0.00    -0.085 HD
ENDBRANCH   1  21
TORSDOF 4
