REMARK  Name = ZINC62712168
REMARK  5 active torsions:
REMARK  status: ('A' for Active; 'I' for Inactive)
REMARK    1  A    between atoms: C_1  and  C_2
REMARK    2  A    between atoms: C_2  and  C_3
REMARK    3  A    between atoms: C_2  and  C_4
REMARK    4  A    between atoms: C_14  and  C_15
REMARK    5  A    between atoms: C_14  and  N_17
REMARK                            x       y       z     vdW  Elec       q    Type
REMARK                         _______ _______ _______ _____ _____    ______ ____
ROOT
ATOM      1  C   UNL     1      -1.526  -0.948   0.467  0.00  0.00    -0.003 A 
ATOM      2  C   UNL     1      -2.409  -0.848   1.523  0.00  0.00    +0.007 A 
ATOM      3  C   UNL     1      -3.695  -1.340   1.394  0.00  0.00    +0.001 A 
ATOM      4  C   UNL     1      -4.094  -1.927   0.210  0.00  0.00    +0.010 A 
ATOM      5  C   UNL     1      -3.213  -2.030  -0.856  0.00  0.00    +0.029 A 
ATOM      6  C   UNL     1      -1.928  -1.537  -0.729  0.00  0.00    +0.130 A 
ATOM      7  O   UNL     1      -1.027  -1.617  -1.740  0.00  0.00    -0.491 OA
ATOM      8  C   UNL     1      -0.846  -2.888  -2.373  0.00  0.00    +0.229 C 
ATOM      9  C   UNL     1      -1.731  -2.922  -3.624  0.00  0.00    +0.044 C 
ATOM     10  C   UNL     1      -2.985  -2.082  -3.345  0.00  0.00    +0.046 C 
ATOM     11  C   UNL     1      -3.704  -2.674  -2.126  0.00  0.00    +0.138 C 
ENDROOT
BRANCH  11  12
ATOM     12  N   UNL     1      -5.146  -2.432  -2.264  0.00  0.00    -0.281 NA
ATOM     13  C   UNL     1      -5.430  -0.995  -2.372  0.00  0.00    +0.086 C 
ATOM     14  C   UNL     1      -6.944  -0.771  -2.368  0.00  0.00    +0.015 C 
ATOM     15  C   UNL     1      -7.570  -1.525  -3.545  0.00  0.00    +0.002 C 
ATOM     16  C   UNL     1      -7.218  -3.011  -3.435  0.00  0.00    +0.015 C 
ATOM     17  C   UNL     1      -5.697  -3.170  -3.408  0.00  0.00    +0.086 C 
ENDBRANCH  11  12
BRANCH   1  19
ATOM     18  C   UNL     1      -0.179   1.086   0.911  0.00  0.00    +0.012 C 
ATOM     19  C   UNL     1      -0.124  -0.413   0.607  0.00  0.00    +0.016 C 
ATOM     20  C   UNL     1       0.588  -1.140   1.749  0.00  0.00    +0.012 C 
ENDBRANCH   1  19
BRANCH  11  21
ATOM     21  C   UNL     1      -3.462  -4.124  -2.058  0.00  0.00    +0.090 C 
ATOM     22  N   UNL     1      -3.275  -5.244  -2.006  0.00  0.00    -0.194 NA
ENDBRANCH  11  21
TORSDOF 3
