REMARK  Name = ZINC15733819
REMARK  8 active torsions:
REMARK  status: ('A' for Active; 'I' for Inactive)
REMARK    1  A    between atoms: C_1  and  C_2
REMARK    2  A    between atoms: C_5  and  C_8
REMARK    3  A    between atoms: C_8  and  N_64
REMARK    4  A    between atoms: C_11  and  C_14
REMARK    5  A    between atoms: C_14  and  N_15
REMARK    6  A    between atoms: N_15  and  S_16
REMARK    7  A    between atoms: S_16  and  C_19
REMARK    8  A    between atoms: C_24  and  C_25
REMARK                            x       y       z     vdW  Elec       q    Type
REMARK                         _______ _______ _______ _____ _____    ______ ____
ROOT
ATOM      1  S   UNL     1      -7.181   5.633  -5.635  0.00  0.00    +0.059 S 
ATOM      2  O   UNL     1      -7.887   4.882  -6.613  0.00  0.00    -0.153 OA
ATOM      3  O   UNL     1      -7.844   6.404  -4.642  0.00  0.00    -0.153 OA
ENDROOT
BRANCH   1   4
ATOM      4  C   UNL     1      -6.128   6.740  -6.513  0.00  0.00    +0.110 A 
ATOM      5  C   UNL     1      -6.106   8.075  -6.173  0.00  0.00    +0.055 A 
ATOM      6  C   UNL     1      -5.278   8.955  -6.861  0.00  0.00    +0.049 A 
ATOM      7  C   UNL     1      -4.467   8.467  -7.903  0.00  0.00    +0.011 A 
ATOM      8  C   UNL     1      -4.502   7.115  -8.234  0.00  0.00    +0.016 A 
ATOM      9  C   UNL     1      -5.325   6.259  -7.536  0.00  0.00    -0.023 A 
ATOM     10  C   UNL     1      -5.357   4.795  -7.889  0.00  0.00    +0.046 C 
ATOM     11  C   UNL     1      -3.735   9.632  -8.406  0.00  0.00    +0.046 A 
ATOM     12  C   UNL     1      -4.149  10.720  -7.652  0.00  0.00    +0.028 A 
ATOM     13  N   UNL     1      -5.049  10.314  -6.747  0.00  0.00    -0.357 N 
ATOM     14  H   UNL     1      -5.481  10.894  -6.100  0.00  0.00    +0.166 HD
ATOM     15  C   UNL     1      -3.609  12.110  -7.895  0.00  0.00    +0.054 C 
ATOM     16  C   UNL     1      -3.172  12.200  -9.362  0.00  0.00    +0.014 C 
ATOM     17  C   UNL     1      -2.161  11.101  -9.689  0.00  0.00    +0.080 C 
ATOM     18  C   UNL     1      -2.778   9.741  -9.444  0.00  0.00    +0.165 C 
ATOM     19  O   UNL     1      -2.462   8.777 -10.112  0.00  0.00    -0.292 OA
ENDBRANCH   1   4
BRANCH   1  20
ATOM     20  N   UNL     1      -6.205   4.564  -4.830  0.00  0.00    -0.190 NA
ATOM     21  H   UNL     1      -6.229   3.621  -5.056  0.00  0.00    +0.148 HD
BRANCH  20  22
ATOM     22  C   UNL     1      -5.306   5.042  -3.777  0.00  0.00    +0.107 C 
BRANCH  22  25
ATOM     23  C   UNL     1      -2.778   2.565  -2.752  0.00  0.00    -0.078 C 
ATOM     24  C   UNL     1      -3.865   2.969  -3.780  0.00  0.00    -0.016 C 
ATOM     25  C   UNL     1      -4.817   3.855  -2.945  0.00  0.00    -0.014 C 
ATOM     26  C   UNL     1      -3.971   4.347  -1.757  0.00  0.00    -0.074 C 
ATOM     27  N   UNL     1      -2.631   3.791  -1.952  0.00  0.00    +0.383 N 
ATOM     28  H   UNL     1      -2.046   4.466  -2.458  0.00  0.00    -0.081 HD
BRANCH  27  29
ATOM     29  C   UNL     1      -1.997   3.481  -0.636  0.00  0.00    -0.043 C 
BRANCH  29  34
ATOM     30  C   UNL     1       2.869   0.481  -1.478  0.00  0.00    +0.044 C 
ATOM     31  C   UNL     1       1.600   1.263  -1.259  0.00  0.00    -0.050 A 
ATOM     32  C   UNL     1       0.397   0.600  -1.109  0.00  0.00    +0.003 A 
ATOM     33  C   UNL     1      -0.768   1.318  -0.914  0.00  0.00    +0.002 A 
ATOM     34  C   UNL     1      -0.728   2.699  -0.856  0.00  0.00    -0.064 A 
ATOM     35  C   UNL     1       0.476   3.362  -1.005  0.00  0.00    +0.002 A 
ATOM     36  C   UNL     1       1.640   2.644  -1.206  0.00  0.00    +0.003 A 
ENDBRANCH  29  34
ENDBRANCH  27  29
ENDBRANCH  22  25
ENDBRANCH  20  22
ENDBRANCH   1  20
TORSDOF 6
