REMARK  Name = ZINC00047942
REMARK  4 active torsions:
REMARK  status: ('A' for Active; 'I' for Inactive)
REMARK    1  A    between atoms: C_1  and  O_2
REMARK    2  A    between atoms: O_2  and  C_3
REMARK    3  A    between atoms: C_6  and  C_9
REMARK    4  A    between atoms: C_12  and  C_15
REMARK                            x       y       z     vdW  Elec       q    Type
REMARK                         _______ _______ _______ _____ _____    ______ ____
ROOT
ATOM      1  C   UNL     1       4.941   4.037  -0.024  0.00  0.00    +0.068 C 
ATOM      2  N   UNL     1       5.109   5.314  -0.024  0.00  0.00    -0.191 NA
ATOM      3  N   UNL     1       6.444   5.714  -0.031  0.00  0.00    -0.261 N 
ATOM      4  C   UNL     1       7.298   4.516  -0.045  0.00  0.00    +0.128 C 
ATOM      5  C   UNL     1       6.289   3.351  -0.040  0.00  0.00    +0.086 C 
ATOM      6  H   UNL     1       6.758   6.631  -0.029  0.00  0.00    +0.169 HD
ENDROOT
BRANCH   4   7
ATOM      7  C   UNL     1       8.143   4.481  -1.293  0.00  0.00    +0.012 A 
ATOM      8  C   UNL     1       7.847   5.306  -2.340  0.00  0.00    +0.018 A 
ATOM      9  C   UNL     1       8.662   5.242  -3.487  0.00  0.00    +0.001 A 
ATOM     10  C   UNL     1       8.419   6.059  -4.602  0.00  0.00    +0.010 A 
ATOM     11  C   UNL     1       9.229   5.968  -5.693  0.00  0.00    +0.001 A 
ATOM     12  C   UNL     1      10.298   5.073  -5.716  0.00  0.00    +0.002 A 
ATOM     13  C   UNL     1      10.562   4.266  -4.653  0.00  0.00    +0.028 A 
ATOM     14  C   UNL     1       9.748   4.332  -3.509  0.00  0.00    +0.073 A 
ATOM     15  N   UNL     1       9.983   3.551  -2.449  0.00  0.00    -0.235 NA
ATOM     16  C   UNL     1       9.229   3.612  -1.377  0.00  0.00    +0.135 A 
ATOM     17 CL   UNL     1       9.591   2.578  -0.030  0.00  0.00    -0.062 Cl
ENDBRANCH   4   7
BRANCH   1  21
ATOM     18  C   UNL     1       1.185   2.058   0.002  0.00  0.00    +0.120 A 
ATOM     19  C   UNL     1       2.358   1.316  -0.008  0.00  0.00    +0.046 A 
ATOM     20  C   UNL     1       3.580   1.954  -0.022  0.00  0.00    +0.013 A 
ATOM     21  C   UNL     1       3.637   3.350  -0.015  0.00  0.00    -0.002 A 
ATOM     22  C   UNL     1       2.454   4.093   0.000  0.00  0.00    +0.013 A 
ATOM     23  C   UNL     1       1.236   3.446   0.009  0.00  0.00    +0.046 A 
BRANCH  18  25
ATOM     24  C   UNL     1       0.002  -0.004   0.002  0.00  0.00    +0.277 C 
ATOM     25  O   UNL     1      -0.017   1.425   0.010  0.00  0.00    -0.495 OA
ENDBRANCH  18  25
ENDBRANCH   1  21
TORSDOF 3
