REMARK  Name = ZINC20111945
REMARK  12 active torsions:
REMARK  status: ('A' for Active; 'I' for Inactive)
REMARK    1  A    between atoms: C_1  and  C_2
REMARK    2  A    between atoms: C_7  and  C_8
REMARK    3  A    between atoms: C_8  and  C_10
REMARK    4  A    between atoms: C_10  and  C_11
REMARK    5  A    between atoms: C_18  and  O_19
REMARK    6  A    between atoms: O_19  and  C_20
REMARK    7  A    between atoms: N_26  and  C_27
REMARK    8  A    between atoms: C_28  and  C_35
REMARK    9  A    between atoms: C_28  and  C_36
REMARK   10  A    between atoms: C_29  and  C_34
REMARK   11  A    between atoms: C_31  and  C_32
REMARK   12  A    between atoms: C_31  and  C_33
REMARK                            x       y       z     vdW  Elec       q    Type
REMARK                         _______ _______ _______ _____ _____    ______ ____
ROOT
ATOM      1  C   UNL     1      -0.682   0.986  -0.508  0.00  0.00    +0.165 C 
ATOM      2  O   UNL     1      -0.723  -0.224  -0.435  0.00  0.00    -0.292 OA
ENDROOT
BRANCH   1   9
ATOM      3  C   UNL     1       1.451  -0.462   0.809  0.00  0.00    +0.044 C 
ATOM      4  C   UNL     1       1.555   1.024   0.581  0.00  0.00    -0.040 A 
ATOM      5  C   UNL     1       2.673   1.711   1.000  0.00  0.00    +0.008 A 
ATOM      6  C   UNL     1       2.775   3.079   0.794  0.00  0.00    -0.037 A 
ATOM      7  C   UNL     1       1.751   3.765   0.164  0.00  0.00    -0.037 A 
ATOM      8  C   UNL     1       0.627   3.087  -0.266  0.00  0.00    +0.016 A 
ATOM      9  C   UNL     1       0.516   1.710  -0.056  0.00  0.00    +0.021 A 
ATOM     10  C   UNL     1       2.106   5.234   0.063  0.00  0.00    -0.006 C 
ATOM     11  C   UNL     1       3.630   5.298   0.299  0.00  0.00    +0.006 C 
ATOM     12  C   UNL     1       3.886   4.042   1.158  0.00  0.00    -0.006 C 
ATOM     13  C   UNL     1       3.819   4.393   2.645  0.00  0.00    +0.016 C 
ATOM     14  C   UNL     1       5.248   3.434   0.816  0.00  0.00    +0.016 C 
ATOM     15  C   UNL     1       4.389   5.220  -1.027  0.00  0.00    +0.009 C 
ATOM     16  C   UNL     1       1.761   5.769  -1.328  0.00  0.00    +0.016 C 
ATOM     17  C   UNL     1       1.366   6.034   1.137  0.00  0.00    +0.016 C 
ENDBRANCH   1   9
BRANCH   1  18
ATOM     18  C   UNL     1      -1.856   1.747  -1.067  0.00  0.00    +0.103 C 
BRANCH  18  19
ATOM     19  C   UNL     1      -3.013   0.781  -1.328  0.00  0.00    +0.098 C 
ATOM     20  C   UNL     1      -3.305   0.004  -0.071  0.00  0.00    +0.019 A 
ATOM     21  C   UNL     1      -3.569  -1.349  -0.096  0.00  0.00    -0.034 A 
ATOM     22  C   UNL     1      -3.838  -2.026   1.084  0.00  0.00    +0.053 A 
ATOM     23  C   UNL     1      -3.841  -1.353   2.295  0.00  0.00    +0.170 A 
ATOM     24  C   UNL     1      -3.573   0.011   2.325  0.00  0.00    +0.208 A 
ATOM     25  C   UNL     1      -3.306   0.685   1.142  0.00  0.00    +0.170 A 
ATOM     26  O   UNL     1      -3.633   0.439   3.621  0.00  0.00    -0.449 OA
ATOM     27  C   UNL     1      -4.342  -0.592   4.333  0.00  0.00    +0.467 C 
ATOM     28  O   UNL     1      -4.070  -1.782   3.570  0.00  0.00    -0.452 OA
ATOM     29  C   UNL     1      -3.570  -2.130  -1.386  0.00  0.00    +0.051 C 
ATOM     30  C   UNL     1      -3.671  -1.174  -2.575  0.00  0.00    +0.089 C 
ATOM     31  N   UNL     1      -2.649  -0.127  -2.420  0.00  0.00    -0.298 NA
ATOM     32  C   UNL     1      -2.456   0.610  -3.676  0.00  0.00    +0.105 C 
BRANCH  25  33
ATOM     33  O   UNL     1      -3.043   2.020   1.168  0.00  0.00    -0.491 OA
ATOM     34  C   UNL     1      -4.159   2.903   1.041  0.00  0.00    +0.277 C 
ENDBRANCH  25  33
ENDBRANCH  18  19
ENDBRANCH   1  18
TORSDOF 4
