REMARK  Name = ZINC67612251
REMARK  9 active torsions:
REMARK  status: ('A' for Active; 'I' for Inactive)
REMARK    1  A    between atoms: C_1  and  C_2
REMARK    2  A    between atoms: C_5  and  C_8
REMARK    3  A    between atoms: C_8  and  C_10
REMARK    4  A    between atoms: C_8  and  N_13
REMARK    5  A    between atoms: N_16  and  C_17
REMARK    6  A    between atoms: N_16  and  C_18
REMARK    7  A    between atoms: C_18  and  C_20
REMARK    8  A    between atoms: C_18  and  C_21
REMARK    9  A    between atoms: C_25  and  O_27
REMARK                            x       y       z     vdW  Elec       q    Type
REMARK                         _______ _______ _______ _____ _____    ______ ____
ROOT
ATOM      1  N   UNL     1       1.133  -4.606   1.346  0.00  0.00    -0.292 N 
ATOM      2  C   UNL     1       1.580  -5.846   1.066  0.00  0.00    +0.303 C 
ATOM      3  O   UNL     1       1.207  -6.413   0.057  0.00  0.00    -0.253 OA
ATOM      4  N   UNL     1       2.439  -6.459   1.904  0.00  0.00    -0.282 N 
ATOM      5  C   UNL     1       2.889  -5.776   3.119  0.00  0.00    +0.134 C 
ATOM      6  H   UNL     1       1.431  -4.154   2.151  0.00  0.00    +0.151 HD
ENDROOT
BRANCH   4   7
ATOM      7  C   UNL     1       2.925  -7.807   1.599  0.00  0.00    +0.104 C 
ATOM      8  C   UNL     1       2.440  -8.779   2.676  0.00  0.00    +0.033 C 
BRANCH   7   9
ATOM      9  C   UNL     1       4.431  -7.804   1.567  0.00  0.00    -0.024 A 
ATOM     10  C   UNL     1       5.132  -8.940   1.925  0.00  0.00    +0.006 A 
ATOM     11  C   UNL     1       6.515  -8.940   1.897  0.00  0.00    +0.004 A 
ATOM     12  C   UNL     1       7.199  -7.804   1.510  0.00  0.00    +0.045 A 
ATOM     13  C   UNL     1       6.498  -6.662   1.150  0.00  0.00    +0.117 A 
ATOM     14  C   UNL     1       5.110  -6.667   1.173  0.00  0.00    +0.050 A 
BRANCH  13  15
ATOM     15  O   UNL     1       7.168  -5.543   0.769  0.00  0.00    -0.507 OA
ATOM     16  H   UNL     1       7.345  -5.495  -0.181  0.00  0.00    +0.292 HD
ENDBRANCH  13  15
ENDBRANCH   7   9
ENDBRANCH   4   7
BRANCH   1  17
ATOM     17  C   UNL     1       0.199  -3.940   0.435  0.00  0.00    +0.108 C 
BRANCH  17  22
ATOM     18  C   UNL     1       0.670   1.788   1.036  0.00  0.00    +0.044 C 
ATOM     19  C   UNL     1       0.548   0.294   0.879  0.00  0.00    -0.050 A 
ATOM     20  C   UNL     1       0.387  -0.258  -0.378  0.00  0.00    +0.004 A 
ATOM     21  C   UNL     1       0.274  -1.629  -0.522  0.00  0.00    +0.006 A 
ATOM     22  C   UNL     1       0.323  -2.447   0.592  0.00  0.00    -0.027 A 
ATOM     23  C   UNL     1       0.485  -1.894   1.848  0.00  0.00    +0.006 A 
ATOM     24  C   UNL     1       0.602  -0.524   1.992  0.00  0.00    +0.004 A 
ENDBRANCH  17  22
BRANCH  17  25
ATOM     25  C   UNL     1      -1.231  -4.371   0.767  0.00  0.00    +0.014 C 
ATOM     26  C   UNL     1      -1.444  -5.195   2.039  0.00  0.00    +0.006 C 
ATOM     27  C   UNL     1      -1.561  -5.862   0.667  0.00  0.00    +0.006 C 
ENDBRANCH  17  25
ENDBRANCH   1  17
TORSDOF 6
