REMARK  Name = ZINC11029582
REMARK  7 active torsions:
REMARK  status: ('A' for Active; 'I' for Inactive)
REMARK    1  A    between atoms: C_2  and  N_22
REMARK    2  A    between atoms: C_5  and  N_8
REMARK    3  A    between atoms: C_9  and  C_11
REMARK    4  A    between atoms: C_11  and  O_12
REMARK    5  A    between atoms: O_12  and  C_13
REMARK    6  A    between atoms: C_13  and  C_15
REMARK    7  A    between atoms: C_15  and  C_16
REMARK                            x       y       z     vdW  Elec       q    Type
REMARK                         _______ _______ _______ _____ _____    ______ ____
ROOT
ATOM      1  N   UNL     1      -0.257   3.857   8.186  0.00  0.00    -0.281 N 
ATOM      2  C   UNL     1      -0.430   4.782   7.221  0.00  0.00    +0.255 C 
ATOM      3  O   UNL     1       0.077   5.878   7.334  0.00  0.00    -0.272 OA
ATOM      4  H   UNL     1      -0.721   3.007   8.132  0.00  0.00    +0.155 HD
ENDROOT
BRANCH   1   9
ATOM      5  C   UNL     1       2.778   4.077  10.253  0.00  0.00    +0.050 A 
ATOM      6  C   UNL     1       2.270   4.650  11.405  0.00  0.00    +0.128 A 
ATOM      7  C   UNL     1       0.925   4.961  11.490  0.00  0.00    +0.050 A 
ATOM      8  C   UNL     1       0.085   4.699  10.425  0.00  0.00    +0.042 A 
ATOM      9  C   UNL     1       0.592   4.123   9.267  0.00  0.00    +0.062 A 
ATOM     10  C   UNL     1       1.942   3.807   9.187  0.00  0.00    +0.042 A 
ATOM     11 BR   UNL     1       2.637   3.016   7.616  0.00  0.00    -0.048 Br
ATOM     12 BR   UNL     1      -1.754   5.125  10.544  0.00  0.00    -0.048 Br
BRANCH   6  13
ATOM     13  N   UNL     1       3.168   4.933  12.547  0.00  0.00    +0.056 N 
ATOM     14  O   UNL     1       2.721   5.438  13.562  0.00  0.00    -0.126 OA
ATOM     15  O   UNL     1       4.352   4.660  12.473  0.00  0.00    -0.126 OA
ENDBRANCH   6  13
ENDBRANCH   1   9
BRANCH   2  16
ATOM     16  C   UNL     1      -1.252   4.454   6.002  0.00  0.00    +0.328 C 
BRANCH  16  17
ATOM     17  O   UNL     1      -1.288   5.605   5.118  0.00  0.00    -0.455 OA
BRANCH  17  18
ATOM     18  C   UNL     1      -1.985   5.477   3.978  0.00  0.00    +0.308 C 
ATOM     19  O   UNL     1      -2.547   4.437   3.727  0.00  0.00    -0.251 OA
BRANCH  18  20
ATOM     20  C   UNL     1      -2.066   6.630   3.011  0.00  0.00    +0.124 C 
BRANCH  20  21
ATOM     21  C   UNL     1      -2.914   6.224   1.803  0.00  0.00    -0.000 C 
ATOM     22  C   UNL     1      -2.910   7.342   0.741  0.00  0.00    +0.004 C 
ATOM     23  C   UNL     1      -4.327   7.384   0.141  0.00  0.00    +0.000 C 
ATOM     24  C   UNL     1      -5.143   6.290   0.860  0.00  0.00    +0.000 C 
ATOM     25  C   UNL     1      -4.404   6.088   2.206  0.00  0.00    +0.004 C 
ENDBRANCH  20  21
ENDBRANCH  18  20
ENDBRANCH  17  18
ENDBRANCH  16  17
ENDBRANCH   2  16
TORSDOF 7
