REMARK  Name = ZINC36806935
REMARK  7 active torsions:
REMARK  status: ('A' for Active; 'I' for Inactive)
REMARK    1  A    between atoms: C_1  and  C_2
REMARK    2  A    between atoms: C_2  and  C_4
REMARK    3  A    between atoms: C_2  and  N_11
REMARK    4  A    between atoms: C_12  and  C_14
REMARK    5  A    between atoms: C_14  and  N_15
REMARK    6  A    between atoms: C_18  and  C_22
REMARK    7  A    between atoms: C_18  and  C_23
REMARK                            x       y       z     vdW  Elec       q    Type
REMARK                         _______ _______ _______ _____ _____    ______ ____
ROOT
ATOM      1  N   UNL     1      -3.978  -1.213  -2.505  0.00  0.00    -0.215 N 
ATOM      2  C   UNL     1      -4.621  -0.195  -3.109  0.00  0.00    +0.251 C 
ATOM      3  O   UNL     1      -4.876   0.893  -2.638  0.00  0.00    -0.272 OA
ATOM      4  C   UNL     1      -4.961  -0.692  -4.501  0.00  0.00    +0.136 C 
ATOM      5  N   UNL     1      -4.418  -2.061  -4.521  0.00  0.00    -0.281 N 
ATOM      6  C   UNL     1      -3.860  -2.272  -3.315  0.00  0.00    +0.310 C 
ATOM      7  O   UNL     1      -3.313  -3.309  -2.995  0.00  0.00    -0.252 OA
ATOM      8  C   UNL     1      -6.476  -0.711  -4.711  0.00  0.00    +0.047 C 
ATOM      9  H   UNL     1      -4.453  -2.688  -5.260  0.00  0.00    +0.152 HD
ENDROOT
BRANCH   4  10
ATOM     10  C   UNL     1      -4.289   0.160  -5.547  0.00  0.00    +0.003 A 
ATOM     11  C   UNL     1      -3.402  -0.412  -6.439  0.00  0.00    +0.009 A 
ATOM     12  C   UNL     1      -2.786   0.368  -7.399  0.00  0.00    +0.020 A 
ATOM     13  C   UNL     1      -3.057   1.724  -7.467  0.00  0.00    +0.042 A 
ATOM     14  C   UNL     1      -3.945   2.297  -6.575  0.00  0.00    +0.040 A 
ATOM     15  C   UNL     1      -4.565   1.514  -5.617  0.00  0.00    +0.048 A 
ATOM     16 CL   UNL     1      -5.685   2.231  -4.501  0.00  0.00    -0.083 Cl
ATOM     17 CL   UNL     1      -2.283   2.704  -8.672  0.00  0.00    -0.083 Cl
ENDBRANCH   4  10
BRANCH   1  18
ATOM     18  C   UNL     1      -3.465  -1.164  -1.134  0.00  0.00    +0.213 C 
BRANCH  18  20
ATOM     19  N   UNL     1      -1.372  -0.511   0.012  0.00  0.00    -0.307 N 
ATOM     20  C   UNL     1      -2.051  -0.643  -1.145  0.00  0.00    +0.231 C 
ATOM     21  O   UNL     1      -1.524  -0.341  -2.194  0.00  0.00    -0.274 OA
ATOM     22  H   UNL     1      -1.794  -0.752   0.852  0.00  0.00    +0.149 HD
BRANCH  19  24
ATOM     23  C   UNL     1      -0.019   1.526   0.010  0.00  0.00    +0.033 C 
ATOM     24  C   UNL     1       0.002  -0.004   0.002  0.00  0.00    +0.100 C 
BRANCH  24  25
ATOM     25  C   UNL     1       0.731  -0.503   1.223  0.00  0.00    -0.027 A 
ATOM     26  C   UNL     1       0.080  -0.558   2.441  0.00  0.00    +0.008 A 
ATOM     27  C   UNL     1       0.748  -1.016   3.562  0.00  0.00    +0.038 A 
ATOM     28  C   UNL     1       2.068  -1.420   3.463  0.00  0.00    +0.123 A 
ATOM     29  C   UNL     1       2.719  -1.365   2.242  0.00  0.00    +0.038 A 
ATOM     30  C   UNL     1       2.048  -0.911   1.122  0.00  0.00    +0.008 A 
ATOM     31  F   UNL     1       2.722  -1.868   4.558  0.00  0.00    -0.205 F 
ENDBRANCH  24  25
ENDBRANCH  19  24
ENDBRANCH  18  20
ENDBRANCH   1  18
TORSDOF 5
