REMARK  Name = ZINC41585961
REMARK  5 active torsions:
REMARK  status: ('A' for Active; 'I' for Inactive)
REMARK    1  A    between atoms: C_1  and  C_2
REMARK    2  A    between atoms: C_3  and  C_27
REMARK    3  A    between atoms: C_9  and  O_26
REMARK    4  A    between atoms: C_10  and  C_13
REMARK    5  A    between atoms: C_13  and  N_14
REMARK                            x       y       z     vdW  Elec       q    Type
REMARK                         _______ _______ _______ _____ _____    ______ ____
ROOT
ATOM      1  C   UNL     1       0.048   1.553   0.088  0.00  0.00    +0.087 C 
ATOM      2  C   UNL     1       0.050   0.046   0.071  0.00  0.00    +0.114 A 
ATOM      3  C   UNL     1      -1.143  -0.606   0.084  0.00  0.00    +0.067 A 
ATOM      4  C   UNL     1      -1.130  -2.082   0.085  0.00  0.00    +0.200 A 
ATOM      5  O   UNL     1      -2.135  -2.737  -0.129  0.00  0.00    -0.286 OA
ATOM      6  C   UNL     1       0.174  -2.716   0.360  0.00  0.00    +0.065 A 
ATOM      7  C   UNL     1       0.276  -4.078   0.641  0.00  0.00    +0.019 A 
ATOM      8  C   UNL     1       1.500  -4.626   0.897  0.00  0.00    +0.046 A 
ATOM      9  C   UNL     1       2.644  -3.830   0.878  0.00  0.00    +0.125 A 
ATOM     10  C   UNL     1       2.558  -2.477   0.599  0.00  0.00    +0.051 A 
ATOM     11  C   UNL     1       1.322  -1.904   0.332  0.00  0.00    +0.147 A 
ATOM     12  O   UNL     1       1.221  -0.592   0.039  0.00  0.00    -0.459 OA
ENDROOT
BRANCH   3  13
ATOM     13  C   UNL     1      -2.422   0.144   0.097  0.00  0.00    -0.011 A 
ATOM     14  C   UNL     1      -2.753   0.943   1.191  0.00  0.00    +0.009 A 
ATOM     15  C   UNL     1      -3.945   1.639   1.198  0.00  0.00    +0.001 A 
ATOM     16  C   UNL     1      -4.810   1.545   0.122  0.00  0.00    +0.000 A 
ATOM     17  C   UNL     1      -4.486   0.755  -0.966  0.00  0.00    +0.001 A 
ATOM     18  C   UNL     1      -3.295   0.059  -0.986  0.00  0.00    +0.009 A 
ENDBRANCH   3  13
BRANCH   9  19
ATOM     19  O   UNL     1       3.854  -4.388   1.137  0.00  0.00    -0.506 OA
ATOM     20  H   UNL     1       4.310  -4.721   0.352  0.00  0.00    +0.292 HD
ENDBRANCH   9  19
BRANCH  10  21
ATOM     21  C   UNL     1       3.804  -1.629   0.583  0.00  0.00    +0.127 C 
BRANCH  21  22
ATOM     22  N   UNL     1       4.374  -1.621  -0.771  0.00  0.00    -0.295 NA
ATOM     23  C   UNL     1       3.474  -0.951  -1.718  0.00  0.00    +0.103 C 
ATOM     24  C   UNL     1       4.016  -1.122  -3.141  0.00  0.00    +0.122 C 
ATOM     25  N   UNL     1       5.410  -0.653  -3.170  0.00  0.00    -0.314 N 
ATOM     26  C   UNL     1       6.341  -1.179  -2.161  0.00  0.00    +0.122 C 
ATOM     27  C   UNL     1       5.708  -1.006  -0.776  0.00  0.00    +0.103 C 
ATOM     28  C   UNL     1       5.835   0.262  -4.125  0.00  0.00    +0.099 A 
ATOM     29  C   UNL     1       7.124   0.781  -4.058  0.00  0.00    +0.042 A 
ATOM     30  C   UNL     1       7.534   1.691  -5.015  0.00  0.00    +0.005 A 
ATOM     31  C   UNL     1       6.638   2.054  -6.011  0.00  0.00    +0.018 A 
ATOM     32  C   UNL     1       5.373   1.500  -6.018  0.00  0.00    +0.084 A 
ATOM     33  N   UNL     1       5.011   0.630  -5.095  0.00  0.00    -0.350 N 
ATOM     34  H   UNL     1       4.118   0.253  -5.125  0.00  0.00    +0.166 HD
ENDBRANCH  21  22
ENDBRANCH  10  21
TORSDOF 4
