REMARK  Name = ZINC35747513
REMARK  14 active torsions:
REMARK  status: ('A' for Active; 'I' for Inactive)
REMARK    1  A    between atoms: C_1  and  O_2
REMARK    2  A    between atoms: O_2  and  C_3
REMARK    3  A    between atoms: C_7  and  C_9
REMARK    4  A    between atoms: C_18  and  C_20
REMARK    5  A    between atoms: C_20  and  N_21
REMARK    6  A    between atoms: N_21  and  C_22
REMARK    7  A    between atoms: N_21  and  C_28
REMARK    8  A    between atoms: C_22  and  C_23
REMARK    9  A    between atoms: C_28  and  C_29
REMARK   10  A    between atoms: C_29  and  C_31
REMARK   11  A    between atoms: C_29  and  O_36
REMARK   12  A    between atoms: C_31  and  O_32
REMARK   13  A    between atoms: O_32  and  C_33
REMARK   14  A    between atoms: C_33  and  C_34
REMARK                            x       y       z     vdW  Elec       q    Type
REMARK                         _______ _______ _______ _____ _____    ______ ____
ROOT
ATOM      1  C   UNL     1       0.975  -4.468   1.368  0.00  0.00    +0.004 A 
ATOM      2  C   UNL     1      -0.006  -5.332   1.011  0.00  0.00    +0.056 A 
ATOM      3  S   UNL     1       0.718  -6.931   1.323  0.00  0.00    -0.076 S 
ATOM      4  C   UNL     1       2.305  -6.407   1.920  0.00  0.00    +0.116 A 
ATOM      5  C   UNL     1       2.238  -5.006   1.857  0.00  0.00    +0.080 A 
ATOM      6  C   UNL     1       3.414  -4.310   2.286  0.00  0.00    +0.260 A 
ATOM      7  O   UNL     1       3.450  -3.091   2.273  0.00  0.00    -0.267 OA
ATOM      8  N   UNL     1       4.477  -5.021   2.704  0.00  0.00    -0.312 N 
ATOM      9  H   UNL     1       5.276  -4.555   2.996  0.00  0.00    +0.170 HD
ATOM     10  C   UNL     1       4.453  -6.378   2.725  0.00  0.00    +0.094 A 
ATOM     11  N   UNL     1       3.392  -7.041   2.350  0.00  0.00    -0.229 NA
ENDROOT
BRANCH   1  16
ATOM     12  C   UNL     1       0.091  -1.086  -0.023  0.00  0.00    +0.121 A 
ATOM     13  C   UNL     1       0.387  -0.266   1.058  0.00  0.00    +0.045 A 
ATOM     14  C   UNL     1       0.870  -0.810   2.232  0.00  0.00    +0.004 A 
ATOM     15  C   UNL     1       1.063  -2.173   2.338  0.00  0.00    +0.009 A 
ATOM     16  C   UNL     1       0.769  -3.004   1.258  0.00  0.00    -0.013 A 
ATOM     17  C   UNL     1       0.276  -2.455   0.075  0.00  0.00    +0.054 A 
BRANCH  12  19
ATOM     18  C   UNL     1      -0.550   0.873  -1.208  0.00  0.00    +0.277 C 
ATOM     19  O   UNL     1      -0.384  -0.546  -1.176  0.00  0.00    -0.495 OA
ENDBRANCH  12  19
ENDBRANCH   1  16
BRANCH  10  20
ATOM     20  C   UNL     1       5.668  -7.133   3.201  0.00  0.00    -0.003 C 
BRANCH  20  21
ATOM     21  N   UNL     1       5.405  -8.576   3.134  0.00  0.00    +0.391 N 
ATOM     22  H   UNL     1       4.569  -8.790   3.656  0.00  0.00    -0.080 HD
BRANCH  21  23
ATOM     23  C   UNL     1       5.223  -8.977   1.732  0.00  0.00    -0.002 C 
BRANCH  23  24
ATOM     24  C   UNL     1       4.812 -10.425   1.673  0.00  0.00    +0.089 A 
ATOM     25  C   UNL     1       3.557 -10.893   1.799  0.00  0.00    +0.042 A 
ATOM     26  C   UNL     1       3.630 -12.300   1.680  0.00  0.00    +0.041 A 
ATOM     27  C   UNL     1       4.926 -12.608   1.488  0.00  0.00    +0.195 A 
ATOM     28  O   UNL     1       5.636 -11.468   1.479  0.00  0.00    -0.470 OA
ENDBRANCH  23  24
ENDBRANCH  21  23
BRANCH  21  29
ATOM     29  C   UNL     1       6.542  -9.308   3.709  0.00  0.00    -0.044 C 
BRANCH  29  30
ATOM     30  C   UNL     1       6.643  -9.001   5.204  0.00  0.00    +0.124 C 
BRANCH  30  31
ATOM     31  O   UNL     1       5.453  -9.439   5.862  0.00  0.00    -0.391 OA
ATOM     32  H   UNL     1       5.318 -10.396   5.835  0.00  0.00    +0.210 HD
ENDBRANCH  30  31
BRANCH  30  33
ATOM     33  C   UNL     1       7.851  -9.732   5.795  0.00  0.00    +0.189 C 
BRANCH  33  34
ATOM     34  O   UNL     1       8.014  -9.354   7.163  0.00  0.00    -0.373 OA
BRANCH  34  35
ATOM     35  C   UNL     1       9.120  -9.984   7.812  0.00  0.00    +0.186 C 
BRANCH  35  36
ATOM     36  C   UNL     1       9.197  -9.515   9.242  0.00  0.00    -0.007 C 
ATOM     37  C   UNL     1       9.399 -10.380  10.205  0.00  0.00    +0.006 C 
ENDBRANCH  35  36
ENDBRANCH  34  35
ENDBRANCH  33  34
ENDBRANCH  30  33
ENDBRANCH  29  30
ENDBRANCH  21  29
ENDBRANCH  20  21
ENDBRANCH  10  20
TORSDOF 13
