REMARK  Name = ZINC02617848
REMARK  13 active torsions:
REMARK  status: ('A' for Active; 'I' for Inactive)
REMARK    1  A    between atoms: C_1  and  C_2
REMARK    2  A    between atoms: C_5  and  C_31
REMARK    3  A    between atoms: C_6  and  O_8
REMARK    4  A    between atoms: O_8  and  C_9
REMARK    5  A    between atoms: C_9  and  C_10
REMARK    6  A    between atoms: N_12  and  N_13
REMARK    7  A    between atoms: C_14  and  C_16
REMARK    8  A    between atoms: C_17  and  C_30
REMARK    9  A    between atoms: N_19  and  C_22
REMARK   10  A    between atoms: C_20  and  C_21
REMARK   11  A    between atoms: C_22  and  C_23
REMARK   12  A    between atoms: C_31  and  C_32
REMARK   13  A    between atoms: C_31  and  C_33
REMARK                            x       y       z     vdW  Elec       q    Type
REMARK                         _______ _______ _______ _____ _____    ______ ____
ROOT
ATOM      1  N   UNL     1       0.266   4.221   5.668  0.00  0.00    -0.230 N 
ATOM      2  C   UNL     1       0.469   5.146   4.709  0.00  0.00    +0.264 C 
ATOM      3  O   UNL     1       0.129   6.299   4.894  0.00  0.00    -0.269 OA
ATOM      4  H   UNL     1       0.538   3.302   5.521  0.00  0.00    +0.173 HD
ENDROOT
BRANCH   2   5
ATOM      5  C   UNL     1       1.103   4.761   3.436  0.00  0.00    +0.081 A 
ATOM      6  C   UNL     1       2.487   4.772   3.150  0.00  0.00    +0.072 A 
ATOM      7  N   UNL     1       2.650   4.365   1.922  0.00  0.00    -0.175 NA
ATOM      8  N   UNL     1       1.396   4.077   1.370  0.00  0.00    -0.263 N 
ATOM      9  C   UNL     1       0.456   4.326   2.296  0.00  0.00    +0.049 A 
ATOM     10  C   UNL     1      -1.032   4.159   2.124  0.00  0.00    +0.066 C 
ATOM     11  C   UNL     1       3.583   5.183   4.099  0.00  0.00    +0.068 C 
BRANCH   8  12
ATOM     12  C   UNL     1       1.150   3.592   0.010  0.00  0.00    +0.180 C 
BRANCH  12  13
ATOM     13  C   UNL     1       1.171   2.086   0.002  0.00  0.00    -0.008 A 
ATOM     14  C   UNL     1      -0.017   1.378   0.010  0.00  0.00    +0.007 A 
ATOM     15  C   UNL     1       0.002  -0.004   0.002  0.00  0.00    +0.000 A 
ATOM     16  C   UNL     1       1.208  -0.680  -0.013  0.00  0.00    +0.001 A 
ATOM     17  C   UNL     1       2.396   0.027  -0.021  0.00  0.00    +0.020 A 
ATOM     18  C   UNL     1       2.378   1.410  -0.013  0.00  0.00    +0.046 A 
ATOM     19 CL   UNL     1       3.870   2.298  -0.023  0.00  0.00    -0.083 Cl
ENDBRANCH  12  13
ENDBRANCH   8  12
ENDBRANCH   2   5
BRANCH   1  22
ATOM     20  C   UNL     1      -0.539   3.663   7.838  0.00  0.00    +0.267 C 
ATOM     21  O   UNL     1      -0.200   2.514   7.653  0.00  0.00    -0.271 OA
ATOM     22  N   UNL     1      -0.337   4.588   6.879  0.00  0.00    -0.231 N 
ATOM     23  H   UNL     1      -0.608   5.508   7.026  0.00  0.00    +0.173 HD
BRANCH  20  24
ATOM     24  C   UNL     1      -1.188   4.058   9.140  0.00  0.00    +0.326 C 
BRANCH  24  25
ATOM     25  O   UNL     1      -1.292   2.911   9.986  0.00  0.00    -0.482 OA
BRANCH  25  31
ATOM     26  C   UNL     1      -3.364   5.907  13.235  0.00  0.00    +0.044 C 
ATOM     27  C   UNL     1      -2.880   4.540  12.826  0.00  0.00    -0.047 A 
ATOM     28  C   UNL     1      -3.012   3.471  13.694  0.00  0.00    +0.004 A 
ATOM     29  C   UNL     1      -2.568   2.216  13.322  0.00  0.00    +0.008 A 
ATOM     30  C   UNL     1      -1.992   2.026  12.081  0.00  0.00    -0.003 A 
ATOM     31  C   UNL     1      -1.859   3.096  11.208  0.00  0.00    +0.125 A 
ATOM     32  C   UNL     1      -2.300   4.356  11.586  0.00  0.00    +0.049 A 
BRANCH  30  33
ATOM     33  C   UNL     1      -1.508   0.657  11.675  0.00  0.00    +0.016 C 
ATOM     34  C   UNL     1      -0.434   0.184  12.657  0.00  0.00    +0.012 C 
ATOM     35  C   UNL     1      -2.683  -0.324  11.692  0.00  0.00    +0.012 C 
ENDBRANCH  30  33
ENDBRANCH  25  31
ENDBRANCH  24  25
ENDBRANCH  20  24
ENDBRANCH   1  22
TORSDOF 8
