REMARK  Name = ZINC63857813
REMARK  7 active torsions:
REMARK  status: ('A' for Active; 'I' for Inactive)
REMARK    1  A    between atoms: C_7  and  C_10
REMARK    2  A    between atoms: C_10  and  C_11
REMARK    3  A    between atoms: C_11  and  C_13
REMARK    4  A    between atoms: C_11  and  N_24
REMARK    5  A    between atoms: N_15  and  N_16
REMARK    6  A    between atoms: C_17  and  C_18
REMARK    7  A    between atoms: C_25  and  C_27
REMARK                            x       y       z     vdW  Elec       q    Type
REMARK                         _______ _______ _______ _____ _____    ______ ____
ROOT
ATOM      1  C   UNL     1       0.457  -3.653  -1.462  0.00  0.00    +0.165 C 
ENDROOT
BRANCH   1   2
ATOM      2  C   UNL     1      -0.578  -4.750  -1.471  0.00  0.00    +0.253 C 
ATOM      3  O   UNL     1      -0.231  -5.910  -1.548  0.00  0.00    -0.272 OA
ATOM      4  N   UNL     1      -1.887  -4.441  -1.394  0.00  0.00    -0.205 N 
ATOM      5  H   UNL     1      -2.164  -3.513  -1.333  0.00  0.00    +0.177 HD
BRANCH   4   6
ATOM      6  N   UNL     1      -2.849  -5.460  -1.403  0.00  0.00    -0.188 NA
ATOM      7  C   UNL     1      -4.110  -5.163  -1.329  0.00  0.00    +0.139 C 
BRANCH   7   8
ATOM      8  C   UNL     1      -5.122  -6.236  -1.338  0.00  0.00    +0.013 A 
ATOM      9  C   UNL     1      -6.487  -5.928  -1.264  0.00  0.00    +0.012 A 
ATOM     10  C   UNL     1      -7.395  -6.971  -1.277  0.00  0.00    +0.020 A 
ATOM     11  C   UNL     1      -6.932  -8.273  -1.361  0.00  0.00    +0.111 A 
ATOM     12  N   UNL     1      -5.640  -8.533  -1.429  0.00  0.00    -0.263 NA
ATOM     13  C   UNL     1      -4.736  -7.575  -1.427  0.00  0.00    +0.120 A 
ENDBRANCH   7   8
ENDBRANCH   4   6
ENDBRANCH   1   2
BRANCH   1  14
ATOM     14  N   UNL     1       1.712  -4.162  -2.020  0.00  0.00    -0.299 N 
ATOM     15  C   UNL     1       2.336  -5.203  -1.437  0.00  0.00    +0.251 C 
ATOM     16  O   UNL     1       1.857  -5.722  -0.445  0.00  0.00    -0.270 OA
ATOM     17  H   UNL     1       2.094  -3.748  -2.811  0.00  0.00    +0.150 HD
BRANCH  15  18
ATOM     18  C   UNL     1       3.592  -5.712  -1.996  0.00  0.00    +0.074 A 
ATOM     19  C   UNL     1       4.382  -6.764  -1.557  0.00  0.00    +0.021 A 
ATOM     20  C   UNL     1       5.516  -7.007  -2.294  0.00  0.00    +0.008 A 
ATOM     21  C   UNL     1       5.782  -6.227  -3.370  0.00  0.00    +0.046 A 
ATOM     22  S   UNL     1       4.499  -5.144  -3.421  0.00  0.00    -0.092 S 
ENDBRANCH  15  18
ENDBRANCH   1  14
BRANCH   1  23
ATOM     23  C   UNL     1       0.691  -3.186  -0.024  0.00  0.00    +0.065 C 
BRANCH  23  30
ATOM     24  C   UNL     1      -0.016   1.348   0.009  0.00  0.00    +0.001 A 
ATOM     25  C   UNL     1       1.166   2.101   0.002  0.00  0.00    +0.002 A 
ATOM     26  C   UNL     1       2.391   1.535  -0.013  0.00  0.00    +0.026 A 
ATOM     27  C   UNL     1       2.529   0.120  -0.022  0.00  0.00    +0.043 A 
ATOM     28  N   UNL     1       3.587  -0.654  -0.037  0.00  0.00    -0.380 N 
ATOM     29  C   UNL     1       3.143  -2.053  -0.041  0.00  0.00    +0.144 C 
ATOM     30  C   UNL     1       1.631  -2.008  -0.025  0.00  0.00    -0.039 C 
ATOM     31  C   UNL     1       1.295  -0.698  -0.014  0.00  0.00    -0.001 A 
ATOM     32  C   UNL     1       0.002  -0.004   0.002  0.00  0.00    +0.010 A 
ATOM     33  H   UNL     1       4.509  -0.353  -0.045  0.00  0.00    +0.160 HD
ENDBRANCH  23  30
ENDBRANCH   1  23
TORSDOF 7
