REMARK  Name = ZINC59041726
REMARK  8 active torsions:
REMARK  status: ('A' for Active; 'I' for Inactive)
REMARK    1  A    between atoms: C_1  and  C_2
REMARK    2  A    between atoms: C_8  and  O_10
REMARK    3  A    between atoms: O_10  and  C_11
REMARK    4  A    between atoms: C_11  and  C_12
REMARK    5  A    between atoms: C_12  and  N_13
REMARK    6  A    between atoms: N_16  and  C_17
REMARK    7  A    between atoms: C_17  and  C_19
REMARK    8  A    between atoms: C_17  and  C_20
REMARK                            x       y       z     vdW  Elec       q    Type
REMARK                         _______ _______ _______ _____ _____    ______ ____
ROOT
ATOM      1  N   UNL     1       4.045   2.037   1.788  0.00  0.00    -0.297 N 
ATOM      2  C   UNL     1       5.197   2.702   1.572  0.00  0.00    +0.300 C 
ATOM      3  O   UNL     1       6.258   2.197   1.886  0.00  0.00    -0.253 OA
ATOM      4  N   UNL     1       5.173   3.925   1.008  0.00  0.00    -0.290 N 
ATOM      5  H   UNL     1       3.198   2.439   1.537  0.00  0.00    +0.150 HD
ATOM      6  H   UNL     1       4.327   4.328   0.757  0.00  0.00    +0.151 HD
ENDROOT
BRANCH   4   7
ATOM      7  C   UNL     1       6.426   4.648   0.773  0.00  0.00    +0.137 C 
ATOM      8  C   UNL     1       7.028   4.205  -0.562  0.00  0.00    +0.036 C 
BRANCH   7   9
ATOM      9  C   UNL     1       6.151   6.130   0.734  0.00  0.00    +0.126 A 
ATOM     10  C   UNL     1       6.940   7.070   1.271  0.00  0.00    +0.055 A 
ATOM     11  C   UNL     1       6.288   8.357   0.995  0.00  0.00    +0.020 A 
ATOM     12  C   UNL     1       6.595   9.686   1.282  0.00  0.00    +0.011 A 
ATOM     13  C   UNL     1       5.751  10.680   0.871  0.00  0.00    +0.001 A 
ATOM     14  C   UNL     1       4.593  10.373   0.171  0.00  0.00    +0.004 A 
ATOM     15  C   UNL     1       4.274   9.065  -0.123  0.00  0.00    +0.047 A 
ATOM     16  C   UNL     1       5.118   8.040   0.286  0.00  0.00    +0.135 A 
ATOM     17  O   UNL     1       5.082   6.699   0.150  0.00  0.00    -0.458 OA
ENDBRANCH   7   9
ENDBRANCH   4   7
BRANCH   1  18
ATOM     18  C   UNL     1       4.070   0.707   2.401  0.00  0.00    +0.133 C 
BRANCH  18  19
ATOM     19  C   UNL     1       2.640   0.178   2.533  0.00  0.00    +0.179 C 
BRANCH  19  20
ATOM     20  O   UNL     1       2.083  -0.016   1.231  0.00  0.00    -0.375 OA
BRANCH  20  27
ATOM     21  C   UNL     1      -0.019   1.526   0.010  0.00  0.00    +0.010 C 
ATOM     22  C   UNL     1       0.002  -0.004   0.002  0.00  0.00    +0.015 C 
ATOM     23  C   UNL     1       0.718  -0.497  -1.257  0.00  0.00    +0.006 C 
ATOM     24  C   UNL     1       0.739  -2.027  -1.265  0.00  0.00    +0.000 C 
ATOM     25  C   UNL     1       1.479  -2.534  -0.026  0.00  0.00    +0.003 C 
ATOM     26  C   UNL     1       0.763  -2.041   1.233  0.00  0.00    +0.032 C 
ATOM     27  C   UNL     1       0.742  -0.511   1.242  0.00  0.00    +0.121 C 
ENDBRANCH  20  27
ENDBRANCH  19  20
ENDBRANCH  18  19
ENDBRANCH   1  18
TORSDOF 6
