REMARK  Name = ZINC02573384
REMARK  6 active torsions:
REMARK  status: ('A' for Active; 'I' for Inactive)
REMARK    1  A    between atoms: C_1  and  C_2
REMARK    2  A    between atoms: C_2  and  N_3
REMARK    3  A    between atoms: N_3  and  C_4
REMARK    4  A    between atoms: N_3  and  C_6
REMARK    5  A    between atoms: C_4  and  C_5
REMARK    6  A    between atoms: C_9  and  N_12
REMARK                            x       y       z     vdW  Elec       q    Type
REMARK                         _______ _______ _______ _____ _____    ______ ____
ROOT
ATOM      1  N   UNL     1      -2.209  -1.419  -5.867  0.00  0.00    -0.224 N 
ATOM      2  C   UNL     1      -2.950  -0.447  -6.374  0.00  0.00    +0.263 C 
ATOM      3  O   UNL     1      -3.017   0.648  -5.851  0.00  0.00    -0.269 OA
ATOM      4  C   UNL     1      -3.696  -0.769  -7.620  0.00  0.00    +0.090 C 
ATOM      5  C   UNL     1      -4.539   0.026  -8.373  0.00  0.00    +0.065 C 
ATOM      6  C   UNL     1      -5.263  -0.346  -9.606  0.00  0.00    +0.011 A 
ATOM      7  C   UNL     1      -5.331  -1.518 -10.355  0.00  0.00    +0.025 A 
ATOM      8  C   UNL     1      -6.116  -1.560 -11.490  0.00  0.00    +0.019 A 
ATOM      9  C   UNL     1      -6.832  -0.440 -11.881  0.00  0.00    +0.017 A 
ATOM     10  C   UNL     1      -6.771   0.727 -11.146  0.00  0.00    +0.025 A 
ATOM     11  C   UNL     1      -5.987   0.789  -9.999  0.00  0.00    +0.042 A 
ATOM     12  N   UNL     1      -5.753   1.818  -9.095  0.00  0.00    -0.281 N 
ATOM     13  C   UNL     1      -4.917   1.430  -8.116  0.00  0.00    +0.250 C 
ATOM     14  O   UNL     1      -4.536   2.116  -7.186  0.00  0.00    -0.270 OA
ATOM     15 BR   UNL     1      -6.214  -3.148 -12.512  0.00  0.00    -0.050 Br
ATOM     16  S   UNL     1      -3.201  -2.468  -7.876  0.00  0.00    -0.060 S 
ATOM     17  C   UNL     1      -2.133  -2.629  -6.455  0.00  0.00    +0.125 C 
ATOM     18  S   UNL     1      -1.231  -3.996  -5.955  0.00  0.00    -0.027 S 
ATOM     19  H   UNL     1      -6.146   2.703  -9.159  0.00  0.00    +0.155 HD
ENDROOT
BRANCH   1  23
ATOM     20  C   UNL     1      -0.039  -0.713  -2.375  0.00  0.00    +0.030 A 
ATOM     21  C   UNL     1      -1.335  -1.205  -2.299  0.00  0.00    +0.025 A 
ATOM     22  C   UNL     1      -2.054  -1.438  -3.455  0.00  0.00    +0.026 A 
ATOM     23  C   UNL     1      -1.479  -1.181  -4.693  0.00  0.00    +0.043 A 
ATOM     24  C   UNL     1      -0.183  -0.689  -4.769  0.00  0.00    +0.026 A 
ATOM     25  C   UNL     1       0.533  -0.451  -3.613  0.00  0.00    +0.025 A 
BRANCH  20  26
ATOM     26  N   UNL     1       0.689  -0.476  -1.204  0.00  0.00    -0.330 N 
BRANCH  26  28
ATOM     27  C   UNL     1      -0.639   0.497   0.604  0.00  0.00    +0.024 C 
ATOM     28  C   UNL     1       0.085  -0.753   0.102  0.00  0.00    +0.102 C 
ENDBRANCH  26  28
BRANCH  26  29
ATOM     29  C   UNL     1       2.054   0.048  -1.283  0.00  0.00    +0.102 C 
ATOM     30  C   UNL     1       3.044  -1.116  -1.359  0.00  0.00    +0.024 C 
ENDBRANCH  26  29
ENDBRANCH  20  26
ENDBRANCH   1  23
TORSDOF 4
