REMARK  Name = ZINC25131466
REMARK  8 active torsions:
REMARK  status: ('A' for Active; 'I' for Inactive)
REMARK    1  A    between atoms: C_4  and  S_8
REMARK    2  A    between atoms: S_8  and  N_11
REMARK    3  A    between atoms: N_11  and  C_12
REMARK    4  A    between atoms: C_17  and  N_18
REMARK    5  A    between atoms: C_19  and  C_21
REMARK    6  A    between atoms: C_21  and  S_22
REMARK    7  A    between atoms: S_22  and  C_23
REMARK    8  A    between atoms: N_27  and  C_28
REMARK                            x       y       z     vdW  Elec       q    Type
REMARK                         _______ _______ _______ _____ _____    ______ ____
ROOT
ATOM      1  C   UNL     1      -1.208   3.776  -0.165  0.00  0.00    +0.069 A 
ATOM      2  C   UNL     1      -2.284   4.637   0.002  0.00  0.00    +0.028 A 
ATOM      3  C   UNL     1      -3.564   4.128   0.121  0.00  0.00    +0.022 A 
ATOM      4  C   UNL     1      -3.777   2.762   0.067  0.00  0.00    +0.043 A 
ATOM      5  C   UNL     1      -2.711   1.898  -0.104  0.00  0.00    +0.045 A 
ATOM      6  C   UNL     1      -1.424   2.400  -0.223  0.00  0.00    +0.057 A 
ATOM      7 CL   UNL     1      -5.388   2.131   0.216  0.00  0.00    -0.083 Cl
ENDROOT
BRANCH   6   8
ATOM      8  N   UNL     1      -0.342   1.526  -0.397  0.00  0.00    -0.283 N 
ATOM      9  C   UNL     1      -0.501   0.388  -1.100  0.00  0.00    +0.228 C 
ATOM     10  O   UNL     1      -1.601   0.072  -1.502  0.00  0.00    -0.275 OA
ATOM     11  H   UNL     1       0.637   1.770   0.042  0.00  0.00    +0.155 HD
BRANCH   9  12
ATOM     12  C   UNL     1       0.687  -0.493  -1.387  0.00  0.00    +0.173 C 
BRANCH  12  13
ATOM     13  S   UNL     1       0.153  -1.935  -2.342  0.00  0.00    -0.075 S 
BRANCH  13  14
ATOM     14  C   UNL     1       1.696  -2.766  -2.530  0.00  0.00    +0.210 A 
ATOM     15  N   UNL     1       2.861  -2.364  -2.071  0.00  0.00    -0.101 NA
ATOM     16  N   UNL     1       3.781  -3.205  -2.380  0.00  0.00    -0.022 NA
ATOM     17  N   UNL     1       3.284  -4.184  -3.056  0.00  0.00    -0.043 NA
ATOM     18  N   UNL     1       1.905  -3.936  -3.179  0.00  0.00    -0.217 N 
BRANCH  18  19
ATOM     19  C   UNL     1       0.910  -4.764  -3.864  0.00  0.00    +0.112 C 
ATOM     20  C   UNL     1       1.353  -6.145  -4.349  0.00  0.00    +0.029 C 
ATOM     21  C   UNL     1       1.112  -5.020  -5.359  0.00  0.00    +0.029 C 
ENDBRANCH  18  19
ENDBRANCH  13  14
ENDBRANCH  12  13
ENDBRANCH   9  12
ENDBRANCH   6   8
BRANCH   1  22
ATOM     22  N   UNL     1       0.089   4.289  -0.278  0.00  0.00    -0.214 N 
ATOM     23  H   UNL     1       0.647   4.170  -1.219  0.00  0.00    +0.174 HD
BRANCH  22  24
ATOM     24  S   UNL     1       0.785   5.074   1.003  0.00  0.00    +0.075 S 
ATOM     25  O   UNL     1       2.099   5.430   0.597  0.00  0.00    -0.150 OA
ATOM     26  O   UNL     1      -0.161   6.035   1.452  0.00  0.00    -0.150 OA
BRANCH  24  30
ATOM     27  C   UNL     1       1.238   2.048   4.341  0.00  0.00    +0.003 A 
ATOM     28  C   UNL     1       2.359   2.603   3.752  0.00  0.00    +0.002 A 
ATOM     29  C   UNL     1       2.221   3.522   2.729  0.00  0.00    +0.032 A 
ATOM     30  C   UNL     1       0.961   3.897   2.302  0.00  0.00    +0.143 A 
ATOM     31  C   UNL     1      -0.163   3.342   2.891  0.00  0.00    +0.150 A 
ATOM     32  C   UNL     1      -0.023   2.416   3.912  0.00  0.00    +0.040 A 
ATOM     33  F   UNL     1      -1.395   3.702   2.470  0.00  0.00    -0.203 F 
ENDBRANCH  24  30
ENDBRANCH  22  24
ENDBRANCH   1  22
TORSDOF 8
