REMARK  Name = ZINC63258817
REMARK  9 active torsions:
REMARK  status: ('A' for Active; 'I' for Inactive)
REMARK    1  A    between atoms: C_7  and  C_10
REMARK    2  A    between atoms: C_10  and  C_11
REMARK    3  A    between atoms: C_11  and  C_13
REMARK    4  A    between atoms: C_11  and  N_29
REMARK    5  A    between atoms: C_13  and  O_15
REMARK    6  A    between atoms: O_15  and  C_16
REMARK    7  A    between atoms: C_16  and  C_17
REMARK    8  A    between atoms: N_19  and  C_20
REMARK    9  A    between atoms: C_30  and  C_32
REMARK                            x       y       z     vdW  Elec       q    Type
REMARK                         _______ _______ _______ _____ _____    ______ ____
ROOT
ATOM      1  C   UNL     1       0.453  -3.651  -1.457  0.00  0.00    +0.186 C 
ENDROOT
BRANCH   1   2
ATOM      2  N   UNL     1      -0.245  -2.598  -2.198  0.00  0.00    -0.298 N 
ATOM      3  C   UNL     1       0.455  -1.603  -2.776  0.00  0.00    +0.245 C 
ATOM      4  O   UNL     1       1.667  -1.578  -2.682  0.00  0.00    -0.270 OA
ATOM      5  H   UNL     1      -1.212  -2.618  -2.272  0.00  0.00    +0.150 HD
BRANCH   3   6
ATOM      6  C   UNL     1      -0.250  -0.540  -3.523  0.00  0.00    +0.037 A 
ATOM      7  C   UNL     1      -1.642  -0.562  -3.628  0.00  0.00    +0.014 A 
ATOM      8  C   UNL     1      -2.294   0.432  -4.326  0.00  0.00    +0.021 A 
ATOM      9  C   UNL     1      -1.571   1.451  -4.924  0.00  0.00    +0.041 A 
ATOM     10  C   UNL     1      -0.189   1.478  -4.824  0.00  0.00    +0.021 A 
ATOM     11  C   UNL     1       0.473   0.492  -4.123  0.00  0.00    +0.014 A 
ATOM     12 CL   UNL     1      -2.398   2.698  -5.802  0.00  0.00    -0.084 Cl
ENDBRANCH   3   6
ENDBRANCH   1   2
BRANCH   1  13
ATOM     13  C   UNL     1      -0.390  -4.901  -1.445  0.00  0.00    +0.328 C 
ATOM     14  O   UNL     1      -1.464  -4.910  -1.998  0.00  0.00    -0.249 OA
BRANCH  13  15
ATOM     15  O   UNL     1       0.053  -6.003  -0.819  0.00  0.00    -0.454 OA
BRANCH  15  16
ATOM     16  C   UNL     1      -0.798  -7.151  -0.847  0.00  0.00    +0.328 C 
BRANCH  16  17
ATOM     17  C   UNL     1      -0.140  -8.282  -0.099  0.00  0.00    +0.255 C 
ATOM     18  O   UNL     1       0.950  -8.121   0.408  0.00  0.00    -0.272 OA
ATOM     19  N   UNL     1      -0.763  -9.472   0.006  0.00  0.00    -0.283 N 
ATOM     20  H   UNL     1      -1.662  -9.582  -0.341  0.00  0.00    +0.155 HD
BRANCH  19  21
ATOM     21  C   UNL     1      -0.112 -10.552   0.616  0.00  0.00    +0.037 A 
ATOM     22  C   UNL     1      -0.314 -11.842   0.144  0.00  0.00    +0.027 A 
ATOM     23  C   UNL     1       0.328 -12.908   0.745  0.00  0.00    +0.051 A 
ATOM     24  C   UNL     1       1.175 -12.693   1.820  0.00  0.00    +0.166 A 
ATOM     25  C   UNL     1       1.380 -11.400   2.296  0.00  0.00    +0.168 A 
ATOM     26  C   UNL     1       0.741 -10.332   1.689  0.00  0.00    +0.072 A 
ATOM     27  O   UNL     1       2.247 -11.456   3.349  0.00  0.00    -0.453 OA
ATOM     28  C   UNL     1       2.251 -12.832   3.772  0.00  0.00    +0.466 C 
ATOM     29  O   UNL     1       1.914 -13.558   2.576  0.00  0.00    -0.453 OA
ENDBRANCH  19  21
ENDBRANCH  16  17
ENDBRANCH  15  16
ENDBRANCH  13  15
ENDBRANCH   1  13
BRANCH   1  30
ATOM     30  C   UNL     1       0.698  -3.187  -0.020  0.00  0.00    +0.067 C 
BRANCH  30  37
ATOM     31  C   UNL     1      -0.003   1.347   0.029  0.00  0.00    +0.001 A 
ATOM     32  C   UNL     1       1.180   2.099   0.015  0.00  0.00    +0.002 A 
ATOM     33  C   UNL     1       2.404   1.531  -0.009  0.00  0.00    +0.026 A 
ATOM     34  C   UNL     1       2.540   0.116  -0.023  0.00  0.00    +0.043 A 
ATOM     35  N   UNL     1       3.597  -0.659  -0.047  0.00  0.00    -0.380 N 
ATOM     36  C   UNL     1       3.152  -2.057  -0.051  0.00  0.00    +0.144 C 
ATOM     37  C   UNL     1       1.640  -2.011  -0.025  0.00  0.00    -0.039 C 
ATOM     38  C   UNL     1       1.306  -0.701  -0.009  0.00  0.00    -0.001 A 
ATOM     39  C   UNL     1       0.014  -0.005   0.018  0.00  0.00    +0.010 A 
ATOM     40  H   UNL     1       4.519  -0.359  -0.061  0.00  0.00    +0.160 HD
ENDBRANCH  30  37
ENDBRANCH   1  30
TORSDOF 9
