REMARK  Name = ZINC54159181
REMARK  3 active torsions:
REMARK  status: ('A' for Active; 'I' for Inactive)
REMARK    1  A    between atoms: C_1  and  C_2
REMARK    2  A    between atoms: C_2  and  C_4
REMARK    3  A    between atoms: C_7  and  C_9
REMARK                            x       y       z     vdW  Elec       q    Type
REMARK                         _______ _______ _______ _____ _____    ______ ____
ROOT
ATOM      1  C   UNL     1      -0.017  -1.800  -5.156  0.00  0.00    +0.012 A 
ATOM      2  C   UNL     1      -0.015  -3.110  -5.644  0.00  0.00    +0.060 A 
ATOM      3  C   UNL     1      -0.023  -3.330  -7.007  0.00  0.00    +0.164 A 
ATOM      4  C   UNL     1      -0.033  -2.256  -7.890  0.00  0.00    +0.176 A 
ATOM      5  C   UNL     1      -0.035  -0.955  -7.409  0.00  0.00    +0.064 A 
ATOM      6  C   UNL     1      -0.032  -0.725  -6.048  0.00  0.00    +0.029 A 
ATOM      7 BR   UNL     1      -0.048   0.501  -8.616  0.00  0.00    -0.046 Br
ATOM      8  O   UNL     1      -0.041  -2.490  -9.234  0.00  0.00    -0.487 OA
ATOM      9  C   UNL     1       1.151  -3.062  -9.776  0.00  0.00    +0.232 C 
ATOM     10  C   UNL     1       1.140  -4.575  -9.628  0.00  0.00    +0.082 C 
ATOM     11  C   UNL     1       1.168  -5.014  -8.172  0.00  0.00    +0.232 C 
ATOM     12  O   UNL     1      -0.023  -4.605  -7.496  0.00  0.00    -0.488 OA
ENDROOT
BRANCH   1  16
ATOM     13  C   UNL     1       0.000  -0.703  -1.224  0.00  0.00    +0.074 A 
ATOM     14  C   UNL     1       0.011  -2.077  -1.467  0.00  0.00    +0.130 A 
ATOM     15  N   UNL     1       0.005  -2.442  -2.719  0.00  0.00    -0.247 NA
ATOM     16  C   UNL     1      -0.009  -1.553  -3.701  0.00  0.00    +0.109 A 
ATOM     17  S   UNL     1      -0.025  -0.075  -2.896  0.00  0.00    -0.064 S 
BRANCH  13  19
ATOM     18  C   UNL     1      -0.018   1.503   0.010  0.00  0.00    +0.092 C 
ATOM     19  C   UNL     1       0.002  -0.004   0.002  0.00  0.00    +0.168 C 
ATOM     20  O   UNL     1       0.020  -0.617   1.050  0.00  0.00    -0.292 OA
ENDBRANCH  13  19
ENDBRANCH   1  16
TORSDOF 2
