REMARK  Name = ZINC01456559
REMARK  11 active torsions:
REMARK  status: ('A' for Active; 'I' for Inactive)
REMARK    1  A    between atoms: C_1  and  C_2
REMARK    2  A    between atoms: C_3  and  C_29
REMARK    3  A    between atoms: C_4  and  C_20
REMARK    4  A    between atoms: C_10  and  C_15
REMARK    5  A    between atoms: C_23  and  O_28
REMARK    6  A    between atoms: C_24  and  O_26
REMARK    7  A    between atoms: O_26  and  C_27
REMARK    8  A    between atoms: C_29  and  O_31
REMARK    9  A    between atoms: O_31  and  C_32
REMARK   10  A    between atoms: C_32  and  C_33
REMARK   11  A    between atoms: C_32  and  C_34
REMARK                            x       y       z     vdW  Elec       q    Type
REMARK                         _______ _______ _______ _____ _____    ______ ____
ROOT
ATOM      1  C   UNL     1      -1.129   3.089  -3.106  0.00  0.00    +0.061 C 
ATOM      2  C   UNL     1      -0.336   2.621  -1.913  0.00  0.00    +0.016 C 
ATOM      3  C   UNL     1      -0.772   1.575  -1.190  0.00  0.00    +0.065 C 
ATOM      4  C   UNL     1      -0.013   1.086   0.008  0.00  0.00    +0.092 C 
ATOM      5  C   UNL     1       1.405   1.600  -0.003  0.00  0.00    +0.024 C 
ATOM      6  C   UNL     1       1.750   2.653  -0.774  0.00  0.00    +0.016 C 
ATOM      7  N   UNL     1       0.821   3.264  -1.572  0.00  0.00    -0.321 N 
ATOM      8  C   UNL     1       3.162   3.184  -0.776  0.00  0.00    +0.060 C 
ATOM      9  C   UNL     1       4.142   2.041  -0.505  0.00  0.00    +0.039 C 
ATOM     10  C   UNL     1       3.787   1.405   0.844  0.00  0.00    +0.088 C 
ATOM     11  C   UNL     1       2.353   0.954   0.810  0.00  0.00    +0.162 C 
ATOM     12  O   UNL     1       2.007   0.014   1.497  0.00  0.00    -0.292 OA
ATOM     13  H   UNL     1       1.013   4.283  -1.940  0.00  0.00    +0.152 HD
ENDROOT
BRANCH   4  14
ATOM     14  C   UNL     1      -0.703   1.564   1.259  0.00  0.00    -0.032 A 
ATOM     15  C   UNL     1      -0.841   2.920   1.496  0.00  0.00    +0.008 A 
ATOM     16  C   UNL     1      -1.478   3.363   2.639  0.00  0.00    +0.049 A 
ATOM     17  C   UNL     1      -1.972   2.450   3.557  0.00  0.00    +0.158 A 
ATOM     18  C   UNL     1      -1.828   1.085   3.321  0.00  0.00    +0.162 A 
ATOM     19  C   UNL     1      -1.193   0.647   2.170  0.00  0.00    +0.054 A 
BRANCH  18  20
ATOM     20  O   UNL     1      -2.310   0.185   4.219  0.00  0.00    -0.491 OA
ATOM     21  C   UNL     1      -2.127  -1.199   3.912  0.00  0.00    +0.277 C 
ENDBRANCH  18  20
BRANCH  17  22
ATOM     22  O   UNL     1      -2.594   2.885   4.685  0.00  0.00    -0.503 OA
ATOM     23  H   UNL     1      -2.985   2.158   5.412  0.00  0.00    +0.292 HD
ENDBRANCH  17  22
ENDBRANCH   4  14
BRANCH   9  24
ATOM     24  C   UNL     1       5.549   2.580  -0.456  0.00  0.00    -0.006 A 
ATOM     25  C   UNL     1       6.614   2.256  -1.229  0.00  0.00    +0.011 A 
ATOM     26  C   UNL     1       7.822   2.890  -1.004  0.00  0.00    +0.008 A 
ATOM     27  C   UNL     1       7.908   3.808  -0.011  0.00  0.00    +0.045 A 
ATOM     28  S   UNL     1       6.246   3.804   0.640  0.00  0.00    -0.101 S 
ENDBRANCH   9  24
BRANCH   3  29
ATOM     29  C   UNL     1      -1.968   0.922  -1.568  0.00  0.00    +0.338 C 
ATOM     30  O   UNL     1      -2.593   1.309  -2.537  0.00  0.00    -0.245 OA
BRANCH  29  31
ATOM     31  O   UNL     1      -2.417  -0.131  -0.852  0.00  0.00    -0.459 OA
BRANCH  31  32
ATOM     32  C   UNL     1      -3.632  -0.742  -1.290  0.00  0.00    +0.171 C 
ATOM     33  C   UNL     1      -3.614  -2.229  -0.929  0.00  0.00    +0.052 C 
ATOM     34  C   UNL     1      -4.820  -0.066  -0.603  0.00  0.00    +0.052 C 
ENDBRANCH  31  32
ENDBRANCH  29  31
ENDBRANCH   3  29
TORSDOF 7
