REMARK  Name = ZINC34892482
REMARK  10 active torsions:
REMARK  status: ('A' for Active; 'I' for Inactive)
REMARK    1  A    between atoms: C_1  and  C_2
REMARK    2  A    between atoms: C_2  and  N_3
REMARK    3  A    between atoms: N_3  and  C_4
REMARK    4  A    between atoms: N_3  and  C_22
REMARK    5  A    between atoms: C_4  and  C_5
REMARK    6  A    between atoms: C_7  and  O_8
REMARK    7  A    between atoms: C_17  and  O_19
REMARK    8  A    between atoms: O_19  and  C_20
REMARK    9  A    between atoms: C_20  and  C_21
REMARK   10  A    between atoms: C_22  and  C_23
REMARK                            x       y       z     vdW  Elec       q    Type
REMARK                         _______ _______ _______ _____ _____    ______ ____
ROOT
ATOM      1  C   UNL     1      -0.775  -2.349  -1.351  0.00  0.00    -0.047 A 
ATOM      2  C   UNL     1      -1.455  -2.641  -0.185  0.00  0.00    +0.090 A 
ATOM      3  C   UNL     1      -2.833  -2.794  -0.208  0.00  0.00    +0.285 A 
ATOM      4  O   UNL     1      -3.529  -2.664  -1.343  0.00  0.00    -0.425 OA
ATOM      5  C   UNL     1      -2.915  -2.378  -2.510  0.00  0.00    +0.141 A 
ATOM      6  C   UNL     1      -1.513  -2.207  -2.544  0.00  0.00    +0.019 A 
ATOM      7  C   UNL     1      -0.870  -1.904  -3.758  0.00  0.00    +0.013 A 
ATOM      8  C   UNL     1      -1.598  -1.772  -4.897  0.00  0.00    +0.024 A 
ATOM      9  C   UNL     1      -2.995  -1.936  -4.871  0.00  0.00    +0.040 A 
ATOM     10  C   UNL     1      -3.647  -2.247  -3.675  0.00  0.00    +0.070 A 
ATOM     11  N   UNL     1      -3.713  -1.801  -6.018  0.00  0.00    -0.251 N 
ATOM     12  C   UNL     1      -5.027  -1.635  -5.961  0.00  0.00    +0.405 C 
ATOM     13  O   UNL     1      -5.575  -1.471  -4.884  0.00  0.00    -0.226 OA
ATOM     14  H   UNL     1      -3.264  -1.827  -6.877  0.00  0.00    +0.158 HD
ENDROOT
BRANCH   3  15
ATOM     15  O   UNL     1      -3.484  -3.079   0.936  0.00  0.00    -0.480 OA
ATOM     16  H   UNL     1      -4.441  -3.169   0.832  0.00  0.00    +0.295 HD
ENDBRANCH   3  15
BRANCH   1  17
ATOM     17  C   UNL     1       0.723  -2.178  -1.348  0.00  0.00    -0.041 C 
BRANCH  17  18
ATOM     18  N   UNL     1       1.057  -0.798  -0.973  0.00  0.00    +0.387 N 
ATOM     19  H   UNL     1       0.581  -0.157  -1.589  0.00  0.00    -0.081 HD
BRANCH  18  21
ATOM     20  C   UNL     1       1.312  -1.560   1.341  0.00  0.00    -0.017 C 
ATOM     21  C   UNL     1       0.634  -0.550   0.412  0.00  0.00    -0.081 C 
ENDBRANCH  18  21
BRANCH  18  22
ATOM     22  C   UNL     1       2.508  -0.598  -1.085  0.00  0.00    -0.003 C 
BRANCH  22  23
ATOM     23  C   UNL     1       2.834   0.856  -0.858  0.00  0.00    +0.094 A 
ATOM     24  N   UNL     1       4.141   1.222  -0.802  0.00  0.00    -0.312 N 
ATOM     25  H   UNL     1       4.833   0.551  -0.907  0.00  0.00    +0.170 HD
ATOM     26  C   UNL     1       4.487   2.515  -0.600  0.00  0.00    +0.259 A 
ATOM     27  O   UNL     1       5.654   2.858  -0.549  0.00  0.00    -0.267 OA
ATOM     28  C   UNL     1       3.397   3.491  -0.447  0.00  0.00    +0.065 A 
ATOM     29  C   UNL     1       3.645   4.846  -0.236  0.00  0.00    +0.015 A 
ATOM     30  C   UNL     1       2.586   5.716  -0.099  0.00  0.00    +0.001 A 
ATOM     31  C   UNL     1       1.278   5.254  -0.170  0.00  0.00    +0.002 A 
ATOM     32  C   UNL     1       1.012   3.919  -0.377  0.00  0.00    +0.028 A 
ATOM     33  C   UNL     1       2.068   3.017  -0.520  0.00  0.00    +0.078 A 
ATOM     34  N   UNL     1       1.851   1.695  -0.732  0.00  0.00    -0.236 NA
ENDBRANCH  22  23
ENDBRANCH  18  22
ENDBRANCH  17  18
ENDBRANCH   1  17
BRANCH  12  35
ATOM     35  O   UNL     1      -5.759  -1.647  -7.097  0.00  0.00    -0.450 OA
BRANCH  35  36
ATOM     36  C   UNL     1      -7.170  -1.462  -6.962  0.00  0.00    +0.230 C 
ATOM     37  C   UNL     1      -7.825  -1.506  -8.344  0.00  0.00    +0.048 C 
ENDBRANCH  35  36
ENDBRANCH  12  35
TORSDOF 8
