REMARK  Name = ZINC34733965
REMARK  4 active torsions:
REMARK  status: ('A' for Active; 'I' for Inactive)
REMARK    1  A    between atoms: C_1  and  C_2
REMARK    2  A    between atoms: C_5  and  N_8
REMARK    3  A    between atoms: N_18  and  C_19
REMARK    4  A    between atoms: C_19  and  C_20
REMARK                            x       y       z     vdW  Elec       q    Type
REMARK                         _______ _______ _______ _____ _____    ______ ____
ROOT
ATOM      1  N   UNL     1       0.059  -4.168  -0.021  0.00  0.00    -0.299 N 
ATOM      2  C   UNL     1       0.178  -4.865   1.169  0.00  0.00    +0.137 A 
ATOM      3  C   UNL     1       0.311  -6.282   1.164  0.00  0.00    +0.051 A 
ATOM      4  C   UNL     1       0.343  -7.193   0.007  0.00  0.00    -0.025 A 
ATOM      5  C   UNL     1       0.477  -8.502   0.269  0.00  0.00    -0.004 A 
ATOM      6  S   UNL     1       0.571  -8.612   2.042  0.00  0.00    -0.073 S 
ATOM      7  C   UNL     1       0.426  -6.888   2.427  0.00  0.00    +0.116 A 
ATOM      8  N   UNL     1       0.410  -6.178   3.539  0.00  0.00    -0.207 NA
ATOM      9  C   UNL     1       0.284  -4.859   3.485  0.00  0.00    +0.218 A 
ATOM     10  N   UNL     1       0.177  -4.223   2.325  0.00  0.00    -0.199 NA
ATOM     11  N   UNL     1       0.269  -4.130   4.663  0.00  0.00    -0.306 N 
ATOM     12  C   UNL     1       0.492  -9.335  -0.985  0.00  0.00    +0.043 C 
ATOM     13  C   UNL     1      -0.085  -8.404  -2.075  0.00  0.00    +0.010 C 
ATOM     14  C   UNL     1       0.261  -7.012  -1.512  0.00  0.00    +0.037 C 
ATOM     15  H   UNL     1      -0.017  -4.650  -0.860  0.00  0.00    +0.154 HD
ATOM     16  H   UNL     1       0.177  -3.165   4.635  0.00  0.00    +0.149 HD
ENDROOT
BRANCH   1  21
ATOM     17  C   UNL     1       0.011   1.503   0.007  0.00  0.00    +0.044 C 
ATOM     18  C   UNL     1       0.024  -0.004  -0.001  0.00  0.00    -0.050 A 
ATOM     19  C   UNL     1       0.773  -0.692   0.936  0.00  0.00    +0.005 A 
ATOM     20  C   UNL     1       0.787  -2.073   0.932  0.00  0.00    +0.023 A 
ATOM     21  C   UNL     1       0.046  -2.771  -0.014  0.00  0.00    +0.032 A 
ATOM     22  C   UNL     1      -0.706  -2.076  -0.953  0.00  0.00    +0.023 A 
ATOM     23  C   UNL     1      -0.719  -0.695  -0.940  0.00  0.00    +0.005 A 
ENDBRANCH   1  21
BRANCH  11  24
ATOM     24  C   UNL     1       0.392  -4.816   5.951  0.00  0.00    +0.178 C 
BRANCH  24  25
ATOM     25  C   UNL     1       0.348  -3.804   7.067  0.00  0.00    +0.122 A 
ATOM     26  C   UNL     1      -0.760  -3.381   7.702  0.00  0.00    +0.046 A 
ATOM     27  C   UNL     1      -0.343  -2.438   8.669  0.00  0.00    +0.041 A 
ATOM     28  C   UNL     1       0.995  -2.341   8.567  0.00  0.00    +0.195 A 
ATOM     29  O   UNL     1       1.408  -3.175   7.599  0.00  0.00    -0.466 OA
ENDBRANCH  24  25
ENDBRANCH  11  24
TORSDOF 3
