REMARK  Name = ZINC39612105
REMARK  9 active torsions:
REMARK  status: ('A' for Active; 'I' for Inactive)
REMARK    1  A    between atoms: C_1  and  C_2
REMARK    2  A    between atoms: C_5  and  C_8
REMARK    3  A    between atoms: C_8  and  O_9
REMARK    4  A    between atoms: O_9  and  C_10
REMARK    5  A    between atoms: C_10  and  C_12
REMARK    6  A    between atoms: C_12  and  C_14
REMARK    7  A    between atoms: C_12  and  N_25
REMARK    8  A    between atoms: C_14  and  C_15
REMARK    9  A    between atoms: C_26  and  C_28
REMARK                            x       y       z     vdW  Elec       q    Type
REMARK                         _______ _______ _______ _____ _____    ______ ____
ROOT
ATOM      1  C   UNL     1       3.006  -6.620  -0.051  0.00  0.00    +0.186 C 
ENDROOT
BRANCH   1   2
ATOM      2  N   UNL     1       2.948  -8.084  -0.058  0.00  0.00    -0.298 N 
ATOM      3  C   UNL     1       3.975  -8.797  -0.561  0.00  0.00    +0.246 C 
ATOM      4  O   UNL     1       4.950  -8.225  -1.008  0.00  0.00    -0.270 OA
ATOM      5  H   UNL     1       2.170  -8.541   0.299  0.00  0.00    +0.150 HD
BRANCH   3   6
ATOM      6  C   UNL     1       3.917 -10.273  -0.569  0.00  0.00    +0.055 A 
ATOM      7  C   UNL     1       2.797 -10.934  -0.061  0.00  0.00    +0.014 A 
ATOM      8  C   UNL     1       2.748 -12.312  -0.072  0.00  0.00    +0.001 A 
ATOM      9  C   UNL     1       3.807 -13.041  -0.584  0.00  0.00    +0.001 A 
ATOM     10  C   UNL     1       4.921 -12.395  -1.088  0.00  0.00    +0.021 A 
ATOM     11  C   UNL     1       4.981 -11.015  -1.089  0.00  0.00    +0.053 A 
ATOM     12 CL   UNL     1       6.376 -10.204  -1.730  0.00  0.00    -0.083 Cl
ENDBRANCH   3   6
ENDBRANCH   1   2
BRANCH   1  13
ATOM     13  C   UNL     1       1.606  -6.062  -0.040  0.00  0.00    +0.328 C 
ATOM     14  O   UNL     1       0.657  -6.811  -0.039  0.00  0.00    -0.249 OA
BRANCH  13  15
ATOM     15  O   UNL     1       1.413  -4.734  -0.032  0.00  0.00    -0.459 OA
BRANCH  15  16
ATOM     16  C   UNL     1       0.059  -4.275  -0.021  0.00  0.00    +0.267 C 
BRANCH  16  21
ATOM     17  C   UNL     1      -0.018   1.503   0.010  0.00  0.00    +0.044 C 
ATOM     18  C   UNL     1       0.002  -0.004   0.002  0.00  0.00    -0.050 A 
ATOM     19  C   UNL     1       0.006  -0.689  -1.199  0.00  0.00    +0.004 A 
ATOM     20  C   UNL     1       0.025  -2.071  -1.206  0.00  0.00    +0.007 A 
ATOM     21  C   UNL     1       0.040  -2.768  -0.013  0.00  0.00    -0.010 A 
ATOM     22  C   UNL     1       0.037  -2.084   1.188  0.00  0.00    +0.007 A 
ATOM     23  C   UNL     1       0.023  -0.702   1.195  0.00  0.00    +0.004 A 
ENDBRANCH  16  21
ENDBRANCH  15  16
ENDBRANCH  13  15
ENDBRANCH   1  13
BRANCH   1  24
ATOM     24  C   UNL     1       3.753  -6.146   1.197  0.00  0.00    +0.071 C 
BRANCH  24  25
ATOM     25  C   UNL     1       5.188  -6.601   1.126  0.00  0.00    -0.020 A 
ATOM     26  C   UNL     1       5.700  -7.716   1.672  0.00  0.00    +0.087 A 
ATOM     27  N   UNL     1       7.039  -7.796   1.399  0.00  0.00    -0.360 N 
ATOM     28  H   UNL     1       7.624  -8.514   1.689  0.00  0.00    +0.165 HD
ATOM     29  C   UNL     1       7.431  -6.708   0.653  0.00  0.00    +0.047 A 
ATOM     30  C   UNL     1       6.288  -5.915   0.444  0.00  0.00    +0.003 A 
ATOM     31  C   UNL     1       6.385  -4.734  -0.295  0.00  0.00    +0.010 A 
ATOM     32  C   UNL     1       7.590  -4.357  -0.815  0.00  0.00    +0.001 A 
ATOM     33  C   UNL     1       8.720  -5.138  -0.615  0.00  0.00    +0.002 A 
ATOM     34  C   UNL     1       8.649  -6.302   0.119  0.00  0.00    +0.026 A 
ENDBRANCH  24  25
ENDBRANCH   1  24
TORSDOF 8
