REMARK  Name = ZINC02156170
REMARK  5 active torsions:
REMARK  status: ('A' for Active; 'I' for Inactive)
REMARK    1  A    between atoms: C_1  and  C_2
REMARK    2  A    between atoms: C_7  and  O_8
REMARK    3  A    between atoms: O_8  and  C_9
REMARK    4  A    between atoms: N_11  and  C_12
REMARK    5  A    between atoms: C_16  and  N_18
REMARK                            x       y       z     vdW  Elec       q    Type
REMARK                         _______ _______ _______ _____ _____    ______ ____
ROOT
ATOM      1  C   UNL     1      -0.264   6.484  -1.170  0.00  0.00    +0.410 C 
ATOM      2  O   UNL     1      -0.418   5.847  -2.193  0.00  0.00    -0.226 OA
ATOM      3  N   UNL     1      -0.118   7.823  -1.225  0.00  0.00    -0.251 N 
ATOM      4  H   UNL     1      -0.072   8.340  -0.405  0.00  0.00    +0.158 HD
ENDROOT
BRANCH   3   5
ATOM      5  C   UNL     1      -0.032   8.467  -2.465  0.00  0.00    +0.039 A 
ATOM      6  C   UNL     1       0.578   7.832  -3.538  0.00  0.00    +0.026 A 
ATOM      7  C   UNL     1       0.657   8.467  -4.762  0.00  0.00    +0.042 A 
ATOM      8  C   UNL     1       0.137   9.741  -4.917  0.00  0.00    +0.154 A 
ATOM      9  C   UNL     1      -0.467  10.379  -3.846  0.00  0.00    +0.163 A 
ATOM     10  C   UNL     1      -0.553   9.745  -2.622  0.00  0.00    +0.059 A 
ATOM     11  F   UNL     1       0.219  10.363  -6.113  0.00  0.00    -0.203 F 
BRANCH   9  12
ATOM     12  N   UNL     1      -1.022  11.741  -4.014  0.00  0.00    +0.059 N 
ATOM     13  O   UNL     1      -1.554  12.302  -3.073  0.00  0.00    -0.126 OA
ATOM     14  O   UNL     1      -0.946  12.301  -5.093  0.00  0.00    -0.126 OA
ENDBRANCH   9  12
ENDBRANCH   3   5
BRANCH   1  15
ATOM     15  O   UNL     1      -0.239   5.852   0.019  0.00  0.00    -0.410 OA
BRANCH  15  22
ATOM     16  C   UNL     1      -2.868   4.838   0.206  0.00  0.00    +0.047 C 
ATOM     17  C   UNL     1      -1.659   3.945   0.093  0.00  0.00    -0.006 A 
ATOM     18  C   UNL     1      -1.813   2.572   0.073  0.00  0.00    +0.027 A 
ATOM     19  C   UNL     1      -0.704   1.752  -0.026  0.00  0.00    +0.042 A 
ATOM     20  C   UNL     1       0.562   2.304  -0.115  0.00  0.00    +0.039 A 
ATOM     21  C   UNL     1       0.720   3.677  -0.100  0.00  0.00    +0.062 A 
ATOM     22  C   UNL     1      -0.392   4.501   0.004  0.00  0.00    +0.150 A 
ATOM     23 BR   UNL     1       2.450   4.432  -0.222  0.00  0.00    -0.046 Br
ATOM     24 CL   UNL     1      -0.900   0.027  -0.044  0.00  0.00    -0.083 Cl
ENDBRANCH  15  22
ENDBRANCH   1  15
TORSDOF 4
