REMARK  Name = ZINC06627583
REMARK  5 active torsions:
REMARK  status: ('A' for Active; 'I' for Inactive)
REMARK    1  A    between atoms: C_1  and  C_2
REMARK    2  A    between atoms: C_5  and  N_9
REMARK    3  A    between atoms: C_7  and  C_8
REMARK    4  A    between atoms: C_12  and  N_17
REMARK    5  A    between atoms: N_17  and  C_18
REMARK                            x       y       z     vdW  Elec       q    Type
REMARK                         _______ _______ _______ _____ _____    ______ ____
ROOT
ATOM      1  N   UNL     1       1.081  -2.001  -0.021  0.00  0.00    -0.199 N 
ATOM      2  C   UNL     1      -0.034  -2.703   0.102  0.00  0.00    +0.258 C 
ATOM      3  O   UNL     1      -1.119  -2.178   0.231  0.00  0.00    -0.272 OA
ATOM      4  C   UNL     1       0.140  -4.215   0.070  0.00  0.00    +0.226 C 
ATOM      5  S   UNL     1       1.962  -4.317  -0.140  0.00  0.00    -0.035 S 
ATOM      6  C   UNL     1       2.295  -2.562  -0.170  0.00  0.00    +0.287 C 
ATOM      7  O   UNL     1       3.368  -2.004  -0.294  0.00  0.00    -0.262 OA
ENDROOT
BRANCH   1  12
ATOM      8  C   UNL     1       0.721   3.662   0.062  0.00  0.00    +0.044 C 
ATOM      9  C   UNL     1       0.817   2.159   0.040  0.00  0.00    -0.047 A 
ATOM     10  C   UNL     1       1.432   1.491   1.083  0.00  0.00    +0.005 A 
ATOM     11  C   UNL     1       1.521   0.113   1.066  0.00  0.00    +0.024 A 
ATOM     12  C   UNL     1       0.992  -0.602  -0.000  0.00  0.00    +0.045 A 
ATOM     13  C   UNL     1       0.374   0.071  -1.046  0.00  0.00    +0.027 A 
ATOM     14  C   UNL     1       0.289   1.449  -1.023  0.00  0.00    -0.046 A 
ATOM     15  C   UNL     1      -0.381   2.181  -2.158  0.00  0.00    +0.044 C 
ENDBRANCH   1  12
BRANCH   4  16
ATOM     16  N   UNL     1      -0.287  -4.827   1.331  0.00  0.00    -0.324 N 
ATOM     17  H   UNL     1      -0.041  -4.419   2.176  0.00  0.00    +0.148 HD
BRANCH  16  18
ATOM     18  C   UNL     1      -1.048  -5.997   1.316  0.00  0.00    +0.029 A 
ATOM     19  C   UNL     1      -1.584  -6.494   2.498  0.00  0.00    +0.023 A 
ATOM     20  C   UNL     1      -2.341  -7.649   2.480  0.00  0.00    +0.003 A 
ATOM     21  C   UNL     1      -2.557  -8.317   1.288  0.00  0.00    +0.015 A 
ATOM     22  C   UNL     1      -2.021  -7.829   0.111  0.00  0.00    +0.020 A 
ATOM     23  C   UNL     1      -1.267  -6.670   0.121  0.00  0.00    +0.038 A 
ATOM     24 BR   UNL     1      -2.319  -8.747  -1.516  0.00  0.00    -0.050 Br
ENDBRANCH  16  18
ENDBRANCH   4  16
TORSDOF 3
