REMARK  Name = ZINC60239004
REMARK  12 active torsions:
REMARK  status: ('A' for Active; 'I' for Inactive)
REMARK    1  A    between atoms: C_1  and  C_2
REMARK    2  A    between atoms: C_2  and  N_3
REMARK    3  A    between atoms: N_3  and  C_4
REMARK    4  A    between atoms: N_3  and  S_6
REMARK    5  A    between atoms: C_4  and  C_5
REMARK    6  A    between atoms: S_6  and  C_9
REMARK    7  A    between atoms: C_13  and  C_15
REMARK    8  A    between atoms: N_17  and  C_18
REMARK    9  A    between atoms: C_18  and  C_19
REMARK   10  A    between atoms: C_19  and  C_21
REMARK   11  A    between atoms: C_19  and  N_28
REMARK   12  A    between atoms: C_24  and  C_27
REMARK                            x       y       z     vdW  Elec       q    Type
REMARK                         _______ _______ _______ _____ _____    ______ ____
ROOT
ATOM      1  C   UNL     1      -6.177   2.210   1.734  0.00  0.00    +0.245 C 
ATOM      2  O   UNL     1      -6.656   3.285   2.038  0.00  0.00    -0.270 OA
ATOM      3  N   UNL     1      -6.892   1.338   0.997  0.00  0.00    -0.313 N 
ATOM      4  H   UNL     1      -6.510   0.480   0.753  0.00  0.00    +0.149 HD
ENDROOT
BRANCH   1   9
ATOM      5  C   UNL     1      -2.979   0.306   2.235  0.00  0.00    +0.106 A 
ATOM      6  C   UNL     1      -2.246   1.204   2.992  0.00  0.00    +0.030 A 
ATOM      7  C   UNL     1      -2.787   2.428   3.341  0.00  0.00    +0.022 A 
ATOM      8  C   UNL     1      -4.064   2.762   2.935  0.00  0.00    +0.053 A 
ATOM      9  C   UNL     1      -4.809   1.860   2.171  0.00  0.00    +0.057 A 
ATOM     10  C   UNL     1      -4.253   0.629   1.818  0.00  0.00    +0.043 A 
ATOM     11 CL   UNL     1      -4.743   4.299   3.374  0.00  0.00    -0.083 Cl
BRANCH   5  12
ATOM     12  S   UNL     1      -2.279  -1.250   1.797  0.00  0.00    +0.061 S 
ATOM     13  O   UNL     1      -3.368  -2.128   1.543  0.00  0.00    -0.153 OA
ATOM     14  O   UNL     1      -1.281  -1.535   2.768  0.00  0.00    -0.153 OA
BRANCH  12  15
ATOM     15  N   UNL     1      -1.491  -1.044   0.355  0.00  0.00    -0.177 NA
BRANCH  15  17
ATOM     16  C   UNL     1       0.024   0.869   0.197  0.00  0.00    +0.022 C 
ATOM     17  C   UNL     1      -0.080  -0.651   0.341  0.00  0.00    +0.106 C 
ENDBRANCH  15  17
BRANCH  15  18
ATOM     18  C   UNL     1      -2.205  -1.255  -0.907  0.00  0.00    +0.106 C 
ATOM     19  C   UNL     1      -1.964  -2.684  -1.397  0.00  0.00    +0.022 C 
ENDBRANCH  15  18
ENDBRANCH  12  15
ENDBRANCH   5  12
ENDBRANCH   1   9
BRANCH   3  20
ATOM     20  C   UNL     1      -8.248   1.685   0.563  0.00  0.00    +0.094 C 
BRANCH  20  21
ATOM     21  C   UNL     1      -8.793   0.577  -0.341  0.00  0.00    -0.020 C 
BRANCH  21  22
ATOM     22  C   UNL     1      -8.956  -0.690   0.460  0.00  0.00    -0.059 A 
ATOM     23  C   UNL     1     -10.064  -0.858   1.269  0.00  0.00    +0.002 A 
ATOM     24  C   UNL     1     -10.214  -2.020   2.003  0.00  0.00    +0.003 A 
ATOM     25  C   UNL     1      -9.255  -3.013   1.928  0.00  0.00    -0.050 A 
ATOM     26  C   UNL     1      -8.147  -2.845   1.118  0.00  0.00    +0.003 A 
ATOM     27  C   UNL     1      -8.000  -1.685   0.381  0.00  0.00    +0.002 A 
ATOM     28  C   UNL     1      -9.418  -4.279   2.729  0.00  0.00    +0.044 C 
ENDBRANCH  21  22
BRANCH  21  29
ATOM     29  N   UNL     1     -10.096   0.984  -0.883  0.00  0.00    +0.385 N 
ATOM     30  C   UNL     1      -9.942   2.191  -1.735  0.00  0.00    -0.078 C 
ATOM     31  C   UNL     1     -11.199   2.149  -2.640  0.00  0.00    -0.020 C 
ATOM     32  C   UNL     1     -11.375   0.639  -2.918  0.00  0.00    -0.020 C 
ATOM     33  C   UNL     1     -10.632  -0.070  -1.770  0.00  0.00    -0.078 C 
ATOM     34  H   UNL     1     -10.744   1.169  -0.131  0.00  0.00    -0.081 HD
ENDBRANCH  21  29
ENDBRANCH  20  21
ENDBRANCH   3  20
TORSDOF 9
