REMARK  Name = ZINC06244500
REMARK  6 active torsions:
REMARK  status: ('A' for Active; 'I' for Inactive)
REMARK    1  A    between atoms: C_1  and  C_2
REMARK    2  A    between atoms: C_7  and  C_11
REMARK    3  A    between atoms: C_15  and  S_17
REMARK    4  A    between atoms: S_17  and  N_20
REMARK    5  A    between atoms: C_22  and  C_29
REMARK    6  A    between atoms: C_25  and  C_28
REMARK                            x       y       z     vdW  Elec       q    Type
REMARK                         _______ _______ _______ _____ _____    ______ ____
ROOT
ATOM      1  C   UNL     1      -1.228   1.757   0.017  0.00  0.00    +0.004 A 
ATOM      2  C   UNL     1      -1.239   3.151   0.031  0.00  0.00    +0.010 A 
ATOM      3  C   UNL     1      -0.048   3.848   0.023  0.00  0.00    +0.003 A 
ATOM      4  C   UNL     1       1.155   3.166   0.008  0.00  0.00    +0.028 A 
ATOM      5  C   UNL     1       1.173   1.784   0.000  0.00  0.00    +0.106 A 
ATOM      6  C   UNL     1      -0.013   1.076   0.008  0.00  0.00    +0.038 A 
ENDROOT
BRANCH   1  13
ATOM      7  C   UNL     1      -8.168  -0.739   0.035  0.00  0.00    +0.045 C 
ATOM      8  C   UNL     1      -6.661  -0.714   0.028  0.00  0.00    -0.034 A 
ATOM      9  C   UNL     1      -5.941  -1.920   0.019  0.00  0.00    +0.008 A 
ATOM     10  C   UNL     1      -4.582  -1.894   0.012  0.00  0.00    +0.047 A 
ATOM     11  C   UNL     1      -3.914  -0.652   0.016  0.00  0.00    +0.138 A 
ATOM     12  N   UNL     1      -2.628  -0.335   0.012  0.00  0.00    -0.228 NA
ATOM     13  C   UNL     1      -2.505   1.002   0.019  0.00  0.00    +0.090 A 
ATOM     14  C   UNL     1      -3.754   1.546   0.033  0.00  0.00    +0.121 A 
ATOM     15  N   UNL     1      -4.644   0.509   0.025  0.00  0.00    -0.306 N 
ATOM     16  C   UNL     1      -6.009   0.468   0.032  0.00  0.00    +0.096 A 
ENDBRANCH   1  13
BRANCH   5  17
ATOM     17  S   UNL     1       2.710   0.923  -0.019  0.00  0.00    +0.061 S 
ATOM     18  O   UNL     1       3.678   1.809   0.527  0.00  0.00    -0.153 OA
ATOM     19  O   UNL     1       2.462  -0.365   0.527  0.00  0.00    -0.153 OA
BRANCH  17  20
ATOM     20  N   UNL     1       3.123   0.693  -1.606  0.00  0.00    -0.176 NA
ATOM     21  C   UNL     1       2.697  -0.517  -2.322  0.00  0.00    +0.112 C 
ATOM     22  C   UNL     1       1.969  -0.095  -3.607  0.00  0.00    +0.002 C 
ATOM     23  C   UNL     1       2.879   0.829  -4.421  0.00  0.00    +0.009 C 
ATOM     24  C   UNL     1       3.189   2.088  -3.607  0.00  0.00    +0.002 C 
ATOM     25  C   UNL     1       3.926   1.692  -2.324  0.00  0.00    +0.112 C 
ATOM     26  C   UNL     1       1.883   2.799  -3.248  0.00  0.00    +0.009 C 
ATOM     27  C   UNL     1       1.633  -1.337  -4.434  0.00  0.00    +0.009 C 
ENDBRANCH  17  20
ENDBRANCH   5  17
TORSDOF 3
