REMARK  Name = ZINC14548601
REMARK  6 active torsions:
REMARK  status: ('A' for Active; 'I' for Inactive)
REMARK    1  A    between atoms: C_1  and  C_2
REMARK    2  A    between atoms: C_5  and  N_9
REMARK    3  A    between atoms: C_6  and  C_8
REMARK    4  A    between atoms: N_9  and  S_10
REMARK    5  A    between atoms: S_10  and  C_13
REMARK    6  A    between atoms: C_26  and  C_29
REMARK                            x       y       z     vdW  Elec       q    Type
REMARK                         _______ _______ _______ _____ _____    ______ ____
ROOT
ATOM      1  C   UNL     1      -6.371  -1.483  -0.162  0.00  0.00    +0.109 A 
ATOM      2  C   UNL     1      -6.107  -0.645  -1.230  0.00  0.00    +0.030 A 
ATOM      3  C   UNL     1      -4.803  -0.361  -1.583  0.00  0.00    +0.025 A 
ATOM      4  C   UNL     1      -3.747  -0.913  -0.869  0.00  0.00    +0.031 A 
ATOM      5  C   UNL     1      -4.022  -1.771   0.203  0.00  0.00    -0.018 A 
ATOM      6  C   UNL     1      -5.327  -2.043   0.550  0.00  0.00    +0.034 A 
ATOM      7  C   UNL     1      -2.869  -2.357   0.921  0.00  0.00    +0.049 C 
ATOM      8  C   UNL     1      -2.964  -2.791   2.338  0.00  0.00    -0.023 C 
ATOM      9  C   UNL     1      -1.776  -2.631   2.910  0.00  0.00    -0.030 C 
ATOM     10  C   UNL     1      -0.788  -2.034   1.906  0.00  0.00    +0.033 C 
ATOM     11  C   UNL     1      -1.731  -1.293   0.948  0.00  0.00    +0.029 C 
ATOM     12  C   UNL     1      -1.278  -1.149  -0.494  0.00  0.00    +0.111 C 
ATOM     13  N   UNL     1      -2.434  -0.581  -1.221  0.00  0.00    -0.336 N 
ATOM     14  H   UNL     1      -2.279   0.033  -1.956  0.00  0.00    +0.147 HD
ENDROOT
BRANCH  12  15
ATOM     15  C   UNL     1      -0.099  -0.214  -0.578  0.00  0.00    +0.010 A 
ATOM     16  C   UNL     1       1.220  -0.510  -0.684  0.00  0.00    +0.013 A 
ATOM     17  C   UNL     1       2.135   0.523  -0.747  0.00  0.00    +0.008 A 
ATOM     18  C   UNL     1       1.688   1.802  -0.700  0.00  0.00    +0.045 A 
ATOM     19  S   UNL     1      -0.077   1.571  -0.564  0.00  0.00    -0.100 S 
ENDBRANCH  12  15
BRANCH   1  20
ATOM     20  S   UNL     1      -8.037  -1.835   0.291  0.00  0.00    +0.072 S 
ATOM     21  O   UNL     1      -8.827  -1.623  -0.871  0.00  0.00    -0.150 OA
ATOM     22  O   UNL     1      -8.016  -3.077   0.981  0.00  0.00    -0.150 OA
BRANCH  20  23
ATOM     23  N   UNL     1      -8.498  -0.688   1.393  0.00  0.00    -0.216 N 
ATOM     24  H   UNL     1      -8.768  -0.955   2.285  0.00  0.00    +0.174 HD
BRANCH  23  29
ATOM     25  C   UNL     1      -8.491   4.795  -0.052  0.00  0.00    +0.044 C 
ATOM     26  C   UNL     1      -8.493   3.338   0.332  0.00  0.00    -0.050 A 
ATOM     27  C   UNL     1      -8.846   2.379  -0.601  0.00  0.00    +0.005 A 
ATOM     28  C   UNL     1      -8.844   1.043  -0.253  0.00  0.00    +0.025 A 
ATOM     29  C   UNL     1      -8.497   0.662   1.037  0.00  0.00    +0.051 A 
ATOM     30  C   UNL     1      -8.143   1.628   1.971  0.00  0.00    -0.028 A 
ATOM     31  C   UNL     1      -8.143   2.963   1.616  0.00  0.00    +0.008 A 
ATOM     32  C   UNL     1      -7.761   1.220   3.370  0.00  0.00    +0.046 C 
ENDBRANCH  23  29
ENDBRANCH  20  23
ENDBRANCH   1  20
TORSDOF 4
