REMARK  Name = ZINC44649831
REMARK  6 active torsions:
REMARK  status: ('A' for Active; 'I' for Inactive)
REMARK    1  A    between atoms: C_1  and  C_2
REMARK    2  A    between atoms: C_2  and  C_4
REMARK    3  A    between atoms: C_2  and  O_15
REMARK    4  A    between atoms: C_4  and  C_6
REMARK    5  A    between atoms: O_15  and  C_16
REMARK    6  A    between atoms: C_16  and  C_18
REMARK                            x       y       z     vdW  Elec       q    Type
REMARK                         _______ _______ _______ _____ _____    ______ ____
ROOT
ATOM      1  C   UNL     1      -0.019   1.526   0.010  0.00  0.00    +0.061 C 
ATOM      2  C   UNL     1       0.002  -0.004   0.002  0.00  0.00    +0.244 C 
ENDROOT
BRANCH   2   3
ATOM      3  C   UNL     1       0.731  -0.503   1.223  0.00  0.00    +0.202 C 
ATOM      4  O   UNL     1       0.107  -0.976   2.151  0.00  0.00    -0.288 OA
BRANCH   3   5
ATOM      5  C   UNL     1       2.138  -0.421   1.287  0.00  0.00    +0.027 C 
ATOM      6  C   UNL     1       2.954  -0.836   2.324  0.00  0.00    +0.006 A 
ATOM      7  C   UNL     1       2.687  -1.436   3.578  0.00  0.00    +0.010 A 
ATOM      8  C   UNL     1       3.702  -1.743   4.416  0.00  0.00    +0.001 A 
ATOM      9  C   UNL     1       5.045  -1.490   4.098  0.00  0.00    +0.002 A 
ATOM     10  C   UNL     1       5.408  -0.921   2.928  0.00  0.00    +0.026 A 
ATOM     11  C   UNL     1       4.363  -0.555   1.956  0.00  0.00    +0.043 A 
ATOM     12  N   UNL     1       4.426  -0.006   0.777  0.00  0.00    -0.380 N 
ATOM     13  C   UNL     1       3.072   0.132   0.233  0.00  0.00    +0.152 C 
ATOM     14  H   UNL     1       5.242   0.266   0.328  0.00  0.00    +0.160 HD
ENDBRANCH   3   5
ENDBRANCH   2   3
BRANCH   2  15
ATOM     15  O   UNL     1      -1.339  -0.499   0.012  0.00  0.00    -0.450 OA
BRANCH  15  16
ATOM     16  C   UNL     1      -1.924  -0.704  -1.184  0.00  0.00    +0.341 C 
ATOM     17  O   UNL     1      -1.313  -0.469  -2.207  0.00  0.00    -0.245 OA
BRANCH  16  18
ATOM     18  C   UNL     1      -3.308  -1.214  -1.251  0.00  0.00    +0.072 A 
ATOM     19  C   UNL     1      -4.016  -1.479  -0.076  0.00  0.00    +0.016 A 
ATOM     20  C   UNL     1      -5.308  -1.955  -0.146  0.00  0.00    +0.001 A 
ATOM     21  C   UNL     1      -5.905  -2.170  -1.376  0.00  0.00    +0.001 A 
ATOM     22  C   UNL     1      -5.210  -1.910  -2.543  0.00  0.00    +0.015 A 
ATOM     23  C   UNL     1      -3.918  -1.428  -2.489  0.00  0.00    +0.027 A 
ATOM     24  I   UNL     1      -2.871  -1.027  -4.259  0.00  0.00    -0.043 I 
ENDBRANCH  16  18
ENDBRANCH  15  16
ENDBRANCH   2  15
TORSDOF 5
