REMARK  Name = ZINC20476715
REMARK  10 active torsions:
REMARK  status: ('A' for Active; 'I' for Inactive)
REMARK    1  A    between atoms: C_1  and  C_2
REMARK    2  A    between atoms: C_3  and  C_19
REMARK    3  A    between atoms: N_10  and  C_11
REMARK    4  A    between atoms: C_11  and  C_12
REMARK    5  A    between atoms: C_19  and  N_20
REMARK    6  A    between atoms: N_20  and  C_21
REMARK    7  A    between atoms: C_21  and  C_22
REMARK    8  A    between atoms: C_22  and  C_23
REMARK    9  A    between atoms: C_26  and  S_29
REMARK   10  A    between atoms: S_29  and  N_32
REMARK                            x       y       z     vdW  Elec       q    Type
REMARK                         _______ _______ _______ _____ _____    ______ ____
ROOT
ATOM      1  C   UNL     1       1.921   7.706   0.230  0.00  0.00    +0.064 C 
ATOM      2  C   UNL     1       1.720   6.217   0.122  0.00  0.00    +0.021 A 
ATOM      3  C   UNL     1       2.706   5.306   0.093  0.00  0.00    -0.005 A 
ATOM      4  C   UNL     1       2.071   3.991  -0.016  0.00  0.00    +0.005 A 
ATOM      5  C   UNL     1       2.554   2.683  -0.089  0.00  0.00    +0.010 A 
ATOM      6  C   UNL     1       1.677   1.640  -0.188  0.00  0.00    +0.001 A 
ATOM      7  C   UNL     1       0.308   1.871  -0.223  0.00  0.00    +0.002 A 
ATOM      8  C   UNL     1      -0.190   3.152  -0.148  0.00  0.00    +0.026 A 
ATOM      9  C   UNL     1       0.685   4.229  -0.046  0.00  0.00    +0.050 A 
ATOM     10  N   UNL     1       0.505   5.592   0.040  0.00  0.00    -0.339 N 
ENDROOT
BRANCH  10  11
ATOM     11  C   UNL     1      -0.793   6.271   0.043  0.00  0.00    +0.158 C 
BRANCH  11  12
ATOM     12  C   UNL     1      -1.212   6.547   1.464  0.00  0.00    -0.009 A 
ATOM     13  C   UNL     1      -0.753   7.678   2.113  0.00  0.00    +0.007 A 
ATOM     14  C   UNL     1      -1.137   7.931   3.417  0.00  0.00    +0.000 A 
ATOM     15  C   UNL     1      -1.981   7.053   4.072  0.00  0.00    +0.001 A 
ATOM     16  C   UNL     1      -2.441   5.923   3.424  0.00  0.00    +0.020 A 
ATOM     17  C   UNL     1      -2.061   5.671   2.118  0.00  0.00    +0.046 A 
ATOM     18 CL   UNL     1      -2.643   4.255   1.301  0.00  0.00    -0.083 Cl
ENDBRANCH  11  12
ENDBRANCH  10  11
BRANCH   3  19
ATOM     19  C   UNL     1       4.185   5.585   0.161  0.00  0.00    +0.118 C 
BRANCH  19  20
ATOM     20  N   UNL     1       4.711   5.769  -1.198  0.00  0.00    -0.312 NA
ATOM     21  H   UNL     1       4.537   4.856  -1.786  0.00  0.00    +0.122 HD
BRANCH  20  22
ATOM     22  C   UNL     1       6.154   6.043  -1.171  0.00  0.00    +0.086 C 
BRANCH  22  23
ATOM     23  C   UNL     1       6.665   6.229  -2.602  0.00  0.00    +0.050 C 
BRANCH  23  24
ATOM     24  C   UNL     1       8.145   6.510  -2.574  0.00  0.00    -0.046 A 
ATOM     25  C   UNL     1       8.600   7.813  -2.495  0.00  0.00    +0.005 A 
ATOM     26  C   UNL     1       9.958   8.070  -2.465  0.00  0.00    +0.029 A 
ATOM     27  C   UNL     1      10.861   7.025  -2.524  0.00  0.00    +0.105 A 
ATOM     28  C   UNL     1      10.406   5.723  -2.609  0.00  0.00    +0.029 A 
ATOM     29  C   UNL     1       9.048   5.465  -2.634  0.00  0.00    +0.005 A 
BRANCH  27  30
ATOM     30  S   UNL     1      12.592   7.354  -2.491  0.00  0.00    +0.056 S 
ATOM     31  O   UNL     1      12.753   8.616  -1.859  0.00  0.00    -0.153 OA
ATOM     32  O   UNL     1      13.220   6.174  -2.008  0.00  0.00    -0.153 OA
BRANCH  30  33
ATOM     33  N   UNL     1      13.084   7.543  -4.060  0.00  0.00    -0.204 NA
ATOM     34  H   UNL     1      14.164   7.751  -4.083  0.00  0.00    +0.144 HD
ATOM     35  H   UNL     1      12.540   8.383  -4.517  0.00  0.00    +0.144 HD
ENDBRANCH  30  33
ENDBRANCH  27  30
ENDBRANCH  23  24
ENDBRANCH  22  23
ENDBRANCH  20  22
ENDBRANCH  19  20
ENDBRANCH   3  19
TORSDOF 9
