REMARK  Name = ZINC12976420
REMARK  5 active torsions:
REMARK  status: ('A' for Active; 'I' for Inactive)
REMARK    1  A    between atoms: C_1  and  C_2
REMARK    2  A    between atoms: C_5  and  N_9
REMARK    3  A    between atoms: C_6  and  C_8
REMARK    4  A    between atoms: C_10  and  C_12
REMARK    5  A    between atoms: C_18  and  C_20
REMARK                            x       y       z     vdW  Elec       q    Type
REMARK                         _______ _______ _______ _____ _____    ______ ____
ROOT
ATOM      1  C   UNL     1      -1.203   1.829   0.162  0.00  0.00    +0.162 C 
ATOM      2  C   UNL     1      -1.204   2.528   1.537  0.00  0.00    +0.033 C 
ATOM      3  C   UNL     1      -2.675   2.359   2.010  0.00  0.00    +0.021 C 
ATOM      4  C   UNL     1      -3.026   0.961   1.445  0.00  0.00    +0.108 C 
ATOM      5  N   UNL     1      -2.339   0.895   0.142  0.00  0.00    -0.289 N 
ATOM      6  C   UNL     1      -2.693   0.111  -0.895  0.00  0.00    +0.222 C 
ATOM      7  O   UNL     1      -2.005   0.078  -1.893  0.00  0.00    -0.275 OA
ENDROOT
BRANCH   6   8
ATOM      8  C   UNL     1      -3.945  -0.725  -0.814  0.00  0.00    +0.048 C 
ATOM      9  C   UNL     1      -3.877  -1.627   0.420  0.00  0.00    +0.019 C 
ATOM     10  C   UNL     1      -5.147  -2.475   0.502  0.00  0.00    -0.009 C 
ATOM     11  C   UNL     1      -5.266  -3.339  -0.755  0.00  0.00    +0.007 C 
ATOM     12  C   UNL     1      -5.333  -2.437  -1.989  0.00  0.00    -0.009 C 
ATOM     13  C   UNL     1      -4.063  -1.589  -2.071  0.00  0.00    +0.019 C 
ATOM     14  C   UNL     1      -6.553  -1.520  -1.884  0.00  0.00    +0.007 C 
ATOM     15  C   UNL     1      -6.435  -0.656  -0.627  0.00  0.00    -0.009 C 
ATOM     16  C   UNL     1      -6.367  -1.558   0.607  0.00  0.00    +0.007 C 
ATOM     17  C   UNL     1      -5.165   0.193  -0.709  0.00  0.00    +0.019 C 
ENDBRANCH   6   8
BRANCH   1  19
ATOM     18  N   UNL     1       1.260   1.733  -0.042  0.00  0.00    -0.284 N 
ATOM     19  C   UNL     1       0.086   1.071  -0.028  0.00  0.00    +0.238 C 
ATOM     20  O   UNL     1       0.066  -0.133  -0.172  0.00  0.00    -0.273 OA
ATOM     21  H   UNL     1       1.272   2.702  -0.005  0.00  0.00    +0.155 HD
BRANCH  18  26
ATOM     22  C   UNL     1       6.137  -1.153  -0.321  0.00  0.00    +0.044 C 
ATOM     23  C   UNL     1       4.842  -0.386  -0.247  0.00  0.00    -0.050 A 
ATOM     24  C   UNL     1       3.708  -0.994   0.261  0.00  0.00    +0.005 A 
ATOM     25  C   UNL     1       2.521  -0.292   0.337  0.00  0.00    +0.024 A 
ATOM     26  C   UNL     1       2.463   1.021  -0.111  0.00  0.00    +0.036 A 
ATOM     27  C   UNL     1       3.603   1.629  -0.621  0.00  0.00    -0.029 A 
ATOM     28  C   UNL     1       4.789   0.923  -0.688  0.00  0.00    +0.008 A 
ATOM     29  C   UNL     1       3.546   3.056  -1.101  0.00  0.00    +0.045 C 
ENDBRANCH  18  26
ENDBRANCH   1  19
TORSDOF 3
