REMARK  Name = ZINC36550983
REMARK  5 active torsions:
REMARK  status: ('A' for Active; 'I' for Inactive)
REMARK    1  A    between atoms: C_1  and  C_2
REMARK    2  A    between atoms: C_2  and  N_3
REMARK    3  A    between atoms: C_14  and  C_16
REMARK    4  A    between atoms: C_27  and  S_32
REMARK    5  A    between atoms: S_32  and  N_35
REMARK                            x       y       z     vdW  Elec       q    Type
REMARK                         _______ _______ _______ _____ _____    ______ ____
ROOT
ATOM      1  C   UNL     1       6.066  -1.699  -2.421  0.00  0.00    +0.105 C 
ATOM      2  C   UNL     1       6.439  -3.071  -1.889  0.00  0.00    +0.029 C 
ATOM      3  C   UNL     1       5.715  -4.279  -2.498  0.00  0.00    +0.033 C 
ATOM      4  C   UNL     1       6.769  -5.378  -2.346  0.00  0.00    -0.030 C 
ATOM      5  C   UNL     1       7.982  -4.841  -2.312  0.00  0.00    -0.023 C 
ATOM      6  C   UNL     1       7.867  -3.357  -2.444  0.00  0.00    +0.049 C 
ATOM      7  C   UNL     1       8.803  -2.415  -1.792  0.00  0.00    -0.018 A 
ATOM      8  C   UNL     1      10.096  -2.763  -1.467  0.00  0.00    +0.034 A 
ATOM      9  C   UNL     1      10.938  -1.842  -0.870  0.00  0.00    +0.106 A 
ATOM     10  C   UNL     1      10.482  -0.565  -0.597  0.00  0.00    +0.030 A 
ATOM     11  C   UNL     1       9.188  -0.208  -0.914  0.00  0.00    +0.025 A 
ATOM     12  C   UNL     1       8.332  -1.128  -1.508  0.00  0.00    +0.031 A 
ATOM     13  N   UNL     1       7.011  -0.752  -1.790  0.00  0.00    -0.336 N 
ATOM     14  H   UNL     1       6.711   0.142  -1.566  0.00  0.00    +0.147 HD
ENDROOT
BRANCH   1  26
ATOM     15  N   UNL     1       0.688  -0.476  -1.203  0.00  0.00    -0.340 N 
ATOM     16  C   UNL     1       0.070  -0.736  -2.414  0.00  0.00    +0.050 A 
ATOM     17  C   UNL     1      -1.255  -0.642  -2.829  0.00  0.00    +0.026 A 
ATOM     18  C   UNL     1      -1.597  -0.971  -4.123  0.00  0.00    +0.002 A 
ATOM     19  C   UNL     1      -0.631  -1.397  -5.022  0.00  0.00    +0.001 A 
ATOM     20  C   UNL     1       0.686  -1.497  -4.629  0.00  0.00    +0.010 A 
ATOM     21  C   UNL     1       1.046  -1.168  -3.324  0.00  0.00    +0.008 A 
ATOM     22  C   UNL     1       2.329  -1.162  -2.597  0.00  0.00    +0.008 A 
ATOM     23  C   UNL     1       2.046  -0.721  -1.296  0.00  0.00    +0.050 A 
ATOM     24  C   UNL     1       3.083  -0.609  -0.375  0.00  0.00    +0.027 A 
ATOM     25  C   UNL     1       4.373  -0.926  -0.745  0.00  0.00    +0.007 A 
ATOM     26  C   UNL     1       4.650  -1.357  -2.033  0.00  0.00    -0.026 A 
ATOM     27  C   UNL     1       3.635  -1.483  -2.957  0.00  0.00    +0.016 A 
BRANCH  15  29
ATOM     28  C   UNL     1      -0.019   1.526   0.010  0.00  0.00    +0.027 C 
ATOM     29  C   UNL     1       0.002  -0.004   0.002  0.00  0.00    +0.119 C 
ENDBRANCH  15  29
ENDBRANCH   1  26
BRANCH   9  30
ATOM     30  S   UNL     1      12.589  -2.296  -0.456  0.00  0.00    +0.061 S 
ATOM     31  O   UNL     1      13.000  -1.424   0.588  0.00  0.00    -0.153 OA
ATOM     32  O   UNL     1      12.599  -3.710  -0.316  0.00  0.00    -0.153 OA
BRANCH  30  33
ATOM     33  N   UNL     1      13.537  -1.944  -1.767  0.00  0.00    -0.177 NA
ATOM     34  C   UNL     1      13.725  -2.959  -2.779  0.00  0.00    +0.109 C 
ATOM     35  C   UNL     1      14.953  -3.831  -2.419  0.00  0.00    +0.017 C 
ATOM     36  C   UNL     1      16.195  -3.066  -2.606  0.00  0.00    +0.001 C 
ATOM     37  C   UNL     1      16.322  -1.844  -1.702  0.00  0.00    +0.001 C 
ATOM     38  C   UNL     1      15.615  -0.673  -2.341  0.00  0.00    +0.017 C 
ATOM     39  C   UNL     1      14.151  -0.605  -1.857  0.00  0.00    +0.109 C 
ENDBRANCH  30  33
ENDBRANCH   9  30
TORSDOF 4
