REMARK  Name = ZINC06282950
REMARK  7 active torsions:
REMARK  status: ('A' for Active; 'I' for Inactive)
REMARK    1  A    between atoms: C_1  and  O_2
REMARK    2  A    between atoms: O_2  and  C_3
REMARK    3  A    between atoms: C_8  and  C_15
REMARK    4  A    between atoms: C_15  and  C_17
REMARK    5  A    between atoms: C_15  and  N_62
REMARK    6  A    between atoms: N_21  and  C_22
REMARK    7  A    between atoms: C_22  and  C_23
REMARK                            x       y       z     vdW  Elec       q    Type
REMARK                         _______ _______ _______ _____ _____    ______ ____
ROOT
ATOM      1  C   UNL     1       1.536  -1.470  -1.585  0.00  0.00    +0.039 C 
ENDROOT
BRANCH   1   7
ATOM      2  C   UNL     1      -4.342  -0.712  -4.238  0.00  0.00    +0.122 A 
ATOM      3  C   UNL     1      -4.465  -0.654  -2.850  0.00  0.00    +0.046 A 
ATOM      4  C   UNL     1      -3.368  -0.786  -2.051  0.00  0.00    +0.013 A 
ATOM      5  C   UNL     1      -2.107  -0.982  -2.627  0.00  0.00    -0.001 A 
ATOM      6  C   UNL     1      -0.912  -1.133  -1.798  0.00  0.00    +0.017 A 
ATOM      7  C   UNL     1       0.285  -1.315  -2.411  0.00  0.00    +0.011 A 
ATOM      8  C   UNL     1       0.362  -1.367  -3.818  0.00  0.00    +0.251 A 
ATOM      9  O   UNL     1       1.447  -1.536  -4.347  0.00  0.00    -0.268 OA
ATOM     10  N   UNL     1      -0.731  -1.234  -4.590  0.00  0.00    -0.322 N 
ATOM     11  H   UNL     1      -0.642  -1.274  -5.555  0.00  0.00    +0.169 HD
ATOM     12  C   UNL     1      -1.976  -1.040  -4.029  0.00  0.00    +0.053 A 
ATOM     13  C   UNL     1      -3.104  -0.903  -4.827  0.00  0.00    +0.072 A 
BRANCH   2  15
ATOM     14  C   UNL     1      -6.692  -0.382  -4.349  0.00  0.00    +0.277 C 
ATOM     15  O   UNL     1      -5.445  -0.578  -5.018  0.00  0.00    -0.495 OA
ENDBRANCH   2  15
ENDBRANCH   1   7
BRANCH   1  25
ATOM     16  C   UNL     1       1.375  -3.878  -1.802  0.00  0.00    -0.072 C 
ATOM     17  C   UNL     1       1.998  -5.053  -2.557  0.00  0.00    +0.017 C 
ATOM     18  C   UNL     1       3.451  -5.193  -2.183  0.00  0.00    -0.048 A 
ATOM     19  C   UNL     1       4.097  -6.385  -2.475  0.00  0.00    +0.004 A 
ATOM     20  C   UNL     1       5.430  -6.552  -2.157  0.00  0.00    +0.000 A 
ATOM     21  C   UNL     1       6.124  -5.525  -1.545  0.00  0.00    +0.000 A 
ATOM     22  C   UNL     1       5.482  -4.339  -1.252  0.00  0.00    +0.002 A 
ATOM     23  C   UNL     1       4.142  -4.170  -1.570  0.00  0.00    -0.061 A 
ATOM     24  C   UNL     1       3.483  -2.860  -1.227  0.00  0.00    -0.041 C 
ATOM     25  N   UNL     1       2.243  -2.701  -2.005  0.00  0.00    +0.392 N 
ATOM     26  H   UNL     1       2.479  -2.626  -3.001  0.00  0.00    -0.080 HD
ENDBRANCH   1  25
BRANCH   1  27
ATOM     27  C   UNL     1       2.437  -0.283  -1.810  0.00  0.00    +0.143 A 
ATOM     28  N   UNL     1       3.038   0.042  -2.928  0.00  0.00    -0.115 NA
ATOM     29  N   UNL     1       3.719   1.115  -2.717  0.00  0.00    -0.023 NA
ATOM     30  N   UNL     1       3.563   1.486  -1.494  0.00  0.00    -0.044 NA
ATOM     31  N   UNL     1       2.776   0.652  -0.903  0.00  0.00    -0.226 N 
BRANCH  31  32
ATOM     32  C   UNL     1       2.340   0.707   0.494  0.00  0.00    +0.182 C 
BRANCH  32  33
ATOM     33  C   UNL     1       1.171   1.650   0.619  0.00  0.00    -0.026 A 
ATOM     34  C   UNL     1      -0.120   1.154   0.617  0.00  0.00    +0.005 A 
ATOM     35  C   UNL     1      -1.193   2.019   0.725  0.00  0.00    +0.000 A 
ATOM     36  C   UNL     1      -0.975   3.379   0.845  0.00  0.00    +0.000 A 
ATOM     37  C   UNL     1       0.316   3.874   0.847  0.00  0.00    +0.000 A 
ATOM     38  C   UNL     1       1.388   3.010   0.734  0.00  0.00    +0.005 A 
ENDBRANCH  32  33
ENDBRANCH  31  32
ENDBRANCH   1  27
TORSDOF 6
