REMARK  Name = ZINC05021756
REMARK  6 active torsions:
REMARK  status: ('A' for Active; 'I' for Inactive)
REMARK    1  A    between atoms: C_1  and  C_2
REMARK    2  A    between atoms: C_5  and  C_8
REMARK    3  A    between atoms: C_20  and  O_25
REMARK    4  A    between atoms: C_21  and  O_23
REMARK    5  A    between atoms: O_23  and  C_24
REMARK    6  A    between atoms: O_25  and  C_26
REMARK                            x       y       z     vdW  Elec       q    Type
REMARK                         _______ _______ _______ _____ _____    ______ ____
ROOT
ATOM      1  C   UNL     1       4.013  -1.843  -0.047  0.00  0.00    +0.015 C 
ATOM      2  C   UNL     1       3.696  -0.567  -0.348  0.00  0.00    -0.003 C 
ATOM      3  C   UNL     1       4.635   0.616  -0.331  0.00  0.00    +0.060 C 
ATOM      4  C   UNL     1       3.760   1.805  -0.749  0.00  0.00    +0.128 C 
ATOM      5  N   UNL     1       2.410   1.272  -0.979  0.00  0.00    -0.324 N 
ATOM      6  C   UNL     1       2.373  -0.070  -0.752  0.00  0.00    +0.141 A 
ATOM      7  N   UNL     1       1.253  -0.775  -0.897  0.00  0.00    -0.191 NA
ATOM      8  C   UNL     1       0.097  -0.220  -1.272  0.00  0.00    +0.281 A 
ATOM      9  O   UNL     1      -0.910  -0.898  -1.396  0.00  0.00    -0.265 OA
ATOM     10  C   UNL     1       0.067   1.229  -1.535  0.00  0.00    +0.068 A 
ATOM     11  C   UNL     1       1.263   1.950  -1.374  0.00  0.00    +0.060 A 
ATOM     12  C   UNL     1       1.281   3.316  -1.610  0.00  0.00    +0.076 A 
ATOM     13  C   UNL     1       0.120   3.960  -2.001  0.00  0.00    +0.163 A 
ATOM     14  C   UNL     1      -1.069   3.243  -2.160  0.00  0.00    +0.162 A 
ATOM     15  C   UNL     1      -1.098   1.882  -1.935  0.00  0.00    +0.064 A 
ENDROOT
BRANCH   1  20
ATOM     16  C   UNL     1      -0.129  -5.803   0.407  0.00  0.00    +0.044 C 
ATOM     17  C   UNL     1       0.957  -4.765   0.288  0.00  0.00    -0.050 A 
ATOM     18  C   UNL     1       2.152  -5.088  -0.330  0.00  0.00    +0.004 A 
ATOM     19  C   UNL     1       3.151  -4.143  -0.443  0.00  0.00    +0.008 A 
ATOM     20  C   UNL     1       2.953  -2.857   0.069  0.00  0.00    -0.025 A 
ATOM     21  C   UNL     1       1.744  -2.541   0.698  0.00  0.00    +0.008 A 
ATOM     22  C   UNL     1       0.753  -3.495   0.798  0.00  0.00    +0.004 A 
ENDBRANCH   1  20
BRANCH  14  23
ATOM     23  O   UNL     1      -2.202   3.890  -2.546  0.00  0.00    -0.491 OA
ATOM     24  C   UNL     1      -3.384   3.098  -2.690  0.00  0.00    +0.277 C 
ENDBRANCH  14  23
BRANCH  13  25
ATOM     25  O   UNL     1       0.137   5.298  -2.232  0.00  0.00    -0.491 OA
ATOM     26  C   UNL     1       1.383   5.972  -2.051  0.00  0.00    +0.277 C 
ENDBRANCH  13  25
TORSDOF 3
