REMARK  Name = ZINC06929938
REMARK  6 active torsions:
REMARK  status: ('A' for Active; 'I' for Inactive)
REMARK    1  A    between atoms: C_1  and  C_2
REMARK    2  A    between atoms: C_2  and  C_3
REMARK    3  A    between atoms: C_2  and  C_4
REMARK    4  A    between atoms: C_7  and  N_10
REMARK    5  A    between atoms: N_10  and  S_11
REMARK    6  A    between atoms: S_11  and  C_14
REMARK                            x       y       z     vdW  Elec       q    Type
REMARK                         _______ _______ _______ _____ _____    ______ ____
ROOT
ATOM      1  S   UNL     1      -1.079  -0.765   0.999  0.00  0.00    +0.072 S 
ATOM      2  O   UNL     1      -0.879  -2.161   0.820  0.00  0.00    -0.150 OA
ATOM      3  O   UNL     1      -0.977  -0.138   2.269  0.00  0.00    -0.150 OA
ENDROOT
BRANCH   1   4
ATOM      4  C   UNL     1      -2.693  -0.406   0.388  0.00  0.00    +0.109 A 
ATOM      5  C   UNL     1      -3.319  -1.300  -0.470  0.00  0.00    +0.031 A 
ATOM      6  C   UNL     1      -4.580  -1.038  -0.958  0.00  0.00    +0.028 A 
ATOM      7  C   UNL     1      -5.235   0.132  -0.591  0.00  0.00    +0.047 A 
ATOM      8  C   UNL     1      -4.596   1.036   0.280  0.00  0.00    +0.005 A 
ATOM      9  C   UNL     1      -3.319   0.747   0.767  0.00  0.00    +0.039 A 
ATOM     10  C   UNL     1      -5.531   2.142   0.463  0.00  0.00    -0.019 A 
ATOM     11  C   UNL     1      -6.629   1.865  -0.266  0.00  0.00    +0.020 A 
ATOM     12  N   UNL     1      -6.467   0.666  -0.901  0.00  0.00    -0.358 N 
ATOM     13  H   UNL     1      -7.122   0.252  -1.484  0.00  0.00    +0.166 HD
ATOM     14  C   UNL     1      -7.836   2.772  -0.340  0.00  0.00    +0.053 C 
ATOM     15  C   UNL     1      -7.770   3.766   0.825  0.00  0.00    +0.006 C 
ATOM     16  C   UNL     1      -6.387   4.421   0.861  0.00  0.00    +0.005 C 
ATOM     17  C   UNL     1      -5.346   3.383   1.298  0.00  0.00    +0.037 C 
ENDBRANCH   1   4
BRANCH   1  18
ATOM     18  N   UNL     1       0.002  -0.001   0.004  0.00  0.00    -0.216 N 
ATOM     19  H   UNL     1       0.590   0.683   0.362  0.00  0.00    +0.174 HD
BRANCH  18  23
ATOM     20  C   UNL     1       0.195  -1.009  -4.030  0.00  0.00    -0.045 A 
ATOM     21  C   UNL     1       0.174   0.321  -3.652  0.00  0.00    +0.006 A 
ATOM     22  C   UNL     1       0.110   0.659  -2.315  0.00  0.00    +0.025 A 
ATOM     23  C   UNL     1       0.066  -0.339  -1.349  0.00  0.00    +0.048 A 
ATOM     24  C   UNL     1       0.093  -1.674  -1.732  0.00  0.00    +0.025 A 
ATOM     25  C   UNL     1       0.152  -2.005  -3.072  0.00  0.00    +0.006 A 
BRANCH  20  27
ATOM     26  C   UNL     1       1.530  -2.195  -5.751  0.00  0.00    +0.012 C 
ATOM     27  C   UNL     1       0.265  -1.375  -5.491  0.00  0.00    +0.013 C 
ATOM     28  C   UNL     1      -0.965  -2.201  -5.870  0.00  0.00    +0.012 C 
ENDBRANCH  20  27
ENDBRANCH  18  23
ENDBRANCH   1  18
TORSDOF 4
