REMARK  Name = ZINC03572484
REMARK  6 active torsions:
REMARK  status: ('A' for Active; 'I' for Inactive)
REMARK    1  A    between atoms: C_1  and  C_2
REMARK    2  A    between atoms: C_5  and  N_9
REMARK    3  A    between atoms: C_7  and  C_8
REMARK    4  A    between atoms: C_19  and  S_20
REMARK    5  A    between atoms: S_20  and  C_21
REMARK    6  A    between atoms: C_21  and  C_22
REMARK                            x       y       z     vdW  Elec       q    Type
REMARK                         _______ _______ _______ _____ _____    ______ ____
ROOT
ATOM      1  N   UNL     1       0.002  -0.004   0.002  0.00  0.00    -0.255 N 
ATOM      2  C   UNL     1       0.034   1.258  -0.485  0.00  0.00    +0.267 A 
ATOM      3  O   UNL     1      -0.969   1.791  -0.924  0.00  0.00    -0.267 OA
ATOM      4  C   UNL     1       1.324   1.960  -0.470  0.00  0.00    +0.065 A 
ATOM      5  C   UNL     1       1.461   3.261  -0.951  0.00  0.00    +0.015 A 
ATOM      6  C   UNL     1       2.686   3.869  -0.914  0.00  0.00    +0.001 A 
ATOM      7  C   UNL     1       3.793   3.203  -0.404  0.00  0.00    +0.002 A 
ATOM      8  C   UNL     1       3.688   1.927   0.073  0.00  0.00    +0.028 A 
ATOM      9  C   UNL     1       2.449   1.279   0.049  0.00  0.00    +0.079 A 
ATOM     10  N   UNL     1       2.300   0.015   0.511  0.00  0.00    -0.223 NA
ATOM     11  C   UNL     1       1.139  -0.590   0.487  0.00  0.00    +0.177 A 
ENDROOT
BRANCH   1  16
ATOM     12  C   UNL     1      -4.886  -2.886   0.033  0.00  0.00    +0.044 C 
ATOM     13  C   UNL     1      -3.588  -2.121   0.025  0.00  0.00    -0.047 A 
ATOM     14  C   UNL     1      -2.747  -2.201  -1.070  0.00  0.00    +0.005 A 
ATOM     15  C   UNL     1      -1.559  -1.496  -1.083  0.00  0.00    +0.026 A 
ATOM     16  C   UNL     1      -1.205  -0.716   0.010  0.00  0.00    +0.052 A 
ATOM     17  C   UNL     1      -2.051  -0.637   1.107  0.00  0.00    +0.030 A 
ATOM     18  C   UNL     1      -3.240  -1.340   1.112  0.00  0.00    -0.046 A 
ATOM     19  C   UNL     1      -4.160  -1.256   2.303  0.00  0.00    +0.044 C 
ENDBRANCH   1  16
BRANCH  11  20
ATOM     20  S   UNL     1       1.036  -2.236   1.108  0.00  0.00    -0.078 S 
BRANCH  20  21
ATOM     21  C   UNL     1       2.759  -2.495   1.597  0.00  0.00    +0.173 C 
BRANCH  21  22
ATOM     22  C   UNL     1       2.915  -3.879   2.174  0.00  0.00    +0.231 C 
ATOM     23  O   UNL     1       1.955  -4.617   2.247  0.00  0.00    -0.274 OA
ATOM     24  N   UNL     1       4.120  -4.296   2.609  0.00  0.00    -0.240 N 
ATOM     25  C   UNL     1       4.259  -5.534   3.125  0.00  0.00    +0.303 C 
ATOM     26  O   UNL     1       3.298  -6.273   3.198  0.00  0.00    -0.253 OA
ATOM     27  N   UNL     1       5.465  -5.951   3.559  0.00  0.00    -0.313 N 
ATOM     28  H   UNL     1       4.888  -3.706   2.550  0.00  0.00    +0.159 HD
ATOM     29  H   UNL     1       6.232  -5.361   3.501  0.00  0.00    +0.146 HD
ATOM     30  H   UNL     1       5.565  -6.841   3.930  0.00  0.00    +0.146 HD
ENDBRANCH  21  22
ENDBRANCH  20  21
ENDBRANCH  11  20
TORSDOF 4
