REMARK  Name = ZINC09251094
REMARK  5 active torsions:
REMARK  status: ('A' for Active; 'I' for Inactive)
REMARK    1  A    between atoms: C_1  and  C_2
REMARK    2  A    between atoms: C_2  and  C_4
REMARK    3  A    between atoms: C_2  and  N_18
REMARK    4  A    between atoms: C_8  and  N_9
REMARK    5  A    between atoms: N_21  and  C_22
REMARK                            x       y       z     vdW  Elec       q    Type
REMARK                         _______ _______ _______ _____ _____    ______ ____
ROOT
ATOM      1  C   UNL     1      -0.276   0.183   0.056  0.00  0.00    +0.033 C 
ATOM      2  C   UNL     1      -0.476   1.679   0.308  0.00  0.00    +0.104 C 
ENDROOT
BRANCH   2   3
ATOM      3  C   UNL     1      -0.976   1.888   1.715  0.00  0.00    +0.007 A 
ATOM      4  C   UNL     1      -2.305   2.248   1.937  0.00  0.00    -0.030 A 
ATOM      5  C   UNL     1      -2.681   2.419   3.233  0.00  0.00    -0.005 A 
ATOM      6  S   UNL     1      -1.203   2.083   4.153  0.00  0.00    -0.075 S 
ATOM      7  C   UNL     1      -0.134   1.721   2.768  0.00  0.00    +0.090 A 
ATOM      8  C   UNL     1      -4.031   2.802   3.748  0.00  0.00    +0.043 C 
ATOM      9  C   UNL     1      -4.862   3.337   2.571  0.00  0.00    +0.005 C 
ATOM     10  C   UNL     1      -4.726   2.369   1.393  0.00  0.00    +0.005 C 
ATOM     11  C   UNL     1      -3.315   2.448   0.810  0.00  0.00    +0.036 C 
BRANCH   7  12
ATOM     12  N   UNL     1       1.218   1.360   2.768  0.00  0.00    -0.317 N 
ATOM     13  C   UNL     1       1.934   0.956   1.678  0.00  0.00    +0.092 A 
ATOM     14  C   UNL     1       3.198   0.701   2.075  0.00  0.00    +0.019 A 
ATOM     15  C   UNL     1       3.264   0.947   3.461  0.00  0.00    +0.019 A 
ATOM     16  C   UNL     1       2.039   1.349   3.859  0.00  0.00    +0.092 A 
ENDBRANCH   7  12
ENDBRANCH   2   3
BRANCH   2  17
ATOM     17  N   UNL     1       0.799   2.379   0.134  0.00  0.00    -0.292 N 
ATOM     18  C   UNL     1       1.305   2.559  -1.102  0.00  0.00    +0.304 C 
ATOM     19  O   UNL     1       0.704   2.140  -2.072  0.00  0.00    -0.252 OA
ATOM     20  N   UNL     1       2.478   3.203  -1.262  0.00  0.00    -0.269 N 
ATOM     21  H   UNL     1       1.278   2.713   0.908  0.00  0.00    +0.151 HD
ATOM     22  H   UNL     1       2.997   3.466  -0.486  0.00  0.00    +0.156 HD
BRANCH  20  23
ATOM     23  C   UNL     1       2.947   3.492  -2.549  0.00  0.00    +0.036 A 
ATOM     24  C   UNL     1       4.312   3.492  -2.808  0.00  0.00    +0.023 A 
ATOM     25  C   UNL     1       4.772   3.774  -4.079  0.00  0.00    +0.003 A 
ATOM     26  C   UNL     1       3.876   4.065  -5.092  0.00  0.00    +0.015 A 
ATOM     27  C   UNL     1       2.517   4.071  -4.836  0.00  0.00    +0.020 A 
ATOM     28  C   UNL     1       2.050   3.785  -3.567  0.00  0.00    +0.038 A 
ATOM     29 BR   UNL     1       1.296   4.471  -6.224  0.00  0.00    -0.050 Br
ENDBRANCH  20  23
ENDBRANCH   2  17
TORSDOF 4
