REMARK  Name = ZINC19330652
REMARK  6 active torsions:
REMARK  status: ('A' for Active; 'I' for Inactive)
REMARK    1  A    between atoms: C_1  and  O_2
REMARK    2  A    between atoms: O_2  and  C_3
REMARK    3  A    between atoms: C_7  and  C_9
REMARK    4  A    between atoms: C_12  and  C_25
REMARK    5  A    between atoms: C_15  and  C_18
REMARK    6  A    between atoms: C_30  and  O_31
REMARK                            x       y       z     vdW  Elec       q    Type
REMARK                         _______ _______ _______ _____ _____    ______ ____
ROOT
ATOM      1  C   UNL     1      -0.756   1.595  -1.230  0.00  0.00    -0.036 C 
ATOM      2  C   UNL     1      -0.013   1.086   0.008  0.00  0.00    +0.012 C 
ATOM      3  C   UNL     1      -0.733   1.581   1.266  0.00  0.00    +0.085 C 
ATOM      4  N   UNL     1      -2.133   1.133   1.228  0.00  0.00    -0.319 NA
ATOM      5  C   UNL     1      -2.820   1.648   0.036  0.00  0.00    +0.028 C 
ATOM      6  N   UNL     1      -2.155   1.145  -1.173  0.00  0.00    +0.396 N 
ATOM      7  H   UNL     1      -2.166   0.033   1.205  0.00  0.00    +0.121 HD
ATOM      8  H   UNL     1      -2.696   1.519  -2.055  0.00  0.00    -0.082 HD
ATOM      9  H   UNL     1      -2.186   0.046  -1.162  0.00  0.00    -0.082 HD
ENDROOT
BRANCH   5  10
ATOM     10  C   UNL     1      -4.255   1.188   0.047  0.00  0.00    -0.048 A 
ATOM     11  C   UNL     1      -4.900   0.964   1.249  0.00  0.00    +0.004 A 
ATOM     12  C   UNL     1      -6.218   0.547   1.259  0.00  0.00    +0.015 A 
ATOM     13  C   UNL     1      -6.888   0.344   0.066  0.00  0.00    +0.018 A 
ATOM     14  C   UNL     1      -6.241   0.563  -1.136  0.00  0.00    +0.015 A 
ATOM     15  C   UNL     1      -4.925   0.985  -1.146  0.00  0.00    +0.004 A 
ATOM     16 BR   UNL     1      -8.689  -0.234   0.080  0.00  0.00    -0.050 Br
ENDBRANCH   5  10
BRANCH   3  17
ATOM     17  C   UNL     1      -0.054   1.019   2.488  0.00  0.00    +0.012 A 
ATOM     18  C   UNL     1      -0.534  -0.136   3.076  0.00  0.00    +0.024 A 
ATOM     19  C   UNL     1       0.091  -0.655   4.194  0.00  0.00    +0.018 A 
ATOM     20  C   UNL     1       1.192  -0.014   4.735  0.00  0.00    +0.019 A 
ATOM     21  C   UNL     1       1.671   1.144   4.154  0.00  0.00    +0.047 A 
ATOM     22  C   UNL     1       1.049   1.664   3.028  0.00  0.00    +0.122 A 
ATOM     23 BR   UNL     1      -0.563  -2.240   4.992  0.00  0.00    -0.050 Br
BRANCH  22  24
ATOM     24  O   UNL     1       1.520   2.803   2.455  0.00  0.00    -0.506 OA
ATOM     25  H   UNL     1       2.394   3.313   2.884  0.00  0.00    +0.292 HD
ENDBRANCH  22  24
ENDBRANCH   3  17
BRANCH   1  30
ATOM     26  C   UNL     1       1.372   1.328  -4.341  0.00  0.00    +0.120 A 
ATOM     27  C   UNL     1       1.097   0.031  -4.751  0.00  0.00    +0.045 A 
ATOM     28  C   UNL     1       0.226  -0.753  -4.021  0.00  0.00    +0.004 A 
ATOM     29  C   UNL     1      -0.369  -0.248  -2.879  0.00  0.00    +0.002 A 
ATOM     30  C   UNL     1      -0.102   1.046  -2.472  0.00  0.00    -0.058 A 
ATOM     31  C   UNL     1       0.770   1.834  -3.199  0.00  0.00    +0.047 A 
BRANCH  26  33
ATOM     32  C   UNL     1       2.812   1.515  -6.223  0.00  0.00    +0.277 C 
ATOM     33  O   UNL     1       2.229   2.102  -5.058  0.00  0.00    -0.495 OA
ENDBRANCH  26  33
ENDBRANCH   1  30
TORSDOF 5
