REMARK  Name = ZINC12844636
REMARK  7 active torsions:
REMARK  status: ('A' for Active; 'I' for Inactive)
REMARK    1  A    between atoms: C_3  and  O_34
REMARK    2  A    between atoms: C_4  and  N_15
REMARK    3  A    between atoms: C_6  and  S_7
REMARK    4  A    between atoms: S_7  and  N_10
REMARK    5  A    between atoms: C_16  and  C_18
REMARK    6  A    between atoms: C_18  and  C_19
REMARK    7  A    between atoms: C_19  and  C_20
REMARK                            x       y       z     vdW  Elec       q    Type
REMARK                         _______ _______ _______ _____ _____    ______ ____
ROOT
ATOM      1  N   UNL     1      -3.493   0.532   3.693  0.00  0.00    -0.283 N 
ATOM      2  C   UNL     1      -3.768  -0.642   3.090  0.00  0.00    +0.218 C 
ATOM      3  O   UNL     1      -3.144  -0.979   2.105  0.00  0.00    -0.275 OA
ATOM      4  H   UNL     1      -3.934   0.764   4.524  0.00  0.00    +0.155 HD
ENDROOT
BRANCH   1   8
ATOM      5  C   UNL     1      -0.741   3.158   1.982  0.00  0.00    +0.032 A 
ATOM      6  C   UNL     1      -0.983   3.208   3.343  0.00  0.00    +0.049 A 
ATOM      7  C   UNL     1      -1.895   2.337   3.916  0.00  0.00    +0.138 A 
ATOM      8  C   UNL     1      -2.570   1.415   3.118  0.00  0.00    +0.077 A 
ATOM      9  C   UNL     1      -2.325   1.375   1.754  0.00  0.00    +0.055 A 
ATOM     10  C   UNL     1      -1.414   2.248   1.189  0.00  0.00    +0.107 A 
BRANCH  10  11
ATOM     11  S   UNL     1      -1.104   2.195  -0.545  0.00  0.00    +0.061 S 
ATOM     12  O   UNL     1      -1.452   0.888  -0.980  0.00  0.00    -0.153 OA
ATOM     13  O   UNL     1       0.191   2.745  -0.743  0.00  0.00    -0.153 OA
BRANCH  11  14
ATOM     14  N   UNL     1      -2.174   3.233  -1.265  0.00  0.00    -0.177 NA
ATOM     15  C   UNL     1      -3.514   2.878  -1.757  0.00  0.00    +0.109 C 
ATOM     16  C   UNL     1      -4.130   4.154  -2.368  0.00  0.00    +0.018 C 
ATOM     17  C   UNL     1      -2.883   5.015  -2.703  0.00  0.00    +0.018 C 
ATOM     18  C   UNL     1      -1.939   4.665  -1.525  0.00  0.00    +0.109 C 
ENDBRANCH  11  14
ENDBRANCH  10  11
BRANCH   7  19
ATOM     19  O   UNL     1      -2.130   2.380   5.255  0.00  0.00    -0.505 OA
ATOM     20  H   UNL     1      -1.552   1.805   5.775  0.00  0.00    +0.292 HD
ENDBRANCH   7  19
ENDBRANCH   1   8
BRANCH   2  21
ATOM     21  C   UNL     1      -4.849  -1.536   3.639  0.00  0.00    +0.104 C 
BRANCH  21  22
ATOM     22  C   UNL     1      -4.957  -2.795   2.776  0.00  0.00    +0.083 C 
BRANCH  22  23
ATOM     23  C   UNL     1      -6.039  -3.689   3.325  0.00  0.00    +0.111 A 
ATOM     24  N   UNL     1      -6.308  -4.867   2.704  0.00  0.00    -0.310 N 
ATOM     25  H   UNL     1      -5.801  -5.116   1.916  0.00  0.00    +0.170 HD
ATOM     26  C   UNL     1      -7.263  -5.697   3.163  0.00  0.00    +0.260 A 
ATOM     27  O   UNL     1      -7.492  -6.753   2.599  0.00  0.00    -0.267 OA
ATOM     28  C   UNL     1      -8.009  -5.315   4.325  0.00  0.00    +0.075 A 
ATOM     29  C   UNL     1      -9.091  -6.054   4.992  0.00  0.00    -0.023 A 
ATOM     30  C   UNL     1      -9.639  -5.482   6.078  0.00  0.00    -0.004 A 
ATOM     31  S   UNL     1      -8.766  -3.946   6.277  0.00  0.00    -0.073 S 
ATOM     32  C   UNL     1      -7.664  -4.082   4.894  0.00  0.00    +0.116 A 
ATOM     33  N   UNL     1      -6.703  -3.315   4.386  0.00  0.00    -0.227 NA
ATOM     34  C   UNL     1     -10.729  -6.329   6.678  0.00  0.00    +0.043 C 
ATOM     35  C   UNL     1     -10.507  -7.732   6.072  0.00  0.00    +0.010 C 
ATOM     36  C   UNL     1      -9.794  -7.393   4.748  0.00  0.00    +0.037 C 
ENDBRANCH  22  23
ENDBRANCH  21  22
ENDBRANCH   2  21
TORSDOF 7
