REMARK  Name = ZINC08735000
REMARK  5 active torsions:
REMARK  status: ('A' for Active; 'I' for Inactive)
REMARK    1  A    between atoms: C_1  and  C_2
REMARK    2  A    between atoms: C_5  and  N_8
REMARK    3  A    between atoms: C_9  and  C_11
REMARK    4  A    between atoms: C_11  and  S_12
REMARK    5  A    between atoms: S_12  and  C_13
REMARK                            x       y       z     vdW  Elec       q    Type
REMARK                         _______ _______ _______ _____ _____    ______ ____
ROOT
ATOM      1  C   UNL     1       0.593  -8.709   2.636  0.00  0.00    +0.274 C 
ATOM      2  N   UNL     1       0.601  -9.350   1.502  0.00  0.00    -0.135 NA
ATOM      3  N   UNL     1       0.735 -10.717   1.786  0.00  0.00    -0.202 N 
ATOM      4  C   UNL     1       0.803 -10.832   3.126  0.00  0.00    +0.218 C 
ATOM      5  C   UNL     1       0.940 -12.030   3.853  0.00  0.00    +0.061 C 
ATOM      6  C   UNL     1       1.008 -12.181   5.249  0.00  0.00    +0.125 C 
ATOM      7  N   UNL     1       1.136 -13.452   5.547  0.00  0.00    -0.254 NA
ATOM      8  C   UNL     1       1.165 -14.230   4.452  0.00  0.00    +0.072 A 
ATOM      9  C   UNL     1       1.038 -13.395   3.317  0.00  0.00    +0.014 A 
ATOM     10  C   UNL     1       1.033 -13.948   2.039  0.00  0.00    +0.011 A 
ATOM     11  C   UNL     1       1.146 -15.302   1.888  0.00  0.00    +0.001 A 
ATOM     12  C   UNL     1       1.267 -16.129   2.998  0.00  0.00    +0.002 A 
ATOM     13  C   UNL     1       1.285 -15.614   4.261  0.00  0.00    +0.028 A 
ATOM     14  O   UNL     1       0.721  -9.595   3.643  0.00  0.00    -0.415 OA
ATOM     15  H   UNL     1       0.771 -11.440   1.141  0.00  0.00    +0.178 HD
ENDROOT
BRANCH   1  16
ATOM     16  S   UNL     1       0.446  -6.963   2.823  0.00  0.00    -0.056 S 
BRANCH  16  17
ATOM     17  C   UNL     1       0.309  -6.349   1.121  0.00  0.00    +0.175 C 
BRANCH  17  19
ATOM     18  N   UNL     1       0.059  -4.170  -0.021  0.00  0.00    -0.285 N 
ATOM     19  C   UNL     1       0.175  -4.848   1.138  0.00  0.00    +0.228 C 
ATOM     20  O   UNL     1       0.173  -4.251   2.193  0.00  0.00    -0.275 OA
ATOM     21  H   UNL     1      -0.017  -4.651  -0.860  0.00  0.00    +0.155 HD
BRANCH  18  26
ATOM     22  C   UNL     1       0.008   1.503   0.007  0.00  0.00    +0.044 C 
ATOM     23  C   UNL     1       0.022  -0.004  -0.001  0.00  0.00    -0.050 A 
ATOM     24  C   UNL     1       0.777  -0.692   0.931  0.00  0.00    +0.005 A 
ATOM     25  C   UNL     1       0.791  -2.073   0.927  0.00  0.00    +0.023 A 
ATOM     26  C   UNL     1       0.046  -2.771  -0.014  0.00  0.00    +0.033 A 
ATOM     27  C   UNL     1      -0.712  -2.077  -0.948  0.00  0.00    +0.023 A 
ATOM     28  C   UNL     1      -0.726  -0.696  -0.936  0.00  0.00    +0.005 A 
ENDBRANCH  18  26
ENDBRANCH  17  19
ENDBRANCH  16  17
ENDBRANCH   1  16
TORSDOF 4
