REMARK  Name = ZINC14752203
REMARK  7 active torsions:
REMARK  status: ('A' for Active; 'I' for Inactive)
REMARK    1  A    between atoms: C_1  and  N_2
REMARK    2  A    between atoms: N_2  and  C_3
REMARK    3  A    between atoms: C_4  and  C_6
REMARK    4  A    between atoms: N_9  and  C_11
REMARK    5  A    between atoms: C_11  and  C_12
REMARK    6  A    between atoms: C_16  and  N_56
REMARK    7  A    between atoms: C_19  and  N_56
REMARK                            x       y       z     vdW  Elec       q    Type
REMARK                         _______ _______ _______ _____ _____    ______ ____
ROOT
ATOM      1  C   UNL     1       3.455   0.207   2.293  0.00  0.00    +0.151 A 
ATOM      2  C   UNL     1       2.997   1.275   3.083  0.00  0.00    +0.004 A 
ATOM      3  C   UNL     1       1.977   1.839   2.391  0.00  0.00    +0.043 A 
ATOM      4  N   UNL     1       1.833   1.140   1.253  0.00  0.00    -0.264 N 
ATOM      5  N   UNL     1       2.703   0.190   1.206  0.00  0.00    -0.166 NA
ATOM      6  C   UNL     1       1.190   3.029   2.876  0.00  0.00    +0.054 C 
ATOM      7  C   UNL     1       1.448   3.199   4.379  0.00  0.00    -0.009 C 
ATOM      8  C   UNL     1       2.955   3.177   4.648  0.00  0.00    -0.067 C 
ATOM      9  C   UNL     1       3.492   1.755   4.419  0.00  0.00    +0.023 C 
ENDROOT
BRANCH   1  13
ATOM     10  C   UNL     1       5.973  -2.626   2.066  0.00  0.00    +0.132 C 
ATOM     11  N   UNL     1       4.972  -1.620   1.702  0.00  0.00    -0.302 N 
ATOM     12  C   UNL     1       4.418  -1.595   0.346  0.00  0.00    +0.132 C 
ATOM     13  C   UNL     1       4.561  -0.718   2.615  0.00  0.00    +0.267 C 
ATOM     14  O   UNL     1       5.101  -0.664   3.703  0.00  0.00    -0.268 OA
ENDBRANCH   1  13
BRANCH   8  15
ATOM     15  N   UNL     1       3.211   3.570   6.046  0.00  0.00    +0.383 N 
ATOM     16  H   UNL     1       4.105   3.168   6.353  0.00  0.00    -0.085 HD
ATOM     17  H   UNL     1       2.454   3.215   6.642  0.00  0.00    -0.085 HD
BRANCH  15  18
ATOM     18  C   UNL     1       3.273   5.039   6.162  0.00  0.00    -0.071 C 
ATOM     19  C   UNL     1       4.684   5.514   5.758  0.00  0.00    -0.016 C 
ATOM     20  C   UNL     1       4.611   6.972   5.393  0.00  0.00    -0.002 C 
ATOM     21  C   UNL     1       4.950   7.895   6.579  0.00  0.00    -0.000 C 
ATOM     22  C   UNL     1       4.323   7.421   7.904  0.00  0.00    -0.000 C 
ATOM     23  C   UNL     1       2.908   6.940   7.731  0.00  0.00    -0.002 C 
ATOM     24  C   UNL     1       2.932   5.411   7.527  0.00  0.00    -0.016 C 
ENDBRANCH  15  18
ENDBRANCH   8  15
BRANCH   4  25
ATOM     25  C   UNL     1       0.837   1.419   0.216  0.00  0.00    +0.170 C 
BRANCH  25  26
ATOM     26  C   UNL     1      -0.422   0.643   0.506  0.00  0.00    -0.012 C 
ATOM     27  C   UNL     1      -1.570   1.267   0.596  0.00  0.00    +0.006 C 
ENDBRANCH  25  26
ENDBRANCH   4  25
TORSDOF 5
