REMARK  Name = ZINC32809495
REMARK  6 active torsions:
REMARK  status: ('A' for Active; 'I' for Inactive)
REMARK    1  A    between atoms: C_1  and  C_2
REMARK    2  A    between atoms: C_6  and  C_24
REMARK    3  A    between atoms: C_10  and  C_11
REMARK    4  A    between atoms: N_13  and  C_14
REMARK    5  A    between atoms: N_13  and  C_15
REMARK    6  A    between atoms: C_20  and  C_23
REMARK                            x       y       z     vdW  Elec       q    Type
REMARK                         _______ _______ _______ _____ _____    ______ ____
ROOT
ATOM      1  C   UNL     1      -0.878  -5.142   0.558  0.00  0.00    +0.046 C 
ATOM      2  C   UNL     1       0.294  -4.215   0.751  0.00  0.00    -0.022 A 
ATOM      3  C   UNL     1       0.078  -2.858   1.045  0.00  0.00    +0.011 A 
ATOM      4  C   UNL     1      -1.156  -2.172   1.198  0.00  0.00    +0.013 A 
ATOM      5  C   UNL     1      -1.143  -0.841   1.491  0.00  0.00    +0.033 A 
ATOM      6  C   UNL     1       0.057  -0.157   1.626  0.00  0.00    +0.145 A 
ATOM      7  N   UNL     1       1.206  -0.790   1.484  0.00  0.00    -0.236 NA
ATOM      8  C   UNL     1       1.247  -2.074   1.207  0.00  0.00    +0.110 A 
ATOM      9  S   UNL     1       2.560  -3.242   0.949  0.00  0.00    -0.064 S 
ATOM     10  C   UNL     1       1.563  -4.690   0.642  0.00  0.00    +0.080 A 
ENDROOT
BRANCH  10  11
ATOM     11  C   UNL     1       2.005  -6.060   0.345  0.00  0.00    +0.254 C 
ATOM     12  O   UNL     1       1.194  -6.966   0.305  0.00  0.00    -0.269 OA
ATOM     13  N   UNL     1       3.309  -6.312   0.116  0.00  0.00    -0.297 N 
ATOM     14  C   UNL     1       4.291  -5.228   0.200  0.00  0.00    +0.132 C 
BRANCH  13  15
ATOM     15  C   UNL     1       3.745  -7.671  -0.217  0.00  0.00    +0.076 C 
ATOM     16  C   UNL     1       4.413  -7.669  -1.594  0.00  0.00    +0.022 C 
ATOM     17  C   UNL     1       4.868  -9.088  -1.941  0.00  0.00    +0.002 C 
ATOM     18  C   UNL     1       5.867  -9.575  -0.890  0.00  0.00    +0.003 C 
ATOM     19  C   UNL     1       5.200  -9.576   0.487  0.00  0.00    -0.012 C 
ATOM     20  C   UNL     1       4.745  -8.158   0.834  0.00  0.00    +0.025 C 
ATOM     21  C   UNL     1       6.199 -10.063   1.538  0.00  0.00    +0.007 C 
ENDBRANCH  13  15
ENDBRANCH  10  11
BRANCH   6  22
ATOM     22  C   UNL     1       0.048   1.316   1.943  0.00  0.00    +0.434 C 
ATOM     23  F   UNL     1       1.359   1.805   1.924  0.00  0.00    -0.164 F 
ATOM     24  F   UNL     1      -0.717   1.994   0.988  0.00  0.00    -0.164 F 
ATOM     25  F   UNL     1      -0.505   1.517   3.212  0.00  0.00    -0.164 F 
ENDBRANCH   6  22
TORSDOF 3
