REMARK  Name = ZINC20575723
REMARK  7 active torsions:
REMARK  status: ('A' for Active; 'I' for Inactive)
REMARK    1  A    between atoms: C_1  and  C_2
REMARK    2  A    between atoms: C_5  and  C_8
REMARK    3  A    between atoms: C_8  and  N_9
REMARK    4  A    between atoms: C_18  and  N_19
REMARK    5  A    between atoms: N_19  and  C_20
REMARK    6  A    between atoms: C_23  and  S_26
REMARK    7  A    between atoms: S_26  and  N_29
REMARK                            x       y       z     vdW  Elec       q    Type
REMARK                         _______ _______ _______ _____ _____    ______ ____
ROOT
ATOM      1  N   UNL     1      -0.193   0.978   1.437  0.00  0.00    -0.197 N 
ATOM      2  C   UNL     1      -1.224   0.264   2.092  0.00  0.00    +0.070 A 
ATOM      3  C   UNL     1      -1.795  -0.893   1.571  0.00  0.00    +0.033 A 
ATOM      4  C   UNL     1      -2.772  -1.532   2.255  0.00  0.00    +0.048 A 
ATOM      5  S   UNL     1      -2.970  -0.559   3.678  0.00  0.00    -0.091 S 
ATOM      6  C   UNL     1      -1.746   0.672   3.319  0.00  0.00    +0.083 A 
ATOM      7  C   UNL     1      -1.383   1.836   4.114  0.00  0.00    +0.222 C 
ATOM      8  O   UNL     1      -2.025   2.187   5.091  0.00  0.00    -0.285 OA
ATOM      9  C   UNL     1      -0.173   2.566   3.654  0.00  0.00    +0.170 C 
ATOM     10  C   UNL     1       0.675   3.182   4.502  0.00  0.00    +0.105 C 
ATOM     11  S   UNL     1       0.068   2.557   1.897  0.00  0.00    +0.080 S 
ATOM     12  O   UNL     1       1.442   2.836   1.664  0.00  0.00    -0.150 OA
ATOM     13  O   UNL     1      -0.981   3.333   1.334  0.00  0.00    -0.150 OA
ENDROOT
BRANCH  10  14
ATOM     14  N   UNL     1       1.689   3.962   4.011  0.00  0.00    -0.319 N 
ATOM     15  H   UNL     1       1.753   4.165   2.932  0.00  0.00    +0.152 HD
BRANCH  14  16
ATOM     16  C   UNL     1       2.641   4.498   4.881  0.00  0.00    +0.031 A 
ATOM     17  C   UNL     1       2.559   4.247   6.245  0.00  0.00    +0.025 A 
ATOM     18  C   UNL     1       3.505   4.775   7.101  0.00  0.00    +0.030 A 
ATOM     19  C   UNL     1       4.527   5.562   6.604  0.00  0.00    +0.105 A 
ATOM     20  C   UNL     1       4.609   5.819   5.248  0.00  0.00    +0.030 A 
ATOM     21  C   UNL     1       3.670   5.290   4.385  0.00  0.00    +0.025 A 
BRANCH  19  22
ATOM     22  S   UNL     1       5.728   6.239   7.701  0.00  0.00    +0.056 S 
ATOM     23  O   UNL     1       5.744   5.405   8.851  0.00  0.00    -0.153 OA
ATOM     24  O   UNL     1       6.892   6.489   6.925  0.00  0.00    -0.153 OA
BRANCH  22  25
ATOM     25  N   UNL     1       5.163   7.715   8.195  0.00  0.00    -0.204 NA
ATOM     26  H   UNL     1       5.887   8.174   8.885  0.00  0.00    +0.144 HD
ATOM     27  H   UNL     1       4.199   7.585   8.709  0.00  0.00    +0.144 HD
ENDBRANCH  22  25
ENDBRANCH  19  22
ENDBRANCH  14  16
ENDBRANCH  10  14
BRANCH   1  28
ATOM     28  C   UNL     1       0.621   0.348   0.395  0.00  0.00    +0.166 C 
BRANCH  28  33
ATOM     29  C   UNL     1       5.063  -2.430   2.834  0.00  0.00    +0.044 C 
ATOM     30  C   UNL     1       3.904  -1.706   2.198  0.00  0.00    -0.050 A 
ATOM     31  C   UNL     1       2.688  -2.345   2.048  0.00  0.00    +0.003 A 
ATOM     32  C   UNL     1       1.625  -1.680   1.465  0.00  0.00    +0.005 A 
ATOM     33  C   UNL     1       1.779  -0.377   1.031  0.00  0.00    -0.028 A 
ATOM     34  C   UNL     1       2.997   0.261   1.176  0.00  0.00    +0.005 A 
ATOM     35  C   UNL     1       4.058  -0.402   1.764  0.00  0.00    +0.003 A 
ENDBRANCH  28  33
ENDBRANCH   1  28
TORSDOF 6
