REMARK  Name = ZINC39481470
REMARK  11 active torsions:
REMARK  status: ('A' for Active; 'I' for Inactive)
REMARK    1  A    between atoms: C_1  and  C_2
REMARK    2  A    between atoms: C_2  and  C_3
REMARK    3  A    between atoms: C_3  and  C_4
REMARK    4  A    between atoms: C_7  and  N_27
REMARK    5  A    between atoms: C_8  and  N_10
REMARK    6  A    between atoms: C_14  and  S_17
REMARK    7  A    between atoms: S_17  and  O_20
REMARK    8  A    between atoms: O_20  and  C_21
REMARK    9  A    between atoms: N_27  and  S_28
REMARK   10  A    between atoms: S_28  and  C_31
REMARK   11  A    between atoms: C_31  and  C_32
REMARK                            x       y       z     vdW  Elec       q    Type
REMARK                         _______ _______ _______ _____ _____    ______ ____
ROOT
ATOM      1  C   UNL     1       0.498  -2.479  -2.510  0.00  0.00    -0.046 A 
ATOM      2  C   UNL     1       1.391  -3.151  -1.696  0.00  0.00    +0.005 A 
ATOM      3  C   UNL     1       1.276  -4.517  -1.517  0.00  0.00    +0.026 A 
ATOM      4  C   UNL     1       0.262  -5.217  -2.154  0.00  0.00    +0.069 A 
ATOM      5  C   UNL     1      -0.639  -4.539  -2.975  0.00  0.00    +0.053 A 
ATOM      6  C   UNL     1      -0.519  -3.168  -3.145  0.00  0.00    +0.028 A 
ENDROOT
BRANCH   5   7
ATOM      7  N   UNL     1      -1.664  -5.239  -3.621  0.00  0.00    -0.330 N 
ATOM      8  C   UNL     1      -2.977  -5.419  -2.982  0.00  0.00    +0.086 C 
ATOM      9  C   UNL     1      -3.349  -6.904  -3.045  0.00  0.00    -0.061 C 
ATOM     10  N   UNL     1      -3.284  -7.365  -4.438  0.00  0.00    +0.398 N 
ATOM     11  C   UNL     1      -1.903  -7.283  -4.929  0.00  0.00    +0.133 C 
ATOM     12  C   UNL     1      -1.462  -5.811  -4.962  0.00  0.00    +0.115 C 
ATOM     13  H   UNL     1      -3.602  -8.322  -4.489  0.00  0.00    -0.083 HD
ATOM     14  H   UNL     1      -3.879  -6.785  -5.011  0.00  0.00    -0.083 HD
BRANCH  11  15
ATOM     15  S   UNL     1      -1.813  -7.977  -6.602  0.00  0.00    +0.109 S 
ATOM     16  O   UNL     1      -2.789  -7.370  -7.437  0.00  0.00    -0.138 OA
ATOM     17  O   UNL     1      -0.459  -8.070  -7.021  0.00  0.00    -0.138 OA
BRANCH  15  18
ATOM     18  O   UNL     1      -2.273  -9.420  -6.452  0.00  0.00    -0.347 OA
BRANCH  18  19
ATOM     19  C   UNL     1      -1.353 -10.237  -5.876  0.00  0.00    +0.156 A 
ATOM     20  C   UNL     1      -0.434 -10.914  -6.664  0.00  0.00    +0.048 A 
ATOM     21  C   UNL     1       0.501 -11.743  -6.075  0.00  0.00    +0.004 A 
ATOM     22  C   UNL     1       0.521 -11.899  -4.701  0.00  0.00    +0.000 A 
ATOM     23  C   UNL     1      -0.395 -11.226  -3.914  0.00  0.00    +0.004 A 
ATOM     24  C   UNL     1      -1.327 -10.390  -4.497  0.00  0.00    +0.048 A 
ENDBRANCH  18  19
ENDBRANCH  15  18
ENDBRANCH  11  15
ENDBRANCH   5   7
BRANCH   4  25
ATOM     25  N   UNL     1       0.143  -6.601  -1.974  0.00  0.00    -0.219 N 
ATOM     26  H   UNL     1      -0.151  -7.162  -2.709  0.00  0.00    +0.173 HD
BRANCH  25  27
ATOM     27  S   UNL     1       0.507  -7.279  -0.508  0.00  0.00    +0.047 S 
ATOM     28  O   UNL     1       0.195  -8.657  -0.659  0.00  0.00    -0.155 OA
ATOM     29  O   UNL     1       1.838  -6.864  -0.236  0.00  0.00    -0.155 OA
BRANCH  27  30
ATOM     30  C   UNL     1      -0.641  -6.503   0.662  0.00  0.00    +0.223 C 
BRANCH  30  31
ATOM     31  C   UNL     1      -0.397  -7.052   2.044  0.00  0.00    -0.025 A 
ATOM     32  C   UNL     1      -1.078  -8.177   2.471  0.00  0.00    +0.005 A 
ATOM     33  C   UNL     1      -0.855  -8.680   3.739  0.00  0.00    +0.000 A 
ATOM     34  C   UNL     1       0.051  -8.060   4.580  0.00  0.00    +0.000 A 
ATOM     35  C   UNL     1       0.732  -6.935   4.152  0.00  0.00    +0.000 A 
ATOM     36  C   UNL     1       0.512  -6.434   2.883  0.00  0.00    +0.005 A 
ENDBRANCH  30  31
ENDBRANCH  27  30
ENDBRANCH  25  27
ENDBRANCH   4  25
BRANCH   1  37
ATOM     37  C   UNL     1       0.630  -0.990  -2.701  0.00  0.00    +0.035 C 
BRANCH  37  39
ATOM     38  C   UNL     1      -0.051   1.248  -1.823  0.00  0.00    +0.004 C 
ATOM     39  C   UNL     1      -0.185  -0.264  -1.629  0.00  0.00    +0.001 C 
ENDBRANCH  37  39
ENDBRANCH   1  37
TORSDOF 10
