REMARK  Name = ZINC02460205
REMARK  8 active torsions:
REMARK  status: ('A' for Active; 'I' for Inactive)
REMARK    1  A    between atoms: C_1  and  C_2
REMARK    2  A    between atoms: C_3  and  S_12
REMARK    3  A    between atoms: S_12  and  C_13
REMARK    4  A    between atoms: C_13  and  C_14
REMARK    5  A    between atoms: C_14  and  N_15
REMARK    6  A    between atoms: C_16  and  C_18
REMARK    7  A    between atoms: C_18  and  O_19
REMARK    8  A    between atoms: O_19  and  C_20
REMARK                            x       y       z     vdW  Elec       q    Type
REMARK                         _______ _______ _______ _____ _____    ______ ____
ROOT
ATOM      1  N   UNL     1       1.356   2.033   0.000  0.00  0.00    -0.312 N 
ATOM      2  C   UNL     1       1.584   3.361   0.005  0.00  0.00    +0.251 C 
ATOM      3  O   UNL     1       0.652   4.137   0.018  0.00  0.00    -0.272 OA
ATOM      4  H   UNL     1       2.102   1.413  -0.010  0.00  0.00    +0.149 HD
ENDROOT
BRANCH   1   5
ATOM      5  C   UNL     1      -0.019   1.526   0.010  0.00  0.00    +0.115 C 
BRANCH   5   6
ATOM      6  C   UNL     1       0.002  -0.004   0.002  0.00  0.00    +0.093 C 
BRANCH   6   7
ATOM      7  S   UNL     1      -1.700  -0.632   0.015  0.00  0.00    -0.121 S 
BRANCH   7  10
ATOM      8  C   UNL     1      -1.510  -2.697  -2.511  0.00  0.00    +0.064 C 
ATOM      9  C   UNL     1      -1.437  -3.175  -1.083  0.00  0.00    +0.027 A 
ATOM     10  C   UNL     1      -1.508  -2.383   0.004  0.00  0.00    +0.036 A 
ATOM     11  C   UNL     1      -1.402  -3.258   1.177  0.00  0.00    +0.013 A 
ATOM     12  C   UNL     1      -1.413  -3.035   2.555  0.00  0.00    +0.011 A 
ATOM     13  C   UNL     1      -1.291  -4.090   3.415  0.00  0.00    +0.001 A 
ATOM     14  C   UNL     1      -1.154  -5.383   2.929  0.00  0.00    +0.002 A 
ATOM     15  C   UNL     1      -1.140  -5.626   1.573  0.00  0.00    +0.026 A 
ATOM     16  C   UNL     1      -1.263  -4.566   0.680  0.00  0.00    +0.048 A 
ATOM     17  N   UNL     1      -1.285  -4.486  -0.694  0.00  0.00    -0.357 N 
ATOM     18  H   UNL     1      -1.208  -5.241  -1.298  0.00  0.00    +0.166 HD
ENDBRANCH   7  10
ENDBRANCH   6   7
ENDBRANCH   5   6
ENDBRANCH   1   5
BRANCH   2  19
ATOM     19  C   UNL     1       2.998   3.883  -0.006  0.00  0.00    +0.324 C 
BRANCH  19  20
ATOM     20  O   UNL     1       2.978   5.312   0.002  0.00  0.00    -0.483 OA
BRANCH  20  21
ATOM     21  C   UNL     1       4.181   5.945  -0.006  0.00  0.00    +0.122 A 
ATOM     22  C   UNL     1       5.358   5.190  -0.015  0.00  0.00    +0.046 A 
ATOM     23  C   UNL     1       6.576   5.795  -0.030  0.00  0.00    +0.012 A 
ATOM     24  C   UNL     1       6.657   7.199  -0.023  0.00  0.00    -0.018 A 
ATOM     25  C   UNL     1       7.899   7.856  -0.030  0.00  0.00    +0.008 A 
ATOM     26  C   UNL     1       7.941   9.217  -0.024  0.00  0.00    +0.001 A 
ATOM     27  C   UNL     1       6.769   9.971  -0.008  0.00  0.00    +0.001 A 
ATOM     28  C   UNL     1       5.549   9.369   0.000  0.00  0.00    +0.008 A 
ATOM     29  C   UNL     1       5.465   7.966  -0.007  0.00  0.00    -0.014 A 
ATOM     30  C   UNL     1       4.223   7.310   0.001  0.00  0.00    +0.054 A 
ENDBRANCH  20  21
ENDBRANCH  19  20
ENDBRANCH   2  19
TORSDOF 7
