REMARK  Name = ZINC38659784
REMARK  13 active torsions:
REMARK  status: ('A' for Active; 'I' for Inactive)
REMARK    1  A    between atoms: C_1  and  O_2
REMARK    2  A    between atoms: O_2  and  C_3
REMARK    3  A    between atoms: C_6  and  C_9
REMARK    4  A    between atoms: C_10  and  C_11
REMARK    5  A    between atoms: C_11  and  O_13
REMARK    6  A    between atoms: O_13  and  C_14
REMARK    7  A    between atoms: C_21  and  N_37
REMARK    8  A    between atoms: C_22  and  C_35
REMARK    9  A    between atoms: C_23  and  C_25
REMARK   10  A    between atoms: C_27  and  O_33
REMARK   11  A    between atoms: C_30  and  O_31
REMARK   12  A    between atoms: O_31  and  C_32
REMARK   13  A    between atoms: O_33  and  C_34
REMARK                            x       y       z     vdW  Elec       q    Type
REMARK                         _______ _______ _______ _____ _____    ______ ____
ROOT
ATOM      1  C   UNL     1       3.777  -6.461  -6.656  0.00  0.00    +0.135 A 
ATOM      2  C   UNL     1       4.395  -5.739  -7.667  0.00  0.00    +0.047 A 
ATOM      3  C   UNL     1       4.966  -6.400  -8.737  0.00  0.00    +0.012 A 
ATOM      4  C   UNL     1       4.924  -7.781  -8.806  0.00  0.00    +0.008 A 
ATOM      5  C   UNL     1       4.308  -8.507  -7.799  0.00  0.00    +0.138 A 
ATOM      6  C   UNL     1       3.738  -7.844  -6.720  0.00  0.00    +0.093 A 
ATOM      7  O   UNL     1       4.258  -9.861  -7.849  0.00  0.00    -0.441 OA
ATOM      8  C   UNL     1       4.446 -10.496  -9.017  0.00  0.00    +0.199 C 
ATOM      9  C   UNL     1       5.053  -9.898 -10.069  0.00  0.00    +0.098 C 
ATOM     10  C   UNL     1       5.553  -8.483  -9.980  0.00  0.00    +0.102 C 
ENDROOT
BRANCH  10  11
ATOM     11  C   UNL     1       7.051  -8.492  -9.813  0.00  0.00    +0.010 A 
ATOM     12  C   UNL     1       7.620  -9.109  -8.716  0.00  0.00    +0.053 A 
ATOM     13  C   UNL     1       8.998  -9.118  -8.562  0.00  0.00    +0.121 A 
ATOM     14  C   UNL     1       9.805  -8.507  -9.511  0.00  0.00    +0.049 A 
ATOM     15  C   UNL     1       9.237  -7.890 -10.608  0.00  0.00    +0.049 A 
ATOM     16  C   UNL     1       7.858  -7.886 -10.764  0.00  0.00    +0.124 A 
BRANCH  16  17
ATOM     17  O   UNL     1       7.299  -7.284 -11.847  0.00  0.00    -0.495 OA
ATOM     18  C   UNL     1       8.190  -6.679 -12.786  0.00  0.00    +0.277 C 
ENDBRANCH  16  17
BRANCH  13  19
ATOM     19  O   UNL     1       9.558  -9.725  -7.482  0.00  0.00    -0.495 OA
ATOM     20  C   UNL     1      10.983  -9.695  -7.388  0.00  0.00    +0.277 C 
ENDBRANCH  13  19
ENDBRANCH  10  11
BRANCH   8  21
ATOM     21  N   UNL     1       4.009 -11.791  -9.149  0.00  0.00    -0.328 N 
ATOM     22  H   UNL     1       3.572 -12.234  -8.405  0.00  0.00    +0.145 HD
ATOM     23  H   UNL     1       4.137 -12.263  -9.987  0.00  0.00    +0.145 HD
ENDBRANCH   8  21
BRANCH   9  24
ATOM     24  C   UNL     1       5.223 -10.627 -11.289  0.00  0.00    +0.101 C 
ATOM     25  N   UNL     1       5.359 -11.206 -12.257  0.00  0.00    -0.191 NA
ENDBRANCH   9  24
BRANCH   1  26
ATOM     26  O   UNL     1       3.214  -5.812  -5.603  0.00  0.00    -0.423 OA
BRANCH  26  27
ATOM     27  C   UNL     1       2.017  -5.218  -5.790  0.00  0.00    +0.337 C 
ATOM     28  O   UNL     1       1.516  -5.197  -6.898  0.00  0.00    -0.245 OA
BRANCH  27  30
ATOM     29  C   UNL     1       0.145  -4.026  -4.883  0.00  0.00    +0.015 C 
ATOM     30  C   UNL     1       1.344  -4.620  -4.695  0.00  0.00    +0.092 C 
BRANCH  29  34
ATOM     31  C   UNL     1      -1.871  -2.237  -1.608  0.00  0.00    +0.120 A 
ATOM     32  C   UNL     1      -2.445  -2.210  -2.874  0.00  0.00    +0.046 A 
ATOM     33  C   UNL     1      -1.795  -2.789  -3.940  0.00  0.00    +0.011 A 
ATOM     34  C   UNL     1      -0.553  -3.406  -3.748  0.00  0.00    -0.025 A 
ATOM     35  C   UNL     1       0.021  -3.430  -2.472  0.00  0.00    +0.011 A 
ATOM     36  C   UNL     1      -0.635  -2.843  -1.413  0.00  0.00    +0.046 A 
BRANCH  31  38
ATOM     37  C   UNL     1      -3.782  -1.059  -0.830  0.00  0.00    +0.277 C 
ATOM     38  O   UNL     1      -2.516  -1.665  -0.560  0.00  0.00    -0.495 OA
ENDBRANCH  31  38
ENDBRANCH  29  34
ENDBRANCH  27  30
ENDBRANCH  26  27
ENDBRANCH   1  26
TORSDOF 10
