REMARK  Name = ZINC14000883
REMARK  5 active torsions:
REMARK  status: ('A' for Active; 'I' for Inactive)
REMARK    1  A    between atoms: C_3  and  O_25
REMARK    2  A    between atoms: C_6  and  C_7
REMARK    3  A    between atoms: N_17  and  C_18
REMARK    4  A    between atoms: O_25  and  C_26
REMARK    5  A    between atoms: C_26  and  C_27
REMARK                            x       y       z     vdW  Elec       q    Type
REMARK                         _______ _______ _______ _____ _____    ______ ____
ROOT
ATOM      1  C   UNL     1      -1.293  -0.774   0.011  0.00  0.00    +0.063 C 
ATOM      2  C   UNL     1      -1.350  -1.674   1.249  0.00  0.00    +0.109 C 
ATOM      3  C   UNL     1      -0.477  -2.885   1.088  0.00  0.00    +0.219 C 
ATOM      4  O   UNL     1       0.118  -3.310   2.056  0.00  0.00    -0.275 OA
ATOM      5  N   UNL     1      -0.331  -3.517  -0.096  0.00  0.00    -0.270 N 
ATOM      6  C   UNL     1      -0.910  -2.937  -1.224  0.00  0.00    +0.132 A 
ATOM      7  C   UNL     1      -1.374  -1.647  -1.215  0.00  0.00    +0.020 A 
ATOM      8  C   UNL     1      -1.883  -1.365  -2.474  0.00  0.00    +0.141 A 
ATOM      9  N   UNL     1      -1.742  -2.433  -3.224  0.00  0.00    -0.173 NA
ATOM     10  N   UNL     1      -1.129  -3.439  -2.457  0.00  0.00    -0.218 N 
ATOM     11  H   UNL     1       0.162  -4.350  -0.160  0.00  0.00    +0.156 HD
ENDROOT
BRANCH  10  12
ATOM     12  C   UNL     1      -0.806  -4.732  -2.893  0.00  0.00    +0.067 A 
ATOM     13  C   UNL     1       0.336  -5.362  -2.415  0.00  0.00    +0.029 A 
ATOM     14  C   UNL     1       0.652  -6.635  -2.846  0.00  0.00    +0.017 A 
ATOM     15  C   UNL     1      -0.168  -7.283  -3.753  0.00  0.00    +0.018 A 
ATOM     16  C   UNL     1      -1.306  -6.658  -4.230  0.00  0.00    +0.017 A 
ATOM     17  C   UNL     1      -1.630  -5.387  -3.798  0.00  0.00    +0.029 A 
ATOM     18 BR   UNL     1       0.269  -9.026  -4.342  0.00  0.00    -0.050 Br
ENDBRANCH  10  12
BRANCH   1  24
ATOM     19  C   UNL     1      -0.017   1.378   0.010  0.00  0.00    +0.008 A 
ATOM     20  C   UNL     1       1.169   2.087   0.002  0.00  0.00    +0.046 A 
ATOM     21  C   UNL     1       2.380   1.409  -0.013  0.00  0.00    +0.121 A 
ATOM     22  C   UNL     1       2.396   0.022  -0.021  0.00  0.00    +0.046 A 
ATOM     23  C   UNL     1       1.207  -0.681  -0.013  0.00  0.00    +0.008 A 
ATOM     24  C   UNL     1       0.002  -0.004   0.002  0.00  0.00    -0.039 A 
BRANCH  21  25
ATOM     25  O   UNL     1       3.548   2.104  -0.021  0.00  0.00    -0.483 OA
BRANCH  25  26
ATOM     26  C   UNL     1       4.756   1.341  -0.036  0.00  0.00    +0.324 C 
BRANCH  26  27
ATOM     27  C   UNL     1       5.940   2.274  -0.043  0.00  0.00    +0.248 C 
ATOM     28  O   UNL     1       5.766   3.474  -0.036  0.00  0.00    -0.272 OA
ATOM     29  N   UNL     1       7.192   1.774  -0.058  0.00  0.00    -0.327 N 
ATOM     30  H   UNL     1       7.331   0.814  -0.064  0.00  0.00    +0.145 HD
ATOM     31  H   UNL     1       7.953   2.375  -0.062  0.00  0.00    +0.145 HD
ENDBRANCH  26  27
ENDBRANCH  25  26
ENDBRANCH  21  25
ENDBRANCH   1  24
TORSDOF 5
