REMARK  Name = ZINC40066451
REMARK  11 active torsions:
REMARK  status: ('A' for Active; 'I' for Inactive)
REMARK    1  A    between atoms: C_1  and  C_2
REMARK    2  A    between atoms: C_2  and  N_3
REMARK    3  A    between atoms: C_4  and  N_29
REMARK    4  A    between atoms: C_5  and  C_13
REMARK    5  A    between atoms: C_6  and  C_12
REMARK    6  A    between atoms: C_7  and  C_10
REMARK    7  A    between atoms: N_17  and  C_21
REMARK    8  A    between atoms: C_21  and  C_22
REMARK    9  A    between atoms: C_25  and  C_28
REMARK   10  A    between atoms: N_29  and  C_30
REMARK   11  A    between atoms: C_30  and  C_31
REMARK                            x       y       z     vdW  Elec       q    Type
REMARK                         _______ _______ _______ _____ _____    ______ ____
ROOT
ATOM      1  N   UNL     1      -1.367  -0.486   0.067  0.00  0.00    -0.296 N 
ATOM      2  C   UNL     1      -1.929  -0.798   1.263  0.00  0.00    +0.109 A 
ATOM      3  C   UNL     1      -3.257  -1.253   1.329  0.00  0.00    +0.019 A 
ATOM      4  C   UNL     1      -4.003  -1.383   0.146  0.00  0.00    -0.017 A 
ATOM      5  C   UNL     1      -3.403  -1.056  -1.067  0.00  0.00    +0.120 A 
ATOM      6  C   UNL     1      -2.062  -0.597  -1.079  0.00  0.00    +0.270 A 
ATOM      7  O   UNL     1      -1.533  -0.304  -2.138  0.00  0.00    -0.266 OA
ATOM      8  C   UNL     1      -5.429  -1.868   0.189  0.00  0.00    +0.046 C 
ENDROOT
BRANCH   3   9
ATOM      9  C   UNL     1      -3.858  -1.589   2.622  0.00  0.00    +0.032 C 
ATOM     10  C   UNL     1      -3.902  -0.658   3.614  0.00  0.00    +0.077 C 
ATOM     11  C   UNL     1      -4.399  -0.775   4.947  0.00  0.00    +0.259 C 
ATOM     12  O   UNL     1      -4.875  -1.822   5.350  0.00  0.00    -0.269 OA
ATOM     13  N   UNL     1      -4.329   0.286   5.732  0.00  0.00    -0.251 N 
ATOM     14  C   UNL     1      -3.801   1.447   5.284  0.00  0.00    +0.121 C 
ATOM     15  S   UNL     1      -3.612   2.931   6.118  0.00  0.00    -0.027 S 
ATOM     16  S   UNL     1      -3.345   1.040   3.606  0.00  0.00    -0.061 S 
BRANCH  13  17
ATOM     17  C   UNL     1      -4.830   0.203   7.106  0.00  0.00    +0.150 C 
BRANCH  17  18
ATOM     18  C   UNL     1      -3.716  -0.239   8.020  0.00  0.00    -0.030 A 
ATOM     19  C   UNL     1      -3.508  -1.585   8.255  0.00  0.00    +0.005 A 
ATOM     20  C   UNL     1      -2.487  -1.990   9.094  0.00  0.00    +0.003 A 
ATOM     21  C   UNL     1      -1.674  -1.050   9.698  0.00  0.00    -0.050 A 
ATOM     22  C   UNL     1      -1.882   0.297   9.463  0.00  0.00    +0.003 A 
ATOM     23  C   UNL     1      -2.900   0.702   8.620  0.00  0.00    +0.005 A 
ATOM     24  C   UNL     1      -0.561  -1.491  10.613  0.00  0.00    +0.044 C 
ENDBRANCH  17  18
ENDBRANCH  13  17
ENDBRANCH   3   9
BRANCH   1  26
ATOM     25  C   UNL     1       0.054   1.494   0.276  0.00  0.00    +0.027 C 
ATOM     26  C   UNL     1       0.020  -0.015   0.025  0.00  0.00    +0.123 C 
ENDBRANCH   1  26
BRANCH   5  27
ATOM     27  C   UNL     1      -4.137  -1.177  -2.291  0.00  0.00    +0.105 C 
ATOM     28  N   UNL     1      -4.718  -1.274  -3.262  0.00  0.00    -0.191 NA
ENDBRANCH   5  27
BRANCH   2  29
ATOM     29  N   UNL     1      -1.200  -0.670   2.408  0.00  0.00    -0.326 N 
ATOM     30  H   UNL     1      -1.143   0.190   2.853  0.00  0.00    +0.148 HD
BRANCH  29  31
ATOM     31  C   UNL     1      -0.502  -1.831   2.966  0.00  0.00    +0.138 C 
BRANCH  31  32
ATOM     32  C   UNL     1       0.221  -1.426   4.225  0.00  0.00    -0.030 A 
ATOM     33  C   UNL     1       1.521  -0.962   4.156  0.00  0.00    +0.005 A 
ATOM     34  C   UNL     1       2.184  -0.590   5.311  0.00  0.00    +0.000 A 
ATOM     35  C   UNL     1       1.547  -0.682   6.534  0.00  0.00    +0.000 A 
ATOM     36  C   UNL     1       0.246  -1.146   6.602  0.00  0.00    +0.000 A 
ATOM     37  C   UNL     1      -0.418  -1.513   5.447  0.00  0.00    +0.005 A 
ENDBRANCH  31  32
ENDBRANCH  29  31
ENDBRANCH   2  29
TORSDOF 8
