REMARK  Name = ZINC01061956
REMARK  8 active torsions:
REMARK  status: ('A' for Active; 'I' for Inactive)
REMARK    1  A    between atoms: C_1  and  C_2
REMARK    2  A    between atoms: C_2  and  O_3
REMARK    3  A    between atoms: O_3  and  C_4
REMARK    4  A    between atoms: C_6  and  C_11
REMARK    5  A    between atoms: C_9  and  O_10
REMARK    6  A    between atoms: N_12  and  N_13
REMARK    7  A    between atoms: C_14  and  C_16
REMARK    8  A    between atoms: C_21  and  O_22
REMARK                            x       y       z     vdW  Elec       q    Type
REMARK                         _______ _______ _______ _____ _____    ______ ____
ROOT
ATOM      1  N   UNL     1      -2.441  -0.109   0.026  0.00  0.00    -0.203 N 
ATOM      2  C   UNL     1      -1.263  -0.763   0.011  0.00  0.00    +0.267 C 
ATOM      3  O   UNL     1      -1.242  -1.979   0.004  0.00  0.00    -0.268 OA
ATOM      4  H   UNL     1      -2.457   0.861   0.031  0.00  0.00    +0.178 HD
ENDROOT
BRANCH   2   5
ATOM      5  C   UNL     1       0.002  -0.004   0.002  0.00  0.00    +0.082 A 
ATOM      6  C   UNL     1      -0.017   1.393   0.010  0.00  0.00    +0.032 A 
ATOM      7  C   UNL     1       1.169   2.097   0.002  0.00  0.00    +0.020 A 
ATOM      8  C   UNL     1       2.381   1.424  -0.013  0.00  0.00    +0.034 A 
ATOM      9  C   UNL     1       2.413   0.044  -0.021  0.00  0.00    +0.061 A 
ATOM     10  C   UNL     1       1.229  -0.680  -0.013  0.00  0.00    +0.143 A 
ATOM     11 BR   UNL     1       4.073  -0.862  -0.041  0.00  0.00    -0.046 Br
ATOM     12 BR   UNL     1       1.141   3.988   0.013  0.00  0.00    -0.050 Br
BRANCH  10  13
ATOM     13  O   UNL     1       1.260  -2.037  -0.021  0.00  0.00    -0.505 OA
ATOM     14  H   UNL     1       1.260  -2.425  -0.906  0.00  0.00    +0.292 HD
ENDBRANCH  10  13
ENDBRANCH   2   5
BRANCH   1  16
ATOM     15  C   UNL     1      -4.777  -0.200   0.048  0.00  0.00    +0.138 C 
ATOM     16  N   UNL     1      -3.642  -0.830   0.034  0.00  0.00    -0.187 NA
BRANCH  15  19
ATOM     17  C   UNL     1      -8.446  -0.998   0.080  0.00  0.00    +0.162 A 
ATOM     18  C   UNL     1      -7.264  -0.282   0.073  0.00  0.00    +0.059 A 
ATOM     19  C   UNL     1      -6.041  -0.958   0.057  0.00  0.00    -0.002 A 
ATOM     20  C   UNL     1      -6.020  -2.355   0.043  0.00  0.00    +0.013 A 
ATOM     21  C   UNL     1      -7.203  -3.063   0.056  0.00  0.00    +0.050 A 
ATOM     22  C   UNL     1      -8.417  -2.391   0.072  0.00  0.00    +0.158 A 
BRANCH  22  23
ATOM     23  O   UNL     1      -9.581  -3.093   0.080  0.00  0.00    -0.503 OA
ATOM     24  H   UNL     1      -9.926  -3.292  -0.801  0.00  0.00    +0.292 HD
ENDBRANCH  22  23
BRANCH  17  25
ATOM     25  O   UNL     1      -9.638  -0.343   0.095  0.00  0.00    -0.489 OA
BRANCH  25  27
ATOM     26  C   UNL     1     -11.018   1.641   0.120  0.00  0.00    +0.048 C 
ATOM     27  C   UNL     1      -9.593   1.086   0.103  0.00  0.00    +0.226 C 
ENDBRANCH  25  27
ENDBRANCH  17  25
ENDBRANCH  15  19
ENDBRANCH   1  16
TORSDOF 7
