REMARK  Name = ZINC65291953
REMARK  8 active torsions:
REMARK  status: ('A' for Active; 'I' for Inactive)
REMARK    1  A    between atoms: C_1  and  C_2
REMARK    2  A    between atoms: C_2  and  N_3
REMARK    3  A    between atoms: C_7  and  C_9
REMARK    4  A    between atoms: C_9  and  N_10
REMARK    5  A    between atoms: C_11  and  C_13
REMARK    6  A    between atoms: C_14  and  C_30
REMARK    7  A    between atoms: N_19  and  C_22
REMARK    8  A    between atoms: C_22  and  C_23
REMARK                            x       y       z     vdW  Elec       q    Type
REMARK                         _______ _______ _______ _____ _____    ______ ____
ROOT
ATOM      1  C   UNL     1       5.049  -1.180   1.146  0.00  0.00    +0.079 A 
ATOM      2  C   UNL     1       5.250  -1.638   2.419  0.00  0.00    +0.114 A 
ATOM      3  O   UNL     1       5.947  -0.717   3.097  0.00  0.00    -0.464 OA
ATOM      4  C   UNL     1       6.221   0.336   2.323  0.00  0.00    +0.106 A 
ATOM      5  C   UNL     1       5.701   0.125   1.098  0.00  0.00    -0.011 A 
ATOM      6  C   UNL     1       5.808   1.097  -0.044  0.00  0.00    -0.038 C 
ATOM      7  N   UNL     1       6.188   2.413   0.499  0.00  0.00    +0.385 N 
ATOM      8  C   UNL     1       7.375   2.282   1.354  0.00  0.00    -0.070 C 
ATOM      9  C   UNL     1       6.987   1.591   2.672  0.00  0.00    +0.056 C 
ATOM     10  C   UNL     1       4.767  -2.956   2.966  0.00  0.00    +0.087 C 
ATOM     11  H   UNL     1       5.423   2.784   1.042  0.00  0.00    -0.081 HD
ENDROOT
BRANCH   1  13
ATOM     12  N   UNL     1       3.009  -1.663  -0.111  0.00  0.00    -0.313 N 
ATOM     13  C   UNL     1       4.332  -1.861   0.053  0.00  0.00    +0.248 C 
ATOM     14  O   UNL     1       4.934  -2.603  -0.700  0.00  0.00    -0.270 OA
ATOM     15  H   UNL     1       2.529  -1.071   0.489  0.00  0.00    +0.149 HD
BRANCH  12  16
ATOM     16  C   UNL     1       2.296  -2.340  -1.197  0.00  0.00    +0.089 C 
BRANCH  16  21
ATOM     17  N   UNL     1       0.690  -0.478  -1.207  0.00  0.00    +0.382 N 
ATOM     18  C   UNL     1      -0.098  -0.111  -2.403  0.00  0.00    -0.078 C 
ATOM     19  C   UNL     1       0.088  -1.300  -3.378  0.00  0.00    -0.020 C 
ATOM     20  C   UNL     1       0.095  -2.507  -2.403  0.00  0.00    -0.016 C 
ATOM     21  C   UNL     1       0.818  -1.946  -1.161  0.00  0.00    -0.051 C 
ATOM     22  H   UNL     1       1.606  -0.058  -1.264  0.00  0.00    -0.081 HD
BRANCH  17  24
ATOM     23  C   UNL     1      -0.019   1.526   0.010  0.00  0.00    -0.017 C 
ATOM     24  C   UNL     1       0.002  -0.004   0.002  0.00  0.00    -0.082 C 
ENDBRANCH  17  24
ENDBRANCH  16  21
ENDBRANCH  12  16
ENDBRANCH   1  13
BRANCH   7  25
ATOM     25  C   UNL     1       6.486   3.330  -0.609  0.00  0.00    -0.043 C 
BRANCH  25  26
ATOM     26  C   UNL     1       6.755   4.708  -0.062  0.00  0.00    -0.064 A 
ATOM     27  C   UNL     1       5.713   5.603   0.101  0.00  0.00    +0.004 A 
ATOM     28  C   UNL     1       5.959   6.866   0.603  0.00  0.00    +0.038 A 
ATOM     29  C   UNL     1       7.249   7.237   0.943  0.00  0.00    +0.123 A 
ATOM     30  C   UNL     1       8.292   6.340   0.779  0.00  0.00    +0.038 A 
ATOM     31  C   UNL     1       8.043   5.075   0.282  0.00  0.00    +0.004 A 
ATOM     32  F   UNL     1       7.491   8.472   1.433  0.00  0.00    -0.205 F 
ENDBRANCH  25  26
ENDBRANCH   7  25
TORSDOF 6
