REMARK  Name = ZINC20687195
REMARK  9 active torsions:
REMARK  status: ('A' for Active; 'I' for Inactive)
REMARK    1  A    between atoms: C_1  and  C_2
REMARK    2  A    between atoms: C_5  and  C_9
REMARK    3  A    between atoms: C_6  and  C_8
REMARK    4  A    between atoms: C_9  and  C_11
REMARK    5  A    between atoms: C_13  and  C_36
REMARK    6  A    between atoms: N_16  and  C_35
REMARK    7  A    between atoms: N_24  and  C_27
REMARK    8  A    between atoms: C_27  and  C_28
REMARK    9  A    between atoms: C_33  and  C_34
REMARK                            x       y       z     vdW  Elec       q    Type
REMARK                         _______ _______ _______ _____ _____    ______ ____
ROOT
ATOM      1  C   UNL     1       2.421   1.817  -1.346  0.00  0.00    +0.071 C 
ATOM      2  C   UNL     1       1.056   1.231  -1.780  0.00  0.00    +0.049 C 
ATOM      3  C   UNL     1       0.753   1.992  -3.095  0.00  0.00    -0.065 C 
ATOM      4  N   UNL     1       2.090   2.121  -3.733  0.00  0.00    +0.391 N 
ATOM      5  C   UNL     1       3.031   2.386  -2.633  0.00  0.00    +0.051 C 
ATOM      6  C   UNL     1       3.307   3.859  -2.497  0.00  0.00    -0.027 A 
ATOM      7  C   UNL     1       2.507   4.950  -2.242  0.00  0.00    +0.004 A 
ATOM      8  C   UNL     1       3.063   6.215  -2.176  0.00  0.00    +0.000 A 
ATOM      9  C   UNL     1       4.423   6.380  -2.365  0.00  0.00    +0.002 A 
ATOM     10  C   UNL     1       5.228   5.289  -2.621  0.00  0.00    +0.024 A 
ATOM     11  C   UNL     1       4.676   4.011  -2.689  0.00  0.00    +0.039 A 
ATOM     12  N   UNL     1       5.271   2.772  -2.929  0.00  0.00    -0.268 N 
ATOM     13  C   UNL     1       4.376   1.766  -2.912  0.00  0.00    +0.215 C 
ATOM     14  O   UNL     1       4.608   0.589  -3.087  0.00  0.00    -0.276 OA
ATOM     15  C   UNL     1       2.103   3.216  -4.712  0.00  0.00    -0.094 C 
ATOM     16  H   UNL     1       2.371   1.216  -4.291  0.00  0.00    -0.080 HD
ENDROOT
BRANCH   2  17
ATOM     17  C   UNL     1       0.001   1.512  -0.741  0.00  0.00    +0.107 A 
ATOM     18  C   UNL     1      -0.741   0.589  -0.103  0.00  0.00    +0.045 A 
ATOM     19  C   UNL     1      -1.597   1.288   0.778  0.00  0.00    +0.041 A 
ATOM     20  C   UNL     1      -1.327   2.597   0.627  0.00  0.00    +0.195 A 
ATOM     21  O   UNL     1      -0.354   2.726  -0.290  0.00  0.00    -0.468 OA
ENDBRANCH   2  17
BRANCH   1  22
ATOM     22  C   UNL     1       3.303   0.733  -0.782  0.00  0.00    +0.167 C 
ATOM     23  O   UNL     1       3.147  -0.418  -1.132  0.00  0.00    -0.292 OA
BRANCH  22  28
ATOM     24  C   UNL     1       7.404   2.052   3.024  0.00  0.00    +0.044 C 
ATOM     25  C   UNL     1       6.329   1.706   2.026  0.00  0.00    -0.050 A 
ATOM     26  C   UNL     1       5.601   2.716   1.421  0.00  0.00    +0.004 A 
ATOM     27  C   UNL     1       4.620   2.408   0.503  0.00  0.00    +0.012 A 
ATOM     28  C   UNL     1       4.353   1.071   0.192  0.00  0.00    +0.021 A 
ATOM     29  C   UNL     1       5.093   0.056   0.807  0.00  0.00    -0.040 A 
ATOM     30  C   UNL     1       6.075   0.381   1.719  0.00  0.00    +0.007 A 
ATOM     31  C   UNL     1       4.818  -1.388   0.474  0.00  0.00    +0.044 C 
ENDBRANCH  22  28
ENDBRANCH   1  22
BRANCH  12  32
ATOM     32  C   UNL     1       6.704   2.586  -3.173  0.00  0.00    +0.149 C 
BRANCH  32  33
ATOM     33  C   UNL     1       6.987   2.743  -4.645  0.00  0.00    -0.027 A 
ATOM     34  C   UNL     1       5.979   3.136  -5.505  0.00  0.00    +0.005 A 
ATOM     35  C   UNL     1       6.239   3.280  -6.855  0.00  0.00    +0.000 A 
ATOM     36  C   UNL     1       7.508   3.031  -7.345  0.00  0.00    +0.000 A 
ATOM     37  C   UNL     1       8.516   2.639  -6.485  0.00  0.00    +0.003 A 
ATOM     38  C   UNL     1       8.257   2.499  -5.134  0.00  0.00    -0.046 A 
ATOM     39  C   UNL     1       9.357   2.076  -4.195  0.00  0.00    +0.044 C 
ENDBRANCH  32  33
ENDBRANCH  12  32
TORSDOF 5
