REMARK  Name = ZINC00670757
REMARK  7 active torsions:
REMARK  status: ('A' for Active; 'I' for Inactive)
REMARK    1  A    between atoms: C_1  and  C_2
REMARK    2  A    between atoms: C_2  and  C_3
REMARK    3  A    between atoms: C_2  and  C_4
REMARK    4  A    between atoms: C_2  and  C_5
REMARK    5  A    between atoms: C_12  and  N_17
REMARK    6  A    between atoms: C_13  and  C_14
REMARK    7  A    between atoms: C_18  and  C_20
REMARK                            x       y       z     vdW  Elec       q    Type
REMARK                         _______ _______ _______ _____ _____    ______ ____
ROOT
ATOM      1  C   UNL     1       6.724  -1.180  -0.446  0.00  0.00    -0.000 C 
ATOM      2  C   UNL     1       7.069   0.053   0.393  0.00  0.00    +0.009 C 
ATOM      3  C   UNL     1       6.211   1.240  -0.049  0.00  0.00    +0.037 C 
ATOM      4  C   UNL     1       4.747   0.818  -0.038  0.00  0.00    -0.023 A 
ATOM      5  C   UNL     1       4.399  -0.487  -0.042  0.00  0.00    -0.004 A 
ATOM      6  S   UNL     1       2.629  -0.485  -0.018  0.00  0.00    -0.077 S 
ATOM      7  C   UNL     1       2.352   1.226  -0.014  0.00  0.00    +0.085 A 
ATOM      8  C   UNL     1       3.636   1.754  -0.023  0.00  0.00    +0.068 A 
ATOM      9  C   UNL     1       5.321  -1.668  -0.057  0.00  0.00    +0.046 C 
ENDROOT
BRANCH   8  10
ATOM     10  C   UNL     1       3.862   3.203  -0.018  0.00  0.00    +0.244 C 
ATOM     11  O   UNL     1       3.966   3.798   1.038  0.00  0.00    -0.270 OA
ATOM     12  N   UNL     1       3.956   3.874  -1.183  0.00  0.00    -0.325 N 
ATOM     13  H   UNL     1       3.873   3.399  -2.024  0.00  0.00    +0.145 HD
ATOM     14  H   UNL     1       4.105   4.833  -1.179  0.00  0.00    +0.145 HD
ENDBRANCH   8  10
BRANCH   1  16
ATOM     15  C   UNL     1       7.389  -3.524  -1.002  0.00  0.00    +0.011 C 
ATOM     16  C   UNL     1       7.745  -2.287  -0.175  0.00  0.00    -0.035 C 
ATOM     17  C   UNL     1       9.142  -1.798  -0.564  0.00  0.00    +0.011 C 
ATOM     18  C   UNL     1       7.726  -2.645   1.312  0.00  0.00    +0.011 C 
ENDBRANCH   1  16
BRANCH   7  19
ATOM     19  N   UNL     1       1.143   1.902   0.001  0.00  0.00    -0.273 N 
ATOM     20  C   UNL     1      -0.014   1.212   0.009  0.00  0.00    +0.284 C 
ATOM     21  O   UNL     1       0.002  -0.004   0.002  0.00  0.00    -0.266 OA
ATOM     22  H   UNL     1       1.130   2.872   0.007  0.00  0.00    +0.156 HD
BRANCH  20  23
ATOM     23  C   UNL     1      -1.299   1.931   0.019  0.00  0.00    +0.194 A 
ATOM     24  C   UNL     1      -2.448   1.212   0.020  0.00  0.00    +0.060 A 
ATOM     25  C   UNL     1      -3.732   1.917   0.030  0.00  0.00    -0.007 A 
ATOM     26  C   UNL     1      -4.949   1.237   0.033  0.00  0.00    +0.009 A 
ATOM     27  C   UNL     1      -6.127   1.954   0.043  0.00  0.00    +0.001 A 
ATOM     28  C   UNL     1      -6.112   3.342   0.051  0.00  0.00    +0.001 A 
ATOM     29  C   UNL     1      -4.918   4.034   0.048  0.00  0.00    +0.015 A 
ATOM     30  C   UNL     1      -3.717   3.331   0.038  0.00  0.00    +0.067 A 
ATOM     31  C   UNL     1      -2.414   4.012   0.035  0.00  0.00    +0.345 A 
ATOM     32  O   UNL     1      -2.356   5.227   0.042  0.00  0.00    -0.245 OA
ATOM     33  O   UNL     1      -1.288   3.278   0.032  0.00  0.00    -0.417 OA
ENDBRANCH  20  23
ENDBRANCH   7  19
TORSDOF 4
