REMARK  Name = ZINC08443525
REMARK  9 active torsions:
REMARK  status: ('A' for Active; 'I' for Inactive)
REMARK    1  A    between atoms: C_1  and  S_2
REMARK    2  A    between atoms: S_2  and  C_3
REMARK    3  A    between atoms: C_9  and  C_10
REMARK    4  A    between atoms: C_9  and  O_32
REMARK    5  A    between atoms: C_10  and  S_11
REMARK    6  A    between atoms: S_11  and  C_12
REMARK    7  A    between atoms: C_13  and  C_30
REMARK    8  A    between atoms: C_14  and  C_24
REMARK    9  A    between atoms: C_16  and  C_18
REMARK                            x       y       z     vdW  Elec       q    Type
REMARK                         _______ _______ _______ _____ _____    ______ ____
ROOT
ATOM      1  C   UNL     1       5.977   2.124  -0.043  0.00  0.00    +0.116 A 
ATOM      2  C   UNL     1       6.037   3.529  -0.036  0.00  0.00    +0.091 A 
ATOM      3  C   UNL     1       4.831   4.262  -0.021  0.00  0.00    +0.004 A 
ATOM      4  C   UNL     1       3.630   3.554  -0.014  0.00  0.00    +0.038 A 
ATOM      5  C   UNL     1       3.659   2.163  -0.022  0.00  0.00    +0.073 A 
ATOM      6  N   UNL     1       4.810   1.501  -0.031  0.00  0.00    -0.239 NA
ENDROOT
BRANCH   5   7
ATOM      7  C   UNL     1       2.384   1.407  -0.014  0.00  0.00    +0.000 A 
ATOM      8  C   UNL     1       1.167   2.088   0.002  0.00  0.00    +0.010 A 
ATOM      9  C   UNL     1      -0.017   1.379   0.010  0.00  0.00    +0.001 A 
ATOM     10  C   UNL     1       0.002  -0.004   0.002  0.00  0.00    +0.000 A 
ATOM     11  C   UNL     1       1.206  -0.685  -0.013  0.00  0.00    +0.001 A 
ATOM     12  C   UNL     1       2.397   0.013  -0.021  0.00  0.00    +0.010 A 
ENDBRANCH   5   7
BRANCH   3  13
ATOM     13  C   UNL     1       4.841   5.744  -0.013  0.00  0.00    -0.017 A 
ATOM     14  C   UNL     1       5.625   6.433   0.911  0.00  0.00    +0.008 A 
ATOM     15  C   UNL     1       5.634   7.813   0.911  0.00  0.00    +0.001 A 
ATOM     16  C   UNL     1       4.858   8.512   0.003  0.00  0.00    +0.000 A 
ATOM     17  C   UNL     1       4.074   7.834  -0.913  0.00  0.00    +0.001 A 
ATOM     18  C   UNL     1       4.061   6.454  -0.925  0.00  0.00    +0.008 A 
ENDBRANCH   3  13
BRANCH   2  19
ATOM     19  C   UNL     1       7.300   4.205  -0.045  0.00  0.00    +0.102 C 
ATOM     20  N   UNL     1       8.301   4.740  -0.052  0.00  0.00    -0.191 NA
ENDBRANCH   2  19
BRANCH   1  21
ATOM     21  S   UNL     1       7.468   1.186  -0.062  0.00  0.00    -0.102 S 
BRANCH  21  22
ATOM     22  C   UNL     1       6.785  -0.490  -0.065  0.00  0.00    +0.111 C 
BRANCH  22  28
ATOM     23  C   UNL     1       7.356  -2.920   0.043  0.00  0.00    +0.079 C 
ATOM     24  C   UNL     1       6.582  -3.044   1.357  0.00  0.00    +0.017 C 
ATOM     25  C   UNL     1       7.523  -2.771   2.532  0.00  0.00    +0.001 C 
ATOM     26  C   UNL     1       8.095  -1.357   2.408  0.00  0.00    +0.003 C 
ATOM     27  C   UNL     1       8.870  -1.233   1.095  0.00  0.00    +0.037 C 
ATOM     28  C   UNL     1       7.929  -1.507  -0.080  0.00  0.00    +0.087 C 
BRANCH  23  30
ATOM     29  C   UNL     1       5.774  -4.985  -1.143  0.00  0.00    +0.084 C 
ATOM     30  S   UNL     1       6.240  -3.244  -1.350  0.00  0.00    -0.158 S 
ENDBRANCH  23  30
BRANCH  28  31
ATOM     31  O   UNL     1       8.652  -1.391  -1.307  0.00  0.00    -0.387 OA
ATOM     32  H   UNL     1       9.044  -0.519  -1.452  0.00  0.00    +0.210 HD
ENDBRANCH  28  31
ENDBRANCH  22  28
ENDBRANCH  21  22
ENDBRANCH   1  21
TORSDOF 8
