REMARK  Name = ZINC21226835
REMARK  6 active torsions:
REMARK  status: ('A' for Active; 'I' for Inactive)
REMARK    1  A    between atoms: C_1  and  C_2
REMARK    2  A    between atoms: C_2  and  C_3
REMARK    3  A    between atoms: C_3  and  O_4
REMARK    4  A    between atoms: O_4  and  C_5
REMARK    5  A    between atoms: C_8  and  C_11
REMARK    6  A    between atoms: C_22  and  C_25
REMARK                            x       y       z     vdW  Elec       q    Type
REMARK                         _______ _______ _______ _____ _____    ______ ____
ROOT
ATOM      1  C   UNL     1       1.322  -0.739  -0.009  0.00  0.00    +0.063 C 
ATOM      2  C   UNL     1       2.347   0.046   0.811  0.00  0.00    +0.109 C 
ATOM      3  C   UNL     1       2.314   1.492   0.387  0.00  0.00    +0.218 C 
ATOM      4  O   UNL     1       3.334   2.148   0.394  0.00  0.00    -0.275 OA
ATOM      5  N   UNL     1       1.157   2.057   0.002  0.00  0.00    -0.289 N 
ATOM      6  C   UNL     1      -0.016   1.345   0.009  0.00  0.00    +0.018 C 
ATOM      7  C   UNL     1       0.002  -0.004   0.002  0.00  0.00    +0.020 C 
ATOM      8  C   UNL     1      -1.187  -0.752   0.001  0.00  0.00    +0.162 C 
ATOM      9  O   UNL     1      -1.131  -1.965   0.006  0.00  0.00    -0.292 OA
ATOM     10  C   UNL     1      -2.531  -0.073  -0.008  0.00  0.00    +0.088 C 
ATOM     11  C   UNL     1      -2.396   1.289  -0.698  0.00  0.00    +0.032 C 
ATOM     12  C   UNL     1      -1.322   2.101   0.032  0.00  0.00    +0.059 C 
ATOM     13  H   UNL     1       1.139   3.106  -0.326  0.00  0.00    +0.155 HD
ENDROOT
BRANCH  11  14
ATOM     14  C   UNL     1      -3.712   2.020  -0.635  0.00  0.00    -0.042 A 
ATOM     15  C   UNL     1      -4.355   2.388  -1.803  0.00  0.00    +0.005 A 
ATOM     16  C   UNL     1      -5.562   3.058  -1.747  0.00  0.00    +0.022 A 
ATOM     17  C   UNL     1      -6.128   3.363  -0.521  0.00  0.00    +0.059 A 
ATOM     18  C   UNL     1      -5.484   2.995   0.648  0.00  0.00    +0.060 A 
ATOM     19  C   UNL     1      -4.279   2.318   0.590  0.00  0.00    +0.025 A 
ATOM     20 CL   UNL     1      -6.193   3.376   2.186  0.00  0.00    -0.082 Cl
ATOM     21 CL   UNL     1      -7.644   4.206  -0.450  0.00  0.00    -0.082 Cl
ENDBRANCH  11  14
BRANCH   1  25
ATOM     22  C   UNL     1       2.705  -1.125  -4.033  0.00  0.00    +0.121 A 
ATOM     23  C   UNL     1       2.463  -2.258  -3.270  0.00  0.00    +0.046 A 
ATOM     24  C   UNL     1       2.016  -2.131  -1.970  0.00  0.00    +0.008 A 
ATOM     25  C   UNL     1       1.810  -0.875  -1.428  0.00  0.00    -0.039 A 
ATOM     26  C   UNL     1       2.045   0.255  -2.188  0.00  0.00    +0.008 A 
ATOM     27  C   UNL     1       2.498   0.133  -3.488  0.00  0.00    +0.046 A 
BRANCH  22  28
ATOM     28  O   UNL     1       3.146  -1.248  -5.313  0.00  0.00    -0.492 OA
BRANCH  28  29
ATOM     29  C   UNL     1       3.374  -0.039  -6.040  0.00  0.00    +0.229 C 
BRANCH  29  31
ATOM     30  C   UNL     1       4.108   0.919  -8.227  0.00  0.00    +0.007 C 
ATOM     31  C   UNL     1       3.863  -0.376  -7.450  0.00  0.00    +0.038 C 
ENDBRANCH  29  31
ENDBRANCH  28  29
ENDBRANCH  22  28
ENDBRANCH   1  25
TORSDOF 5
