REMARK  Name = ZINC19538848
REMARK  6 active torsions:
REMARK  status: ('A' for Active; 'I' for Inactive)
REMARK    1  A    between atoms: C_4  and  C_7
REMARK    2  A    between atoms: C_7  and  C_8
REMARK    3  A    between atoms: C_8  and  C_10
REMARK    4  A    between atoms: C_8  and  N_16
REMARK    5  A    between atoms: N_16  and  C_17
REMARK    6  A    between atoms: C_17  and  C_18
REMARK                            x       y       z     vdW  Elec       q    Type
REMARK                         _______ _______ _______ _____ _____    ______ ____
ROOT
ATOM      1  N   UNL     1       3.752   5.485  -0.002  0.00  0.00    -0.302 NA
ATOM      2  H   UNL     1       3.125   5.446   0.901  0.00  0.00    +0.123 HD
ENDROOT
BRANCH   1   3
ATOM      3  C   UNL     1       4.534   6.729  -0.002  0.00  0.00    +0.089 C 
BRANCH   3   4
ATOM      4  C   UNL     1       4.894   7.096  -1.419  0.00  0.00    -0.030 A 
ATOM      5  C   UNL     1       3.970   6.923  -2.433  0.00  0.00    +0.005 A 
ATOM      6  C   UNL     1       4.299   7.264  -3.732  0.00  0.00    +0.000 A 
ATOM      7  C   UNL     1       5.554   7.769  -4.018  0.00  0.00    +0.000 A 
ATOM      8  C   UNL     1       6.478   7.937  -3.004  0.00  0.00    +0.000 A 
ATOM      9  C   UNL     1       6.149   7.600  -1.704  0.00  0.00    +0.005 A 
ENDBRANCH   3   4
BRANCH   3  10
ATOM     10  C   UNL     1       3.704   7.853   0.622  0.00  0.00    +0.058 C 
BRANCH  10  14
ATOM     11  C   UNL     1       2.979   6.974   4.739  0.00  0.00    +0.000 A 
ATOM     12  C   UNL     1       4.103   7.692   4.372  0.00  0.00    +0.000 A 
ATOM     13  C   UNL     1       4.337   7.976   3.040  0.00  0.00    +0.004 A 
ATOM     14  C   UNL     1       3.449   7.543   2.074  0.00  0.00    -0.046 A 
ATOM     15  C   UNL     1       2.323   6.830   2.441  0.00  0.00    +0.004 A 
ATOM     16  C   UNL     1       2.091   6.541   3.772  0.00  0.00    +0.000 A 
ENDBRANCH  10  14
ENDBRANCH   3  10
ENDBRANCH   1   3
BRANCH   1  17
ATOM     17  C   UNL     1       4.632   4.309  -0.016  0.00  0.00    +0.156 C 
BRANCH  17  18
ATOM     18  C   UNL     1       3.796   3.056  -0.016  0.00  0.00    +0.125 A 
ATOM     19  N   UNL     1       4.410   1.845  -0.028  0.00  0.00    -0.309 N 
ATOM     20  H   UNL     1       5.509   1.786  -0.039  0.00  0.00    +0.170 HD
ATOM     21  C   UNL     1       3.702   0.700  -0.029  0.00  0.00    +0.260 A 
ATOM     22  O   UNL     1       4.267  -0.380  -0.039  0.00  0.00    -0.267 OA
ATOM     23  C   UNL     1       2.271   0.775  -0.015  0.00  0.00    +0.075 A 
ATOM     24  C   UNL     1       1.305  -0.334  -0.013  0.00  0.00    -0.023 A 
ATOM     25  C   UNL     1       0.002  -0.004   0.002  0.00  0.00    -0.004 A 
ATOM     26  S   UNL     1      -0.022   1.774   0.012  0.00  0.00    -0.073 S 
ATOM     27  C   UNL     1       1.727   2.066  -0.003  0.00  0.00    +0.116 A 
ATOM     28  N   UNL     1       2.493   3.154  -0.004  0.00  0.00    -0.225 NA
ATOM     29  C   UNL     1      -0.890  -1.216   0.007  0.00  0.00    +0.043 C 
ATOM     30  C   UNL     1       0.036  -2.377   0.430  0.00  0.00    +0.010 C 
ATOM     31  C   UNL     1       1.415  -1.861  -0.025  0.00  0.00    +0.037 C 
ENDBRANCH  17  18
ENDBRANCH   1  17
TORSDOF 6
