REMARK  Name = ZINC05393750
REMARK  5 active torsions:
REMARK  status: ('A' for Active; 'I' for Inactive)
REMARK    1  A    between atoms: C_1  and  N_2
REMARK    2  A    between atoms: N_2  and  C_3
REMARK    3  A    between atoms: N_2  and  C_4
REMARK    4  A    between atoms: C_7  and  C_10
REMARK    5  A    between atoms: C_13  and  C_21
REMARK                            x       y       z     vdW  Elec       q    Type
REMARK                         _______ _______ _______ _____ _____    ______ ____
ROOT
ATOM      1  C   UNL     1      -0.006  -2.813  -4.924  0.00  0.00    +0.132 C 
ATOM      2  C   UNL     1      -1.443  -2.945  -5.455  0.00  0.00    +0.084 C 
ATOM      3  C   UNL     1      -1.868  -1.710  -6.185  0.00  0.00    +0.049 C 
ATOM      4  N   UNL     1      -1.125  -0.755  -6.596  0.00  0.00    -0.246 NA
ATOM      5  C   UNL     1       0.314  -0.706  -6.367  0.00  0.00    +0.300 C 
ATOM      6  N   UNL     1       0.737  -2.058  -5.935  0.00  0.00    -0.206 N 
ATOM      7  N   UNL     1       1.841  -2.393  -6.702  0.00  0.00    -0.173 NA
ATOM      8  C   UNL     1       2.022  -1.534  -7.645  0.00  0.00    +0.204 C 
ATOM      9  N   UNL     1       1.077  -0.489  -7.600  0.00  0.00    -0.296 N 
ATOM     10  H   UNL     1       0.950   0.224  -8.246  0.00  0.00    +0.151 HD
ENDROOT
BRANCH   1  14
ATOM     11  C   UNL     1      -0.003  -0.696  -1.211  0.00  0.00    +0.029 A 
ATOM     12  C   UNL     1      -0.446  -0.070  -2.369  0.00  0.00    +0.023 A 
ATOM     13  C   UNL     1      -0.445  -0.756  -3.567  0.00  0.00    +0.007 A 
ATOM     14  C   UNL     1      -0.005  -2.066  -3.615  0.00  0.00    -0.025 A 
ATOM     15  C   UNL     1       0.437  -2.693  -2.464  0.00  0.00    +0.007 A 
ATOM     16  C   UNL     1       0.445  -2.010  -1.264  0.00  0.00    +0.023 A 
BRANCH  11  18
ATOM     17  C   UNL     1       0.472  -0.665   1.221  0.00  0.00    +0.129 C 
ATOM     18  N   UNL     1      -0.001  -0.005   0.002  0.00  0.00    -0.336 N 
ATOM     19  C   UNL     1      -0.473   1.381   0.056  0.00  0.00    +0.129 C 
ENDBRANCH  11  18
ENDBRANCH   1  14
BRANCH   3  20
ATOM     20  C   UNL     1      -3.312  -1.580  -6.462  0.00  0.00    -0.004 A 
ATOM     21  C   UNL     1      -4.199  -2.574  -6.043  0.00  0.00    +0.010 A 
ATOM     22  C   UNL     1      -5.547  -2.446  -6.305  0.00  0.00    +0.001 A 
ATOM     23  C   UNL     1      -6.021  -1.336  -6.982  0.00  0.00    +0.000 A 
ATOM     24  C   UNL     1      -5.148  -0.347  -7.399  0.00  0.00    +0.001 A 
ATOM     25  C   UNL     1      -3.798  -0.459  -7.138  0.00  0.00    +0.010 A 
ENDBRANCH   3  20
TORSDOF 3
