REMARK  Name = ZINC43741929
REMARK  9 active torsions:
REMARK  status: ('A' for Active; 'I' for Inactive)
REMARK    1  A    between atoms: C_1  and  C_2
REMARK    2  A    between atoms: C_3  and  C_4
REMARK    3  A    between atoms: C_4  and  O_39
REMARK    4  A    between atoms: C_9  and  C_38
REMARK    5  A    between atoms: C_11  and  C_29
REMARK    6  A    between atoms: C_19  and  O_24
REMARK    7  A    between atoms: C_32  and  N_35
REMARK    8  A    between atoms: N_35  and  C_36
REMARK    9  A    between atoms: N_35  and  C_37
REMARK                            x       y       z     vdW  Elec       q    Type
REMARK                         _______ _______ _______ _____ _____    ______ ____
ROOT
ATOM      1  C   UNL     1       0.160  -3.635   0.412  0.00  0.00    +0.132 C 
ATOM      2  C   UNL     1       0.504  -4.384   1.719  0.00  0.00    +0.049 C 
ATOM      3  C   UNL     1      -0.784  -5.138   2.138  0.00  0.00    +0.008 C 
ATOM      4  C   UNL     1      -1.579  -5.217   0.819  0.00  0.00    +0.006 C 
ATOM      5  C   UNL     1      -1.375  -3.807   0.231  0.00  0.00    +0.012 C 
ATOM      6  C   UNL     1      -2.074  -2.770   1.086  0.00  0.00    +0.023 C 
ATOM      7  C   UNL     1      -3.523  -3.055   1.437  0.00  0.00    +0.046 C 
ATOM      8  C   UNL     1      -3.930  -4.496   1.441  0.00  0.00    -0.057 C 
ATOM      9  C   UNL     1      -5.165  -4.826   1.790  0.00  0.00    -0.038 C 
ATOM     10  C   UNL     1      -6.192  -3.708   1.878  0.00  0.00    +0.039 C 
ATOM     11  C   UNL     1      -7.469  -4.114   1.133  0.00  0.00    +0.069 C 
ATOM     12  C   UNL     1      -7.975  -5.435   1.715  0.00  0.00    +0.173 C 
ATOM     13  C   UNL     1      -6.962  -6.529   1.378  0.00  0.00    +0.104 C 
ATOM     14  C   UNL     1      -5.621  -6.227   2.050  0.00  0.00    +0.092 C 
ATOM     15  C   UNL     1      -4.620  -7.304   1.661  0.00  0.00    +0.040 C 
ATOM     16  C   UNL     1      -3.191  -6.812   1.888  0.00  0.00    +0.011 C 
ATOM     17  C   UNL     1      -3.010  -5.586   0.993  0.00  0.00    +0.019 C 
ATOM     18  O   UNL     1      -9.252  -5.762   1.152  0.00  0.00    -0.346 OA
ATOM     19  C   UNL     1     -10.008  -6.348   2.239  0.00  0.00    +0.191 C 
ATOM     20  C   UNL     1      -9.499  -5.533   3.454  0.00  0.00    +0.191 C 
ATOM     21  O   UNL     1      -8.111  -5.314   3.137  0.00  0.00    -0.346 OA
ATOM     22  C   UNL     1      -1.782  -3.738  -1.238  0.00  0.00    +0.015 C 
ENDROOT
BRANCH   7  23
ATOM     23  C   UNL     1      -3.719  -2.488   2.819  0.00  0.00    -0.040 A 
ATOM     24  C   UNL     1      -3.235  -3.171   3.920  0.00  0.00    +0.006 A 
ATOM     25  C   UNL     1      -3.413  -2.653   5.188  0.00  0.00    +0.023 A 
ATOM     26  C   UNL     1      -4.078  -1.446   5.357  0.00  0.00    +0.029 A 
ATOM     27  C   UNL     1      -4.562  -0.762   4.249  0.00  0.00    +0.023 A 
ATOM     28  C   UNL     1      -4.377  -1.282   2.983  0.00  0.00    +0.006 A 
BRANCH  26  29
ATOM     29  N   UNL     1      -4.260  -0.920   6.638  0.00  0.00    -0.336 N 
ATOM     30  C   UNL     1      -3.748  -1.642   7.806  0.00  0.00    +0.129 C 
ATOM     31  C   UNL     1      -4.961   0.354   6.814  0.00  0.00    +0.129 C 
ENDBRANCH  26  29
ENDBRANCH   7  23
BRANCH   1  34
ATOM     32  C   UNL     1       1.249   0.322   0.660  0.00  0.00    +0.106 C 
ATOM     33  C   UNL     1       0.859  -1.095   0.571  0.00  0.00    -0.103 C 
ATOM     34  C   UNL     1       0.548  -2.225   0.500  0.00  0.00    -0.067 C 
ENDBRANCH   1  34
BRANCH  14  35
ATOM     35  O   UNL     1      -5.816  -6.349   3.469  0.00  0.00    -0.384 OA
ATOM     36  H   UNL     1      -6.114  -7.224   3.752  0.00  0.00    +0.211 HD
ENDBRANCH  14  35
BRANCH   1  37
ATOM     37  O   UNL     1       0.844  -4.257  -0.685  0.00  0.00    -0.376 OA
ATOM     38  H   UNL     1       1.808  -4.223  -0.618  0.00  0.00    +0.211 HD
ENDBRANCH   1  37
TORSDOF 5
