REMARK  Name = ZINC09206655
REMARK  10 active torsions:
REMARK  status: ('A' for Active; 'I' for Inactive)
REMARK    1  A    between atoms: C_1  and  C_2
REMARK    2  A    between atoms: C_2  and  C_3
REMARK    3  A    between atoms: C_3  and  C_5
REMARK    4  A    between atoms: C_3  and  N_6
REMARK    5  A    between atoms: N_6  and  S_7
REMARK    6  A    between atoms: S_7  and  C_10
REMARK    7  A    between atoms: C_13  and  N_16
REMARK    8  A    between atoms: N_16  and  C_17
REMARK    9  A    between atoms: C_17  and  N_19
REMARK   10  A    between atoms: C_20  and  C_22
REMARK                            x       y       z     vdW  Elec       q    Type
REMARK                         _______ _______ _______ _____ _____    ______ ____
ROOT
ATOM      1  N   UNL     1      -4.697  -0.836   0.042  0.00  0.00    -0.297 N 
ATOM      2  H   UNL     1      -3.945  -0.964  -0.557  0.00  0.00    +0.154 HD
ENDROOT
BRANCH   1   6
ATOM      3  C   UNL     1      -7.734  -3.683   0.206  0.00  0.00    +0.105 A 
ATOM      4  C   UNL     1      -8.052  -2.338   0.140  0.00  0.00    +0.030 A 
ATOM      5  C   UNL     1      -7.047  -1.392   0.086  0.00  0.00    +0.025 A 
ATOM      6  C   UNL     1      -5.717  -1.792   0.097  0.00  0.00    +0.033 A 
ATOM      7  C   UNL     1      -5.402  -3.143   0.156  0.00  0.00    +0.025 A 
ATOM      8  C   UNL     1      -6.411  -4.084   0.217  0.00  0.00    +0.030 A 
BRANCH   3   9
ATOM      9  S   UNL     1      -9.019  -4.887   0.276  0.00  0.00    +0.059 S 
ATOM     10  O   UNL     1      -8.459  -6.043   0.882  0.00  0.00    -0.153 OA
ATOM     11  O   UNL     1     -10.163  -4.229   0.803  0.00  0.00    -0.153 OA
BRANCH   9  12
ATOM     12  N   UNL     1      -9.388  -5.301  -1.284  0.00  0.00    -0.187 NA
ATOM     13  H   UNL     1     -10.263  -5.094  -1.647  0.00  0.00    +0.148 HD
BRANCH  12  14
ATOM     14  C   UNL     1      -8.392  -5.980  -2.116  0.00  0.00    +0.073 C 
ATOM     15  C   UNL     1      -8.615  -7.492  -2.048  0.00  0.00    +0.025 C 
BRANCH  14  17
ATOM     16  C   UNL     1      -8.186  -4.021  -3.653  0.00  0.00    +0.005 C 
ATOM     17  C   UNL     1      -8.531  -5.509  -3.565  0.00  0.00    +0.017 C 
ENDBRANCH  14  17
ENDBRANCH  12  14
ENDBRANCH   9  12
ENDBRANCH   3   9
ENDBRANCH   1   6
BRANCH   1  18
ATOM     18  C   UNL     1      -4.760   0.262   0.820  0.00  0.00    +0.141 C 
ATOM     19  S   UNL     1      -6.139   0.542   1.796  0.00  0.00    -0.018 S 
BRANCH  18  20
ATOM     20  N   UNL     1      -3.738   1.140   0.831  0.00  0.00    -0.263 N 
ATOM     21  C   UNL     1      -3.801   2.239   1.609  0.00  0.00    +0.258 C 
ATOM     22  O   UNL     1      -4.781   2.437   2.302  0.00  0.00    -0.269 OA
ATOM     23  H   UNL     1      -2.957   0.982   0.278  0.00  0.00    +0.157 HD
BRANCH  21  24
ATOM     24  C   UNL     1      -2.688   3.195   1.621  0.00  0.00    +0.094 A 
ATOM     25  C   UNL     1      -2.569   4.349   2.333  0.00  0.00    +0.068 A 
ATOM     26  C   UNL     1      -1.409   5.136   2.203  0.00  0.00    +0.008 A 
ATOM     27  C   UNL     1      -1.100   6.358   2.853  0.00  0.00    +0.010 A 
ATOM     28  C   UNL     1       0.075   6.995   2.613  0.00  0.00    +0.001 A 
ATOM     29  C   UNL     1       1.016   6.479   1.729  0.00  0.00    +0.001 A 
ATOM     30  C   UNL     1       0.756   5.292   1.076  0.00  0.00    +0.016 A 
ATOM     31  C   UNL     1      -0.433   4.635   1.309  0.00  0.00    +0.021 A 
ATOM     32  S   UNL     1      -1.158   3.131   0.705  0.00  0.00    -0.082 S 
ATOM     33 CL   UNL     1      -3.844   4.850   3.399  0.00  0.00    -0.082 Cl
ENDBRANCH  21  24
ENDBRANCH  18  20
ENDBRANCH   1  18
TORSDOF 8
