REMARK  Name = ZINC00849993
REMARK  7 active torsions:
REMARK  status: ('A' for Active; 'I' for Inactive)
REMARK    1  A    between atoms: C_1  and  C_2
REMARK    2  A    between atoms: C_2  and  C_3
REMARK    3  A    between atoms: C_3  and  N_54
REMARK    4  A    between atoms: C_6  and  C_7
REMARK    5  A    between atoms: C_16  and  C_24
REMARK    6  A    between atoms: C_18  and  C_22
REMARK    7  A    between atoms: C_19  and  N_21
REMARK                            x       y       z     vdW  Elec       q    Type
REMARK                         _______ _______ _______ _____ _____    ______ ____
ROOT
ATOM      1  C   UNL     1       0.003   1.532  -0.015  0.00  0.00    -0.039 C 
ATOM      2  C   UNL     1       1.319   2.254  -0.218  0.00  0.00    -0.021 C 
ATOM      3  C   UNL     1       1.858   3.007   0.756  0.00  0.00    +0.013 C 
ATOM      4  C   UNL     1       1.988   2.100  -1.527  0.00  0.00    +0.130 C 
ATOM      5  C   UNL     1       1.546   1.184  -2.390  0.00  0.00    -0.031 C 
ATOM      6  C   UNL     1       0.358   0.312  -2.071  0.00  0.00    -0.042 C 
ATOM      7  C   UNL     1       2.232   0.999  -3.722  0.00  0.00    +0.092 C 
ATOM      8  C   UNL     1       3.068   2.202  -4.053  0.00  0.00    +0.098 C 
ATOM      9  C   UNL     1       3.429   3.081  -3.084  0.00  0.00    +0.199 C 
ATOM     10  O   UNL     1       3.047   2.896  -1.809  0.00  0.00    -0.441 OA
ATOM     11  N   UNL     1       0.168   0.190  -0.617  0.00  0.00    +0.385 N 
ATOM     12  H   UNL     1       0.996  -0.260  -0.208  0.00  0.00    -0.081 HD
ENDROOT
BRANCH   3  13
ATOM     13  C   UNL     1       3.244   3.491   0.631  0.00  0.00    -0.025 A 
ATOM     14  C   UNL     1       4.252   2.628   0.193  0.00  0.00    +0.008 A 
ATOM     15  C   UNL     1       5.546   3.090   0.073  0.00  0.00    +0.001 A 
ATOM     16  C   UNL     1       5.850   4.401   0.397  0.00  0.00    +0.000 A 
ATOM     17  C   UNL     1       4.858   5.259   0.837  0.00  0.00    +0.001 A 
ATOM     18  C   UNL     1       3.558   4.814   0.957  0.00  0.00    +0.008 A 
ENDBRANCH   3  13
BRANCH   7  19
ATOM     19  C   UNL     1       3.114  -0.222  -3.663  0.00  0.00    -0.035 A 
ATOM     20  C   UNL     1       4.147  -0.284  -2.747  0.00  0.00    +0.004 A 
ATOM     21  C   UNL     1       4.954  -1.405  -2.690  0.00  0.00    +0.000 A 
ATOM     22  C   UNL     1       4.733  -2.460  -3.556  0.00  0.00    +0.000 A 
ATOM     23  C   UNL     1       3.703  -2.396  -4.475  0.00  0.00    +0.000 A 
ATOM     24  C   UNL     1       2.894  -1.276  -4.529  0.00  0.00    +0.004 A 
ENDBRANCH   7  19
BRANCH   9  25
ATOM     25  N   UNL     1       4.193   4.173  -3.412  0.00  0.00    -0.328 N 
ATOM     26  H   UNL     1       4.393   4.845  -2.740  0.00  0.00    +0.145 HD
ATOM     27  H   UNL     1       4.534   4.274  -4.314  0.00  0.00    +0.145 HD
ENDBRANCH   9  25
BRANCH   8  28
ATOM     28  C   UNL     1       3.489   2.423  -5.403  0.00  0.00    +0.101 C 
ATOM     29  N   UNL     1       3.823   2.599  -6.475  0.00  0.00    -0.191 NA
ENDBRANCH   8  28
BRANCH  11  30
ATOM     30  C   UNL     1      -1.023  -0.643  -0.333  0.00  0.00    -0.078 C 
BRANCH  30  32
ATOM     31  C   UNL     1      -3.475  -0.934  -0.710  0.00  0.00    +0.002 C 
ATOM     32  C   UNL     1      -2.259  -0.058  -1.017  0.00  0.00    -0.022 C 
ENDBRANCH  30  32
ENDBRANCH  11  30
TORSDOF 6
