REMARK  Name = ZINC13786262
REMARK  10 active torsions:
REMARK  status: ('A' for Active; 'I' for Inactive)
REMARK    1  A    between atoms: C_1  and  O_2
REMARK    2  A    between atoms: O_2  and  C_3
REMARK    3  A    between atoms: C_6  and  C_11
REMARK    4  A    between atoms: C_8  and  O_9
REMARK    5  A    between atoms: O_9  and  C_10
REMARK    6  A    between atoms: C_19  and  O_35
REMARK    7  A    between atoms: C_22  and  C_23
REMARK    8  A    between atoms: C_22  and  N_65
REMARK    9  A    between atoms: N_25  and  C_26
REMARK   10  A    between atoms: C_29  and  N_32
REMARK                            x       y       z     vdW  Elec       q    Type
REMARK                         _______ _______ _______ _____ _____    ______ ____
ROOT
ATOM      1  C   UNL     1       1.836   5.873   0.468  0.00  0.00    -0.031 C 
ATOM      2  C   UNL     1       3.129   6.670   0.651  0.00  0.00    +0.011 C 
ATOM      3  C   UNL     1       2.811   8.071   1.175  0.00  0.00    +0.005 C 
ATOM      4  C   UNL     1       4.116   8.849   1.361  0.00  0.00    +0.000 C 
ATOM      5  C   UNL     1       4.847   8.954   0.021  0.00  0.00    +0.003 C 
ATOM      6  C   UNL     1       5.155   7.552  -0.509  0.00  0.00    +0.035 C 
ATOM      7  C   UNL     1       3.845   6.785  -0.697  0.00  0.00    +0.066 C 
ATOM      8  C   UNL     1       4.134   5.380  -1.231  0.00  0.00    +0.016 C 
ATOM      9  C   UNL     1       2.816   4.612  -1.359  0.00  0.00    -0.075 C 
ATOM     10  N   UNL     1       2.177   4.522  -0.028  0.00  0.00    +0.390 N 
ATOM     11  H   UNL     1       2.834   4.083   0.627  0.00  0.00    -0.080 HD
ENDROOT
BRANCH   1  15
ATOM     12  C   UNL     1      -0.708   7.896  -2.311  0.00  0.00    +0.161 A 
ATOM     13  C   UNL     1      -0.285   6.602  -2.570  0.00  0.00    +0.049 A 
ATOM     14  C   UNL     1       0.538   5.951  -1.670  0.00  0.00    +0.006 A 
ATOM     15  C   UNL     1       0.940   6.588  -0.510  0.00  0.00    -0.057 A 
ATOM     16  C   UNL     1       0.517   7.877  -0.244  0.00  0.00    +0.051 A 
ATOM     17  C   UNL     1      -0.303   8.537  -1.145  0.00  0.00    +0.162 A 
BRANCH  12  19
ATOM     18  C   UNL     1      -1.893   7.818  -4.372  0.00  0.00    +0.277 C 
ATOM     19  O   UNL     1      -1.517   8.537  -3.196  0.00  0.00    -0.491 OA
ENDBRANCH  12  19
BRANCH  17  20
ATOM     20  O   UNL     1      -0.716   9.807  -0.887  0.00  0.00    -0.491 OA
ATOM     21  C   UNL     1      -0.261  10.402   0.330  0.00  0.00    +0.277 C 
ENDBRANCH  17  20
ENDBRANCH   1  15
BRANCH   7  22
ATOM     22  O   UNL     1       3.011   7.485  -1.623  0.00  0.00    -0.388 OA
ATOM     23  H   UNL     1       3.401   7.588  -2.502  0.00  0.00    +0.210 HD
ENDBRANCH   7  22
BRANCH  10  24
ATOM     24  C   UNL     1       0.957   3.693  -0.110  0.00  0.00    +0.020 C 
BRANCH  24  25
ATOM     25  C   UNL     1       1.364   2.249  -0.260  0.00  0.00    +0.201 C 
ATOM     26  O   UNL     1       2.539   1.953  -0.310  0.00  0.00    -0.278 OA
ATOM     27  N   UNL     1       0.422   1.288  -0.338  0.00  0.00    -0.287 N 
ATOM     28  H   UNL     1      -0.515   1.531  -0.387  0.00  0.00    +0.155 HD
BRANCH  27  29
ATOM     29  C   UNL     1       0.798  -0.060  -0.353  0.00  0.00    +0.033 A 
ATOM     30  C   UNL     1      -0.027  -1.005  -0.948  0.00  0.00    +0.025 A 
ATOM     31  C   UNL     1       0.349  -2.334  -0.965  0.00  0.00    +0.034 A 
ATOM     32  C   UNL     1       1.540  -2.725  -0.382  0.00  0.00    +0.126 A 
ATOM     33  C   UNL     1       2.361  -1.787   0.217  0.00  0.00    +0.034 A 
ATOM     34  C   UNL     1       1.994  -0.455   0.233  0.00  0.00    +0.025 A 
BRANCH  32  35
ATOM     35  N   UNL     1       1.938  -4.151  -0.398  0.00  0.00    +0.056 N 
ATOM     36  O   UNL     1       2.986  -4.496   0.116  0.00  0.00    -0.126 OA
ATOM     37  O   UNL     1       1.215  -4.978  -0.924  0.00  0.00    -0.126 OA
ENDBRANCH  32  35
ENDBRANCH  27  29
ENDBRANCH  24  25
ENDBRANCH  10  24
TORSDOF 8
