REMARK  Name = ZINC02238444
REMARK  6 active torsions:
REMARK  status: ('A' for Active; 'I' for Inactive)
REMARK    1  A    between atoms: C_4  and  N_23
REMARK    2  A    between atoms: C_5  and  N_7
REMARK    3  A    between atoms: N_7  and  C_8
REMARK    4  A    between atoms: C_8  and  N_10
REMARK    5  A    between atoms: C_11  and  C_13
REMARK    6  A    between atoms: C_14  and  C_15
REMARK                            x       y       z     vdW  Elec       q    Type
REMARK                         _______ _______ _______ _____ _____    ______ ____
ROOT
ATOM      1  C   UNL     1      -3.751  -0.615  -2.788  0.00  0.00    +0.141 C 
ATOM      2  S   UNL     1      -3.406  -1.744  -4.028  0.00  0.00    -0.018 S 
ENDROOT
BRANCH   1   3
ATOM      3  N   UNL     1      -5.003  -0.511  -2.300  0.00  0.00    -0.264 N 
ATOM      4  C   UNL     1      -5.984  -1.297  -2.788  0.00  0.00    +0.242 C 
ATOM      5  O   UNL     1      -5.738  -2.099  -3.670  0.00  0.00    -0.270 OA
ATOM      6  H   UNL     1      -5.199   0.128  -1.598  0.00  0.00    +0.157 HD
BRANCH   4   7
ATOM      7  C   UNL     1      -7.342  -1.185  -2.259  0.00  0.00    +0.068 C 
ATOM      8  C   UNL     1      -8.324  -1.971  -2.748  0.00  0.00    +0.014 C 
BRANCH   8   9
ATOM      9  C   UNL     1      -9.690  -1.858  -2.216  0.00  0.00    -0.006 A 
ATOM     10  C   UNL     1      -9.975  -0.941  -1.199  0.00  0.00    +0.011 A 
ATOM     11  C   UNL     1     -11.259  -0.837  -0.709  0.00  0.00    +0.020 A 
ATOM     12  C   UNL     1     -12.265  -1.646  -1.213  0.00  0.00    +0.042 A 
ATOM     13  C   UNL     1     -11.991  -2.560  -2.216  0.00  0.00    +0.040 A 
ATOM     14  C   UNL     1     -10.711  -2.672  -2.721  0.00  0.00    +0.049 A 
ATOM     15 CL   UNL     1     -10.369  -3.820  -3.977  0.00  0.00    -0.083 Cl
ATOM     16 CL   UNL     1     -13.877  -1.511  -0.584  0.00  0.00    -0.083 Cl
ENDBRANCH   8   9
ENDBRANCH   4   7
ENDBRANCH   1   3
BRANCH   1  17
ATOM     17  N   UNL     1      -2.771   0.170  -2.300  0.00  0.00    -0.295 N 
ATOM     18  H   UNL     1      -2.948   0.756  -1.547  0.00  0.00    +0.154 HD
BRANCH  17  23
ATOM     19  C   UNL     1       0.329  -1.094  -3.825  0.00  0.00    +0.002 A 
ATOM     20  C   UNL     1       1.026   0.083  -4.028  0.00  0.00    +0.002 A 
ATOM     21  C   UNL     1       0.467   1.293  -3.663  0.00  0.00    +0.025 A 
ATOM     22  C   UNL     1      -0.793   1.329  -3.084  0.00  0.00    +0.051 A 
ATOM     23  C   UNL     1      -1.495   0.141  -2.880  0.00  0.00    +0.054 A 
ATOM     24  C   UNL     1      -0.929  -1.068  -3.253  0.00  0.00    +0.025 A 
BRANCH  22  25
ATOM     25  N   UNL     1      -1.359   2.552  -2.710  0.00  0.00    -0.328 N 
ATOM     26  C   UNL     1      -2.650   2.777  -3.410  0.00  0.00    +0.105 C 
ATOM     27  C   UNL     1      -2.872   4.304  -3.341  0.00  0.00    +0.020 C 
ATOM     28  C   UNL     1      -1.458   4.903  -3.167  0.00  0.00    +0.020 C 
ATOM     29  C   UNL     1      -0.506   3.688  -3.144  0.00  0.00    +0.105 C 
ENDBRANCH  22  25
ENDBRANCH  17  23
ENDBRANCH   1  17
TORSDOF 6
