REMARK  Name = ZINC20074977
REMARK  10 active torsions:
REMARK  status: ('A' for Active; 'I' for Inactive)
REMARK    1  A    between atoms: C_1  and  C_2
REMARK    2  A    between atoms: C_5  and  N_9
REMARK    3  A    between atoms: N_9  and  C_10
REMARK    4  A    between atoms: C_10  and  C_11
REMARK    5  A    between atoms: N_13  and  N_14
REMARK    6  A    between atoms: C_15  and  C_16
REMARK    7  A    between atoms: C_18  and  N_30
REMARK    8  A    between atoms: C_21  and  N_22
REMARK    9  A    between atoms: N_22  and  C_23
REMARK   10  A    between atoms: N_22  and  C_24
REMARK                            x       y       z     vdW  Elec       q    Type
REMARK                         _______ _______ _______ _____ _____    ______ ____
ROOT
ATOM      1  N   UNL     1      -0.966   1.736  -3.578  0.00  0.00    -0.188 NA
ATOM      2  C   UNL     1      -0.530   1.435  -4.763  0.00  0.00    +0.140 C 
ENDROOT
BRANCH   2   3
ATOM      3  C   UNL     1      -1.242   1.923  -5.957  0.00  0.00    +0.018 A 
ATOM      4  C   UNL     1      -0.773   1.607  -7.233  0.00  0.00    +0.044 A 
ATOM      5  C   UNL     1      -1.448   2.061  -8.347  0.00  0.00    +0.127 A 
ATOM      6  C   UNL     1      -2.583   2.841  -8.205  0.00  0.00    +0.034 A 
ATOM      7  C   UNL     1      -3.056   3.168  -6.949  0.00  0.00    +0.026 A 
ATOM      8  C   UNL     1      -2.393   2.714  -5.817  0.00  0.00    +0.039 A 
BRANCH   5   9
ATOM      9  N   UNL     1      -0.953   1.719  -9.699  0.00  0.00    +0.056 N 
ATOM     10  O   UNL     1      -1.544   2.124 -10.684  0.00  0.00    -0.126 OA
ATOM     11  O   UNL     1       0.046   1.033  -9.826  0.00  0.00    -0.126 OA
ENDBRANCH   5   9
BRANCH   8  12
ATOM     12  N   UNL     1      -2.868   3.042  -4.549  0.00  0.00    -0.329 N 
ATOM     13  C   UNL     1      -4.197   2.460  -4.319  0.00  0.00    +0.129 C 
BRANCH  12  14
ATOM     14  C   UNL     1      -2.890   4.497  -4.355  0.00  0.00    +0.073 C 
ATOM     15  C   UNL     1      -1.472   5.053  -4.506  0.00  0.00    +0.022 C 
ATOM     16  C   UNL     1      -1.495   6.570  -4.304  0.00  0.00    +0.002 C 
ATOM     17  C   UNL     1      -2.021   6.889  -2.903  0.00  0.00    +0.000 C 
ATOM     18  C   UNL     1      -3.439   6.334  -2.752  0.00  0.00    +0.002 C 
ATOM     19  C   UNL     1      -3.416   4.817  -2.954  0.00  0.00    +0.022 C 
ENDBRANCH  12  14
ENDBRANCH   8  12
ENDBRANCH   2   3
BRANCH   1  22
ATOM     20  C   UNL     1      -0.742   1.585  -1.213  0.00  0.00    +0.249 C 
ATOM     21  O   UNL     1      -1.736   2.268  -1.088  0.00  0.00    -0.272 OA
ATOM     22  N   UNL     1      -0.288   1.272  -2.443  0.00  0.00    -0.206 N 
ATOM     23  H   UNL     1       0.614   0.653  -2.556  0.00  0.00    +0.177 HD
BRANCH  20  24
ATOM     24  C   UNL     1      -0.013   1.086   0.008  0.00  0.00    +0.199 C 
BRANCH  24  25
ATOM     25  N   UNL     1      -0.698   1.558   1.213  0.00  0.00    -0.334 N 
ATOM     26  H   UNL     1      -1.602   2.179   1.124  0.00  0.00    +0.147 HD
BRANCH  25  31
ATOM     27  C   UNL     1       1.308   0.187   6.338  0.00  0.00    +0.044 C 
ATOM     28  C   UNL     1       0.774   0.551   4.977  0.00  0.00    -0.049 A 
ATOM     29  C   UNL     1       1.422   0.105   3.840  0.00  0.00    +0.005 A 
ATOM     30  C   UNL     1       0.937   0.437   2.590  0.00  0.00    +0.024 A 
ATOM     31  C   UNL     1      -0.204   1.220   2.476  0.00  0.00    +0.042 A 
ATOM     32  C   UNL     1      -0.850   1.673   3.620  0.00  0.00    +0.039 A 
ATOM     33  C   UNL     1      -0.362   1.331   4.867  0.00  0.00    +0.020 A 
ATOM     34 BR   UNL     1      -2.400   2.746   3.471  0.00  0.00    -0.048 Br
ENDBRANCH  25  31
ENDBRANCH  24  25
ENDBRANCH  20  24
ENDBRANCH   1  22
TORSDOF 8
