REMARK  Name = ZINC41069901
REMARK  4 active torsions:
REMARK  status: ('A' for Active; 'I' for Inactive)
REMARK    1  A    between atoms: C_6  and  S_7
REMARK    2  A    between atoms: S_7  and  N_10
REMARK    3  A    between atoms: N_10  and  C_11
REMARK    4  A    between atoms: N_17  and  N_18
REMARK                            x       y       z     vdW  Elec       q    Type
REMARK                         _______ _______ _______ _____ _____    ______ ____
ROOT
ATOM      1  C   UNL     1       0.405  -1.474   1.738  0.00  0.00    +0.048 A 
ATOM      2  C   UNL     1       1.587  -0.897   2.187  0.00  0.00    +0.038 A 
ATOM      3  C   UNL     1       2.041   0.264   1.593  0.00  0.00    +0.128 A 
ATOM      4  N   UNL     1       1.367   0.829   0.608  0.00  0.00    -0.236 NA
ATOM      5  C   UNL     1       0.237   0.310   0.153  0.00  0.00    +0.159 A 
ATOM      6  C   UNL     1      -0.278  -0.859   0.705  0.00  0.00    +0.147 A 
ATOM      7  N   UNL     1      -0.440   0.938  -0.886  0.00  0.00    -0.266 N 
ATOM      8 BR   UNL     1       2.564  -1.693   3.597  0.00  0.00    -0.049 Br
ATOM      9  H   UNL     1      -1.253   0.547  -1.242  0.00  0.00    +0.167 HD
ENDROOT
BRANCH   6  10
ATOM     10  S   UNL     1      -1.782  -1.546   0.095  0.00  0.00    +0.062 S 
ATOM     11  O   UNL     1      -2.003  -2.748   0.821  0.00  0.00    -0.153 OA
ATOM     12  O   UNL     1      -2.729  -0.488   0.066  0.00  0.00    -0.153 OA
BRANCH  10  13
ATOM     13  N   UNL     1      -1.516  -1.987  -1.479  0.00  0.00    -0.187 NA
ATOM     14  H   UNL     1      -2.002  -1.548  -2.194  0.00  0.00    +0.148 HD
BRANCH  13  15
ATOM     15  C   UNL     1      -0.545  -3.039  -1.791  0.00  0.00    +0.077 C 
ATOM     16  C   UNL     1       0.539  -2.477  -2.712  0.00  0.00    +0.020 C 
ATOM     17  C   UNL     1       1.552  -3.576  -3.038  0.00  0.00    +0.002 C 
ATOM     18  C   UNL     1       0.840  -4.735  -3.739  0.00  0.00    +0.000 C 
ATOM     19  C   UNL     1      -0.245  -5.298  -2.817  0.00  0.00    +0.002 C 
ATOM     20  C   UNL     1      -1.258  -4.198  -2.491  0.00  0.00    +0.020 C 
ENDBRANCH  13  15
ENDBRANCH  10  13
ENDBRANCH   6  10
BRANCH   7  21
ATOM     21  N   UNL     1       0.039   2.108  -1.405  0.00  0.00    -0.255 NA
ATOM     22  H   UNL     1      -0.555   2.444  -2.148  0.00  0.00    +0.140 HD
ATOM     23  H   UNL     1       0.146   2.806  -0.684  0.00  0.00    +0.140 HD
ENDBRANCH   7  21
TORSDOF 4
