REMARK  Name = ZINC21712620
REMARK  7 active torsions:
REMARK  status: ('A' for Active; 'I' for Inactive)
REMARK    1  A    between atoms: C_4  and  C_7
REMARK    2  A    between atoms: C_20  and  C_21
REMARK    3  A    between atoms: C_21  and  O_23
REMARK    4  A    between atoms: O_23  and  C_24
REMARK    5  A    between atoms: C_24  and  C_25
REMARK    6  A    between atoms: C_25  and  C_26
REMARK    7  A    between atoms: C_26  and  C_27
REMARK                            x       y       z     vdW  Elec       q    Type
REMARK                         _______ _______ _______ _____ _____    ______ ____
ROOT
ATOM      1  C   UNL     1      -2.437  -0.606   0.021  0.00  0.00    +0.013 C 
ATOM      2  C   UNL     1      -1.161  -0.947   0.270  0.00  0.00    -0.021 C 
ATOM      3  C   UNL     1      -0.665  -2.333   0.602  0.00  0.00    +0.042 C 
ATOM      4  C   UNL     1       0.851  -2.192   0.794  0.00  0.00    +0.043 C 
ATOM      5  C   UNL     1       1.173  -0.735   0.568  0.00  0.00    -0.007 A 
ATOM      6  C   UNL     1      -0.004  -0.030   0.266  0.00  0.00    +0.072 A 
ATOM      7  N   UNL     1       0.022   1.277   0.024  0.00  0.00    -0.247 NA
ATOM      8  C   UNL     1       1.141   1.996   0.051  0.00  0.00    +0.072 A 
ATOM      9  C   UNL     1       1.123   3.380  -0.211  0.00  0.00    +0.028 A 
ATOM     10  C   UNL     1       2.284   4.088  -0.176  0.00  0.00    +0.002 A 
ATOM     11  C   UNL     1       3.497   3.469   0.116  0.00  0.00    +0.001 A 
ATOM     12  C   UNL     1       3.554   2.130   0.372  0.00  0.00    +0.011 A 
ATOM     13  C   UNL     1       2.379   1.372   0.346  0.00  0.00    +0.015 A 
ATOM     14  C   UNL     1       2.388  -0.066   0.617  0.00  0.00    +0.073 A 
ENDROOT
BRANCH   1  18
ATOM     15  C   UNL     1      -5.414  -3.614  -0.288  0.00  0.00    +0.000 A 
ATOM     16  C   UNL     1      -5.712  -2.410   0.326  0.00  0.00    +0.001 A 
ATOM     17  C   UNL     1      -4.750  -1.428   0.430  0.00  0.00    +0.008 A 
ATOM     18  C   UNL     1      -3.470  -1.651  -0.086  0.00  0.00    -0.025 A 
ATOM     19  C   UNL     1      -3.178  -2.867  -0.710  0.00  0.00    +0.008 A 
ATOM     20  C   UNL     1      -4.149  -3.842  -0.801  0.00  0.00    +0.001 A 
ENDBRANCH   1  18
BRANCH  14  21
ATOM     21  C   UNL     1       3.643  -0.779   0.932  0.00  0.00    +0.340 C 
ATOM     22  O   UNL     1       4.307  -1.264   0.037  0.00  0.00    -0.245 OA
BRANCH  21  23
ATOM     23  O   UNL     1       4.052  -0.891   2.211  0.00  0.00    -0.461 OA
BRANCH  23  24
ATOM     24  C   UNL     1       5.295  -1.605   2.445  0.00  0.00    +0.233 C 
BRANCH  24  25
ATOM     25  C   UNL     1       5.593  -1.629   3.946  0.00  0.00    +0.056 C 
BRANCH  25  26
ATOM     26  C   UNL     1       6.903  -2.381   4.193  0.00  0.00    +0.122 C 
BRANCH  26  27
ATOM     27  C   UNL     1       7.190  -2.404   5.636  0.00  0.00    +0.063 C 
ATOM     28  N   UNL     1       7.412  -2.421   6.750  0.00  0.00    -0.197 NA
ENDBRANCH  26  27
ENDBRANCH  25  26
ENDBRANCH  24  25
ENDBRANCH  23  24
ENDBRANCH  21  23
ENDBRANCH  14  21
TORSDOF 7
