REMARK  Name = ZINC38656764
REMARK  12 active torsions:
REMARK  status: ('A' for Active; 'I' for Inactive)
REMARK    1  A    between atoms: C_1  and  O_2
REMARK    2  A    between atoms: O_2  and  C_3
REMARK    3  A    between atoms: C_7  and  C_9
REMARK    4  A    between atoms: C_9  and  O_11
REMARK    5  A    between atoms: O_11  and  C_12
REMARK    6  A    between atoms: C_19  and  N_35
REMARK    7  A    between atoms: C_20  and  C_33
REMARK    8  A    between atoms: C_21  and  C_23
REMARK    9  A    between atoms: C_26  and  O_31
REMARK   10  A    between atoms: C_28  and  O_29
REMARK   11  A    between atoms: O_29  and  C_30
REMARK   12  A    between atoms: O_31  and  C_32
REMARK                            x       y       z     vdW  Elec       q    Type
REMARK                         _______ _______ _______ _____ _____    ______ ____
ROOT
ATOM      1  C   UNL     1       2.039  -6.019  -3.461  0.00  0.00    +0.135 A 
ATOM      2  C   UNL     1       1.454  -6.840  -2.507  0.00  0.00    +0.047 A 
ATOM      3  C   UNL     1       1.564  -8.213  -2.617  0.00  0.00    +0.012 A 
ATOM      4  C   UNL     1       2.256  -8.774  -3.675  0.00  0.00    +0.008 A 
ATOM      5  C   UNL     1       2.843  -7.959  -4.631  0.00  0.00    +0.138 A 
ATOM      6  C   UNL     1       2.728  -6.579  -4.525  0.00  0.00    +0.093 A 
ATOM      7  O   UNL     1       3.526  -8.491  -5.674  0.00  0.00    -0.441 OA
ATOM      8  C   UNL     1       3.330  -9.774  -6.019  0.00  0.00    +0.199 C 
ATOM      9  C   UNL     1       2.783 -10.671  -5.165  0.00  0.00    +0.098 C 
ATOM     10  C   UNL     1       2.365 -10.273  -3.777  0.00  0.00    +0.101 C 
ENDROOT
BRANCH  10  11
ATOM     11  C   UNL     1       3.388 -10.767  -2.787  0.00  0.00    +0.007 A 
ATOM     12  C   UNL     1       4.695 -10.324  -2.865  0.00  0.00    +0.012 A 
ATOM     13  C   UNL     1       5.635 -10.775  -1.958  0.00  0.00    +0.046 A 
ATOM     14  C   UNL     1       5.269 -11.675  -0.967  0.00  0.00    +0.124 A 
ATOM     15  C   UNL     1       3.959 -12.120  -0.886  0.00  0.00    +0.091 A 
ATOM     16  C   UNL     1       3.016 -11.662  -1.794  0.00  0.00    +0.128 A 
BRANCH  16  17
ATOM     17  O   UNL     1       1.729 -12.092  -1.714  0.00  0.00    -0.495 OA
ATOM     18  C   UNL     1       1.417 -13.013  -0.666  0.00  0.00    +0.277 C 
ENDBRANCH  16  17
BRANCH  14  19
ATOM     19  O   UNL     1       6.194 -12.118  -0.076  0.00  0.00    -0.495 OA
ATOM     20  C   UNL     1       7.524 -11.618  -0.219  0.00  0.00    +0.277 C 
ENDBRANCH  14  19
ENDBRANCH  10  11
BRANCH   8  21
ATOM     21  N   UNL     1       3.695 -10.189  -7.276  0.00  0.00    -0.328 N 
ATOM     22  H   UNL     1       4.088  -9.559  -7.899  0.00  0.00    +0.145 HD
ATOM     23  H   UNL     1       3.560 -11.113  -7.540  0.00  0.00    +0.145 HD
ENDBRANCH   8  21
BRANCH   9  24
ATOM     24  C   UNL     1       2.599 -12.025  -5.591  0.00  0.00    +0.101 C 
ATOM     25  N   UNL     1       2.453 -13.100  -5.930  0.00  0.00    -0.191 NA
ENDBRANCH   9  24
BRANCH   1  26
ATOM     26  O   UNL     1       1.933  -4.669  -3.354  0.00  0.00    -0.422 OA
BRANCH  26  27
ATOM     27  C   UNL     1       2.719  -4.041  -2.459  0.00  0.00    +0.345 C 
ATOM     28  O   UNL     1       3.429  -4.688  -1.715  0.00  0.00    -0.245 OA
BRANCH  27  33
ATOM     29  C   UNL     1       3.527  -0.529  -1.389  0.00  0.00    +0.121 A 
ATOM     30  C   UNL     1       2.714   0.204  -2.242  0.00  0.00    +0.045 A 
ATOM     31  C   UNL     1       1.907  -0.442  -3.161  0.00  0.00    +0.004 A 
ATOM     32  C   UNL     1       1.904  -1.819  -3.236  0.00  0.00    +0.015 A 
ATOM     33  C   UNL     1       2.719  -2.566  -2.382  0.00  0.00    +0.063 A 
ATOM     34  C   UNL     1       3.537  -1.912  -1.459  0.00  0.00    +0.060 A 
BRANCH  29  36
ATOM     35  C   UNL     1       4.257   1.538  -0.470  0.00  0.00    +0.277 C 
ATOM     36  O   UNL     1       4.318   0.111  -0.487  0.00  0.00    -0.495 OA
ENDBRANCH  29  36
ENDBRANCH  27  33
ENDBRANCH  26  27
ENDBRANCH   1  26
TORSDOF 9
