REMARK  Name = ZINC20572364
REMARK  6 active torsions:
REMARK  status: ('A' for Active; 'I' for Inactive)
REMARK    1  A    between atoms: C_1  and  C_2
REMARK    2  A    between atoms: C_7  and  C_10
REMARK    3  A    between atoms: C_11  and  C_13
REMARK    4  A    between atoms: C_15  and  C_18
REMARK    5  A    between atoms: C_18  and  C_19
REMARK    6  A    between atoms: C_18  and  C_20
REMARK                            x       y       z     vdW  Elec       q    Type
REMARK                         _______ _______ _______ _____ _____    ______ ____
ROOT
ATOM      1  C   UNL     1     -10.631   1.470   1.969  0.00  0.00    +0.039 C 
ATOM      2  C   UNL     1      -9.205   0.955   2.172  0.00  0.00    +0.133 C 
ATOM      3  C   UNL     1      -8.279   1.583   1.124  0.00  0.00    +0.139 C 
ATOM      4  N   UNL     1      -6.962   0.935   1.221  0.00  0.00    -0.293 N 
ATOM      5  C   UNL     1      -6.911  -0.535   1.204  0.00  0.00    +0.139 C 
ATOM      6  C   UNL     1      -7.904  -1.060   2.254  0.00  0.00    +0.133 C 
ATOM      7  O   UNL     1      -9.184  -0.467   2.026  0.00  0.00    -0.371 OA
ATOM      8  C   UNL     1      -8.017  -2.581   2.133  0.00  0.00    +0.039 C 
ATOM      9  C   UNL     1      -5.834   1.667   1.316  0.00  0.00    +0.247 C 
ATOM     10  O   UNL     1      -5.901   2.876   1.435  0.00  0.00    -0.270 OA
ENDROOT
BRANCH   9  11
ATOM     11  C   UNL     1      -4.520   1.004   1.275  0.00  0.00    +0.044 A 
ATOM     12  C   UNL     1      -3.406   1.494   2.046  0.00  0.00    +0.024 A 
ATOM     13  C   UNL     1      -2.244   0.819   1.942  0.00  0.00    -0.007 A 
ATOM     14  S   UNL     1      -2.637  -0.485   0.794  0.00  0.00    -0.101 S 
ATOM     15  C   UNL     1      -4.302  -0.114   0.497  0.00  0.00    +0.058 A 
BRANCH  13  16
ATOM     16  C   UNL     1      -0.931   1.102   2.625  0.00  0.00    +0.020 C 
ATOM     17  C   UNL     1       0.147   1.359   1.571  0.00  0.00    +0.013 C 
ATOM     18  C   UNL     1      -0.531  -0.102   3.480  0.00  0.00    +0.013 C 
ENDBRANCH  13  16
ENDBRANCH   9  11
TORSDOF 2
