REMARK  Name = ZINC14935578
REMARK  10 active torsions:
REMARK  status: ('A' for Active; 'I' for Inactive)
REMARK    1  A    between atoms: C_4  and  C_7
REMARK    2  A    between atoms: C_7  and  C_8
REMARK    3  A    between atoms: C_8  and  C_10
REMARK    4  A    between atoms: C_8  and  N_24
REMARK    5  A    between atoms: N_12  and  N_13
REMARK    6  A    between atoms: C_14  and  C_16
REMARK    7  A    between atoms: C_16  and  C_17
REMARK    8  A    between atoms: C_25  and  O_27
REMARK    9  A    between atoms: O_27  and  C_28
REMARK   10  A    between atoms: C_28  and  C_29
REMARK                            x       y       z     vdW  Elec       q    Type
REMARK                         _______ _______ _______ _____ _____    ______ ____
ROOT
ATOM      1  C   UNL     1       2.422   1.185  -0.015  0.00  0.00    +0.168 C 
ENDROOT
BRANCH   1   2
ATOM      2  C   UNL     1       3.495   2.061   0.580  0.00  0.00    +0.250 C 
ATOM      3  O   UNL     1       3.219   3.173   0.979  0.00  0.00    -0.272 OA
ATOM      4  N   UNL     1       4.761   1.608   0.670  0.00  0.00    -0.233 N 
ATOM      5  H   UNL     1       4.982   0.719   0.351  0.00  0.00    +0.173 HD
BRANCH   4   6
ATOM      6  N   UNL     1       5.758   2.422   1.223  0.00  0.00    -0.234 N 
ATOM      7  C   UNL     1       7.025   1.969   1.312  0.00  0.00    +0.233 C 
ATOM      8  O   UNL     1       7.301   0.858   0.914  0.00  0.00    -0.274 OA
ATOM      9  H   UNL     1       5.537   3.311   1.541  0.00  0.00    +0.173 HD
BRANCH   7  10
ATOM     10  C   UNL     1       8.097   2.845   1.907  0.00  0.00    +0.132 C 
BRANCH  10  11
ATOM     11  C   UNL     1       9.413   2.109   1.891  0.00  0.00    -0.038 A 
ATOM     12  C   UNL     1       9.781   1.329   2.971  0.00  0.00    +0.005 A 
ATOM     13  C   UNL     1      10.985   0.649   2.954  0.00  0.00    +0.020 A 
ATOM     14  C   UNL     1      11.826   0.759   1.861  0.00  0.00    +0.041 A 
ATOM     15  C   UNL     1      11.459   1.545   0.782  0.00  0.00    +0.020 A 
ATOM     16  C   UNL     1      10.252   2.219   0.798  0.00  0.00    +0.005 A 
ATOM     17 CL   UNL     1      13.340  -0.088   1.841  0.00  0.00    -0.084 Cl
ENDBRANCH  10  11
ENDBRANCH   7  10
ENDBRANCH   4   6
ENDBRANCH   1   2
BRANCH   1  18
ATOM     18  N   UNL     1       1.143   1.901   0.001  0.00  0.00    -0.269 N 
ATOM     19  C   UNL     1      -0.014   1.211   0.009  0.00  0.00    +0.401 C 
ATOM     20  O   UNL     1       0.002  -0.004   0.002  0.00  0.00    -0.226 OA
ATOM     21  H   UNL     1       1.130   2.870   0.007  0.00  0.00    +0.153 HD
BRANCH  19  22
ATOM     22  O   UNL     1      -1.189   1.868   0.018  0.00  0.00    -0.446 OA
BRANCH  22  23
ATOM     23  C   UNL     1      -2.396   1.061   0.019  0.00  0.00    +0.269 C 
BRANCH  23  24
ATOM     24  C   UNL     1      -3.604   1.963   0.030  0.00  0.00    -0.010 A 
ATOM     25  C   UNL     1      -4.155   2.365   1.232  0.00  0.00    +0.007 A 
ATOM     26  C   UNL     1      -5.260   3.196   1.242  0.00  0.00    +0.000 A 
ATOM     27  C   UNL     1      -5.819   3.616   0.049  0.00  0.00    +0.000 A 
ATOM     28  C   UNL     1      -5.271   3.209  -1.153  0.00  0.00    +0.000 A 
ATOM     29  C   UNL     1      -4.163   2.383  -1.162  0.00  0.00    +0.007 A 
ENDBRANCH  23  24
ENDBRANCH  22  23
ENDBRANCH  19  22
ENDBRANCH   1  18
BRANCH   1  30
ATOM     30  C   UNL     1       2.792   0.835  -1.457  0.00  0.00    +0.067 C 
BRANCH  30  34
ATOM     31  C   UNL     1      -0.065  -1.924  -3.030  0.00  0.00    +0.000 A 
ATOM     32  C   UNL     1      -0.269  -0.564  -3.168  0.00  0.00    +0.000 A 
ATOM     33  C   UNL     1       0.655   0.329  -2.659  0.00  0.00    +0.004 A 
ATOM     34  C   UNL     1       1.784  -0.139  -2.012  0.00  0.00    -0.045 A 
ATOM     35  C   UNL     1       1.990  -1.499  -1.878  0.00  0.00    +0.004 A 
ATOM     36  C   UNL     1       1.063  -2.392  -2.382  0.00  0.00    +0.000 A 
ENDBRANCH  30  34
ENDBRANCH   1  30
TORSDOF 10
