REMARK  Name = ZINC04556134
REMARK  4 active torsions:
REMARK  status: ('A' for Active; 'I' for Inactive)
REMARK    1  A    between atoms: C_1  and  C_2
REMARK    2  A    between atoms: C_2  and  N_38
REMARK    3  A    between atoms: C_10  and  O_20
REMARK    4  A    between atoms: C_12  and  C_15
REMARK                            x       y       z     vdW  Elec       q    Type
REMARK                         _______ _______ _______ _____ _____    ______ ____
ROOT
ATOM      1  C   UNL     1      -3.584   6.693  -0.505  0.00  0.00    -0.074 C 
ATOM      2  C   UNL     1      -2.676   5.590  -1.054  0.00  0.00    +0.018 C 
ATOM      3  C   UNL     1      -2.178   4.753   0.120  0.00  0.00    -0.027 A 
ATOM      4  C   UNL     1      -2.259   5.243   1.381  0.00  0.00    -0.021 A 
ATOM      5  S   UNL     1      -1.591   3.964   2.408  0.00  0.00    -0.080 S 
ATOM      6  C   UNL     1      -1.222   2.814   1.196  0.00  0.00    +0.080 A 
ATOM      7  C   UNL     1      -1.606   3.427  -0.004  0.00  0.00    +0.067 A 
ATOM      8  C   UNL     1      -1.404   2.654  -1.256  0.00  0.00    +0.220 C 
ATOM      9  N   UNL     1      -0.698   1.559  -1.188  0.00  0.00    -0.222 NA
ATOM     10  C   UNL     1      -0.013   1.086   0.008  0.00  0.00    +0.230 C 
ATOM     11  N   UNL     1      -0.683   1.551   1.236  0.00  0.00    -0.313 N 
ATOM     12  C   UNL     1      -2.798   6.579   1.784  0.00  0.00    -0.035 C 
ATOM     13  H   UNL     1      -0.739   0.997   2.030  0.00  0.00    +0.149 HD
ATOM     14  N   UNL     1      -2.877   7.423   0.567  0.00  0.00    +0.383 N 
ATOM     15  H   UNL     1      -1.925   7.642   0.250  0.00  0.00    -0.081 HD
ENDROOT
BRANCH  10  16
ATOM     16  C   UNL     1       1.405   1.597  -0.003  0.00  0.00    +0.032 A 
ATOM     17  C   UNL     1       2.200   1.887  -1.062  0.00  0.00    +0.015 A 
ATOM     18  C   UNL     1       3.481   2.352  -0.831  0.00  0.00    +0.008 A 
ATOM     19  C   UNL     1       3.908   2.494   0.448  0.00  0.00    +0.045 A 
ATOM     20  S   UNL     1       2.476   1.970   1.376  0.00  0.00    -0.098 S 
ENDBRANCH  10  16
BRANCH  14  22
ATOM     21  C   UNL     1      -5.040   8.405   1.246  0.00  0.00    -0.017 C 
ATOM     22  C   UNL     1      -3.584   8.686   0.872  0.00  0.00    -0.082 C 
ENDBRANCH  14  22
BRANCH   8  23
ATOM     23  O   UNL     1      -1.935   3.071  -2.429  0.00  0.00    -0.492 OA
ATOM     24  H   UNL     1      -1.740   2.490  -3.178  0.00  0.00    +0.294 HD
ENDBRANCH   8  23
TORSDOF 3
