REMARK  Name = ZINC11024106
REMARK  9 active torsions:
REMARK  status: ('A' for Active; 'I' for Inactive)
REMARK    1  A    between atoms: C_1  and  C_2
REMARK    2  A    between atoms: C_2  and  C_3
REMARK    3  A    between atoms: C_2  and  C_4
REMARK    4  A    between atoms: C_2  and  C_5
REMARK    5  A    between atoms: C_8  and  C_11
REMARK    6  A    between atoms: C_13  and  C_25
REMARK    7  A    between atoms: C_15  and  C_20
REMARK    8  A    between atoms: C_15  and  O_24
REMARK    9  A    between atoms: C_25  and  C_27
REMARK                            x       y       z     vdW  Elec       q    Type
REMARK                         _______ _______ _______ _____ _____    ______ ____
ROOT
ATOM      1  C   UNL     1      -1.141   3.548  -0.562  0.00  0.00    +0.120 C 
ATOM      2  C   UNL     1      -0.712   2.340   0.277  0.00  0.00    +0.145 C 
ATOM      3  C   UNL     1      -1.239   2.524   1.704  0.00  0.00    +0.243 C 
ATOM      4  N   UNL     1      -0.764   3.805   2.229  0.00  0.00    -0.264 N 
ATOM      5  C   UNL     1      -0.515   4.843   1.417  0.00  0.00    +0.302 C 
ATOM      6  O   UNL     1      -0.132   5.888   1.906  0.00  0.00    -0.253 OA
ATOM      7  N   UNL     1      -0.672   4.774   0.087  0.00  0.00    -0.292 N 
ATOM      8  H   UNL     1      -0.627   3.905   3.184  0.00  0.00    +0.153 HD
ATOM      9  H   UNL     1      -0.470   5.552  -0.457  0.00  0.00    +0.151 HD
ENDROOT
BRANCH   1  13
ATOM     10  C   UNL     1       0.567   3.255  -4.467  0.00  0.00    -0.042 A 
ATOM     11  C   UNL     1      -0.700   2.755  -4.227  0.00  0.00    +0.004 A 
ATOM     12  C   UNL     1      -1.252   2.850  -2.963  0.00  0.00    +0.006 A 
ATOM     13  C   UNL     1      -0.538   3.445  -1.940  0.00  0.00    -0.026 A 
ATOM     14  C   UNL     1       0.726   3.950  -2.181  0.00  0.00    +0.006 A 
ATOM     15  C   UNL     1       1.280   3.851  -3.443  0.00  0.00    +0.004 A 
BRANCH  10  17
ATOM     16  C   UNL     1       0.282   3.895  -6.846  0.00  0.00    +0.015 C 
ATOM     17  C   UNL     1       1.169   3.152  -5.844  0.00  0.00    -0.013 C 
ATOM     18  C   UNL     1       2.566   3.777  -5.838  0.00  0.00    +0.015 C 
ATOM     19  C   UNL     1       1.271   1.679  -6.247  0.00  0.00    +0.015 C 
ENDBRANCH  10  17
ENDBRANCH   1  13
BRANCH   3  20
ATOM     20  C   UNL     1      -0.728   1.385   2.589  0.00  0.00    +0.436 C 
ATOM     21  F   UNL     1       0.671   1.398   2.604  0.00  0.00    -0.166 F 
ATOM     22  F   UNL     1      -1.210   1.555   3.891  0.00  0.00    -0.166 F 
ATOM     23  F   UNL     1      -1.178   0.162   2.081  0.00  0.00    -0.166 F 
ENDBRANCH   3  20
BRANCH   3  24
ATOM     24  O   UNL     1      -2.668   2.514   1.690  0.00  0.00    -0.364 OA
ATOM     25  H   UNL     1      -3.071   2.626   2.562  0.00  0.00    +0.212 HD
ENDBRANCH   3  24
BRANCH   2  26
ATOM     26  C   UNL     1       0.792   2.248   0.300  0.00  0.00    +0.179 C 
ATOM     27  O   UNL     1       1.458   3.243   0.506  0.00  0.00    -0.291 OA
BRANCH  26  28
ATOM     28  C   UNL     1       1.428   1.007   0.078  0.00  0.00    +0.055 A 
ATOM     29  C   UNL     1       2.787   0.710   0.047  0.00  0.00    +0.019 A 
ATOM     30  C   UNL     1       3.134  -0.594  -0.188  0.00  0.00    +0.008 A 
ATOM     31  C   UNL     1       2.154  -1.518  -0.388  0.00  0.00    +0.046 A 
ATOM     32  S   UNL     1       0.698  -0.589  -0.245  0.00  0.00    -0.094 S 
ENDBRANCH  26  28
ENDBRANCH   2  26
TORSDOF 6
