REMARK  Name = ZINC13063666
REMARK  13 active torsions:
REMARK  status: ('A' for Active; 'I' for Inactive)
REMARK    1  A    between atoms: C_1  and  C_2
REMARK    2  A    between atoms: C_2  and  C_3
REMARK    3  A    between atoms: C_10  and  C_15
REMARK    4  A    between atoms: C_15  and  N_76
REMARK    5  A    between atoms: C_16  and  C_17
REMARK    6  A    between atoms: C_16  and  N_76
REMARK    7  A    between atoms: C_22  and  O_23
REMARK    8  A    between atoms: O_23  and  C_24
REMARK    9  A    between atoms: C_25  and  C_27
REMARK   10  A    between atoms: C_25  and  C_29
REMARK   11  A    between atoms: C_25  and  N_76
REMARK   12  A    between atoms: C_27  and  C_28
REMARK   13  A    between atoms: N_33  and  C_34
REMARK                            x       y       z     vdW  Elec       q    Type
REMARK                         _______ _______ _______ _____ _____    ______ ____
ROOT
ATOM      1  N   UNL     1      -0.796   1.763   1.276  0.00  0.00    +0.392 N 
ATOM      2  H   UNL     1      -0.835   2.789   1.269  0.00  0.00    -0.080 HD
ENDROOT
BRANCH   1   3
ATOM      3  C   UNL     1      -0.194   1.297   0.009  0.00  0.00    -0.036 C 
BRANCH   3  11
ATOM      4  C   UNL     1      -0.478   5.878  -4.142  0.00  0.00    -0.047 A 
ATOM      5  C   UNL     1      -1.683   5.494  -4.715  0.00  0.00    +0.005 A 
ATOM      6  C   UNL     1      -2.354   4.380  -4.261  0.00  0.00    +0.026 A 
ATOM      7  C   UNL     1      -1.821   3.630  -3.217  0.00  0.00    +0.049 A 
ATOM      8  C   UNL     1      -0.599   4.022  -2.639  0.00  0.00    -0.001 A 
ATOM      9  C   UNL     1       0.065   5.157  -3.117  0.00  0.00    +0.013 A 
ATOM     10  C   UNL     1      -0.049   3.230  -1.538  0.00  0.00    +0.017 A 
ATOM     11  C   UNL     1      -0.735   2.137  -1.120  0.00  0.00    +0.001 A 
ATOM     12  C   UNL     1      -1.956   1.787  -1.734  0.00  0.00    +0.251 A 
ATOM     13  O   UNL     1      -2.559   0.804  -1.340  0.00  0.00    -0.268 OA
ATOM     14  N   UNL     1      -2.472   2.511  -2.743  0.00  0.00    -0.322 N 
ATOM     15  H   UNL     1      -3.314   2.242  -3.143  0.00  0.00    +0.169 HD
BRANCH   4  17
ATOM     16  C   UNL     1       1.192   6.697  -5.782  0.00  0.00    +0.009 C 
ATOM     17  C   UNL     1       0.238   7.100  -4.656  0.00  0.00    +0.032 C 
ENDBRANCH   4  17
ENDBRANCH   3  11
ENDBRANCH   1   3
BRANCH   1  18
ATOM     18  C   UNL     1      -2.168   1.230   1.408  0.00  0.00    -0.038 C 
BRANCH  18  19
ATOM     19  C   UNL     1      -2.862   1.952   2.535  0.00  0.00    -0.022 A 
ATOM     20  C   UNL     1      -3.096   1.303   3.731  0.00  0.00    +0.005 A 
ATOM     21  C   UNL     1      -3.728   1.966   4.767  0.00  0.00    +0.000 A 
ATOM     22  C   UNL     1      -4.136   3.277   4.604  0.00  0.00    +0.004 A 
ATOM     23  C   UNL     1      -3.909   3.929   3.408  0.00  0.00    +0.046 A 
ATOM     24  C   UNL     1      -3.270   3.267   2.369  0.00  0.00    +0.121 A 
BRANCH  24  25
ATOM     25  O   UNL     1      -3.046   3.906   1.191  0.00  0.00    -0.495 OA
ATOM     26  C   UNL     1      -3.493   5.260   1.091  0.00  0.00    +0.277 C 
ENDBRANCH  24  25
ENDBRANCH  18  19
ENDBRANCH   1  18
BRANCH   1  27
ATOM     27  C   UNL     1       0.030   1.321   2.419  0.00  0.00    +0.003 C 
BRANCH  27  28
ATOM     28  C   UNL     1       0.372  -0.141   2.291  0.00  0.00    +0.138 A 
ATOM     29  N   UNL     1       0.867  -0.739   1.235  0.00  0.00    -0.115 NA
ATOM     30  N   UNL     1       1.021  -1.986   1.520  0.00  0.00    -0.023 NA
ATOM     31  N   UNL     1       0.629  -2.200   2.727  0.00  0.00    -0.044 NA
ATOM     32  N   UNL     1       0.221  -1.087   3.236  0.00  0.00    -0.228 N 
BRANCH  32  33
ATOM     33  C   UNL     1      -0.305  -0.890   4.589  0.00  0.00    +0.111 C 
ATOM     34  C   UNL     1       0.757  -1.291   5.614  0.00  0.00    +0.027 C 
ATOM     35  C   UNL     1       0.207  -1.085   7.026  0.00  0.00    +0.002 C 
ATOM     36  C   UNL     1      -1.040  -1.951   7.219  0.00  0.00    +0.000 C 
ATOM     37  C   UNL     1      -2.103  -1.550   6.194  0.00  0.00    +0.002 C 
ATOM     38  C   UNL     1      -1.552  -1.756   4.782  0.00  0.00    +0.027 C 
ENDBRANCH  32  33
ENDBRANCH  27  28
BRANCH  27  39
ATOM     39  C   UNL     1       1.319   2.146   2.443  0.00  0.00    -0.011 C 
ATOM     40  C   UNL     1       0.981   3.613   2.716  0.00  0.00    +0.002 C 
ENDBRANCH  27  39
ENDBRANCH   1  27
TORSDOF 10
