REMARK  Name = ZINC39726866
REMARK  5 active torsions:
REMARK  status: ('A' for Active; 'I' for Inactive)
REMARK    1  A    between atoms: C_4  and  C_7
REMARK    2  A    between atoms: C_13  and  C_17
REMARK    3  A    between atoms: C_17  and  N_18
REMARK    4  A    between atoms: N_21  and  S_24
REMARK    5  A    between atoms: S_24  and  C_27
REMARK                            x       y       z     vdW  Elec       q    Type
REMARK                         _______ _______ _______ _____ _____    ______ ____
ROOT
ATOM      1  C   UNL     1       4.297  -7.021  -0.371  0.00  0.00    +0.158 C 
ENDROOT
BRANCH   1   7
ATOM      2  C   UNL     1       3.711  -0.707  -0.038  0.00  0.00    +0.106 C 
ATOM      3  C   UNL     1       3.819  -1.650   1.139  0.00  0.00    +0.008 C 
ATOM      4  C   UNL     1       3.937  -2.961   0.879  0.00  0.00    +0.068 C 
ATOM      5  C   UNL     1       3.952  -3.381  -0.538  0.00  0.00    +0.112 C 
ATOM      6  N   UNL     1       4.066  -4.649  -0.857  0.00  0.00    -0.226 NA
ATOM      7  C   UNL     1       4.170  -5.586   0.073  0.00  0.00    +0.138 C 
ATOM      8  N   UNL     1       4.169  -5.331   1.359  0.00  0.00    -0.160 NA
ATOM      9  C   UNL     1       4.060  -4.093   1.852  0.00  0.00    +0.271 C 
ATOM     10  O   UNL     1       4.062  -3.892   3.055  0.00  0.00    -0.268 OA
ATOM     11  S   UNL     1       3.796  -1.871  -1.459  0.00  0.00    -0.093 S 
BRANCH   2  15
ATOM     12  C   UNL     1      -0.017   1.378   0.010  0.00  0.00    +0.000 A 
ATOM     13  C   UNL     1       1.171   2.086   0.002  0.00  0.00    +0.000 A 
ATOM     14  C   UNL     1       2.377   1.411  -0.013  0.00  0.00    +0.005 A 
ATOM     15  C   UNL     1       2.396   0.029  -0.020  0.00  0.00    -0.030 A 
ATOM     16  C   UNL     1       1.208  -0.679  -0.012  0.00  0.00    +0.005 A 
ATOM     17  C   UNL     1       0.002  -0.004   0.002  0.00  0.00    +0.000 A 
ENDBRANCH   2  15
ENDBRANCH   1   7
BRANCH   1  18
ATOM     18  N   UNL     1       4.400  -7.891   0.808  0.00  0.00    -0.293 NA
ATOM     19  C   UNL     1       5.645  -7.634   1.546  0.00  0.00    +0.102 C 
ATOM     20  C   UNL     1       5.630  -8.425   2.858  0.00  0.00    +0.125 C 
ATOM     21  N   UNL     1       5.371  -9.839   2.548  0.00  0.00    -0.174 NA
ATOM     22  C   UNL     1       4.217 -10.165   1.697  0.00  0.00    +0.125 C 
ATOM     23  C   UNL     1       4.287  -9.306   0.430  0.00  0.00    +0.102 C 
BRANCH  21  24
ATOM     24  S   UNL     1       6.354 -11.033   3.141  0.00  0.00    +0.064 S 
ATOM     25  O   UNL     1       6.216 -12.144   2.266  0.00  0.00    -0.153 OA
ATOM     26  O   UNL     1       7.610 -10.427   3.412  0.00  0.00    -0.153 OA
BRANCH  24  27
ATOM     27  C   UNL     1       5.689 -11.530   4.695  0.00  0.00    +0.140 A 
ATOM     28  C   UNL     1       5.199 -12.812   4.859  0.00  0.00    +0.031 A 
ATOM     29  C   UNL     1       4.678 -13.203   6.078  0.00  0.00    +0.002 A 
ATOM     30  C   UNL     1       4.645 -12.311   7.135  0.00  0.00    +0.003 A 
ATOM     31  C   UNL     1       5.134 -11.029   6.973  0.00  0.00    +0.040 A 
ATOM     32  C   UNL     1       5.662 -10.639   5.754  0.00  0.00    +0.150 A 
ATOM     33  F   UNL     1       6.145  -9.387   5.596  0.00  0.00    -0.203 F 
ENDBRANCH  24  27
ENDBRANCH  21  24
ENDBRANCH   1  18
TORSDOF 5
