REMARK  Name = ZINC17307287
REMARK  11 active torsions:
REMARK  status: ('A' for Active; 'I' for Inactive)
REMARK    1  A    between atoms: C_1  and  C_2
REMARK    2  A    between atoms: C_2  and  O_3
REMARK    3  A    between atoms: O_3  and  C_4
REMARK    4  A    between atoms: C_7  and  C_10
REMARK    5  A    between atoms: N_11  and  N_12
REMARK    6  A    between atoms: N_17  and  C_18
REMARK    7  A    between atoms: C_18  and  C_19
REMARK    8  A    between atoms: C_19  and  C_20
REMARK    9  A    between atoms: C_20  and  C_21
REMARK   10  A    between atoms: C_20  and  C_22
REMARK   11  A    between atoms: N_29  and  C_30
REMARK                            x       y       z     vdW  Elec       q    Type
REMARK                         _______ _______ _______ _____ _____    ______ ____
ROOT
ATOM      1  N   UNL     1       0.941   3.406   1.999  0.00  0.00    -0.206 N 
ATOM      2  C   UNL     1      -0.021   2.461   2.272  0.00  0.00    +0.218 A 
ATOM      3  N   UNL     1      -1.158   2.690   2.898  0.00  0.00    -0.195 NA
ATOM      4  C   UNL     1      -1.855   1.558   3.003  0.00  0.00    +0.170 A 
ATOM      5  C   UNL     1      -1.113   0.550   2.398  0.00  0.00    +0.153 A 
ATOM      6  N   UNL     1       0.052   1.145   1.935  0.00  0.00    -0.305 N 
ATOM      7  C   UNL     1      -1.627  -0.759   2.370  0.00  0.00    +0.280 A 
ATOM      8  O   UNL     1      -0.994  -1.659   1.846  0.00  0.00    -0.265 OA
ATOM      9  N   UNL     1      -2.829  -1.008   2.930  0.00  0.00    -0.273 N 
ATOM     10  H   UNL     1      -3.198  -1.937   2.911  0.00  0.00    +0.173 HD
ATOM     11  C   UNL     1      -3.539  -0.025   3.512  0.00  0.00    +0.331 A 
ATOM     12  O   UNL     1      -4.619  -0.287   4.006  0.00  0.00    -0.246 OA
ATOM     13  N   UNL     1      -3.084   1.240   3.561  0.00  0.00    -0.280 N 
ATOM     14  C   UNL     1      -3.887   2.283   4.204  0.00  0.00    +0.155 C 
ATOM     15  H   UNL     1       1.751   3.152   1.530  0.00  0.00    +0.177 HD
ENDROOT
BRANCH   1  17
ATOM     16  C   UNL     1       1.599   5.650   2.039  0.00  0.00    +0.138 C 
ATOM     17  N   UNL     1       0.751   4.736   2.398  0.00  0.00    -0.188 NA
BRANCH  16  21
ATOM     18  C   UNL     1       4.052   5.045  -1.374  0.00  0.00    +0.121 A 
ATOM     19  C   UNL     1       2.967   4.208  -1.144  0.00  0.00    +0.046 A 
ATOM     20  C   UNL     1       2.168   4.401  -0.037  0.00  0.00    +0.013 A 
ATOM     21  C   UNL     1       2.451   5.439   0.854  0.00  0.00    -0.005 A 
ATOM     22  C   UNL     1       3.541   6.282   0.616  0.00  0.00    +0.013 A 
ATOM     23  C   UNL     1       4.337   6.078  -0.491  0.00  0.00    +0.046 A 
BRANCH  18  24
ATOM     24  O   UNL     1       4.836   4.851  -2.466  0.00  0.00    -0.492 OA
BRANCH  24  26
ATOM     25  C   UNL     1       6.697   5.376  -3.916  0.00  0.00    +0.048 C 
ATOM     26  C   UNL     1       5.935   5.748  -2.642  0.00  0.00    +0.225 C 
ENDBRANCH  24  26
ENDBRANCH  18  24
ENDBRANCH  16  21
ENDBRANCH   1  17
BRANCH   6  27
ATOM     27  C   UNL     1       1.150   0.484   1.226  0.00  0.00    +0.125 C 
BRANCH  27  28
ATOM     28  C   UNL     1       0.888   0.533  -0.280  0.00  0.00    +0.024 C 
BRANCH  28  29
ATOM     29  C   UNL     1       2.035  -0.158  -1.020  0.00  0.00    -0.016 C 
ATOM     30  C   UNL     1       1.714  -0.218  -2.515  0.00  0.00    +0.007 C 
ATOM     31  C   UNL     1       3.328   0.632  -0.808  0.00  0.00    +0.007 C 
ENDBRANCH  28  29
ENDBRANCH  27  28
ENDBRANCH   6  27
TORSDOF 7
