REMARK  Name = ZINC59402712
REMARK  12 active torsions:
REMARK  status: ('A' for Active; 'I' for Inactive)
REMARK    1  A    between atoms: C_1  and  C_2
REMARK    2  A    between atoms: C_5  and  C_32
REMARK    3  A    between atoms: N_13  and  C_14
REMARK    4  A    between atoms: C_14  and  C_15
REMARK    5  A    between atoms: N_17  and  C_18
REMARK    6  A    between atoms: C_18  and  C_20
REMARK    7  A    between atoms: C_18  and  C_29
REMARK    8  A    between atoms: C_23  and  C_26
REMARK    9  A    between atoms: C_26  and  C_27
REMARK   10  A    between atoms: C_26  and  C_28
REMARK   11  A    between atoms: C_29  and  C_30
REMARK   12  A    between atoms: C_29  and  C_31
REMARK                            x       y       z     vdW  Elec       q    Type
REMARK                         _______ _______ _______ _____ _____    ______ ____
ROOT
ATOM      1  C   UNL     1       1.508   0.447   1.976  0.00  0.00    +0.201 C 
ENDROOT
BRANCH   1  12
ATOM      2  C   UNL     1      -0.028   1.529  -0.049  0.00  0.00    +0.028 C 
ATOM      3  C   UNL     1      -0.003  -0.001  -0.026  0.00  0.00    +0.072 C 
ATOM      4  C   UNL     1      -1.438  -0.543   0.003  0.00  0.00    +0.039 C 
ATOM      5  C   UNL     1      -1.389  -2.070  -0.045  0.00  0.00    +0.108 C 
ATOM      6  C   UNL     1      -0.458  -2.601   1.012  0.00  0.00    -0.014 A 
ATOM      7  C   UNL     1      -0.591  -3.917   1.424  0.00  0.00    +0.006 A 
ATOM      8  C   UNL     1       0.250  -4.434   2.390  0.00  0.00    +0.000 A 
ATOM      9  C   UNL     1       1.233  -3.640   2.953  0.00  0.00    +0.002 A 
ATOM     10  C   UNL     1       1.373  -2.327   2.549  0.00  0.00    +0.023 A 
ATOM     11  C   UNL     1       0.526  -1.804   1.577  0.00  0.00    +0.034 A 
ATOM     12  N   UNL     1       0.680  -0.469   1.187  0.00  0.00    -0.318 N 
BRANCH   5  13
ATOM     13  C   UNL     1      -2.772  -2.620   0.194  0.00  0.00    +0.218 C 
ATOM     14  O   UNL     1      -3.518  -2.069   0.976  0.00  0.00    -0.275 OA
ATOM     15  N   UNL     1      -3.180  -3.725  -0.461  0.00  0.00    -0.329 N 
ATOM     16  H   UNL     1      -2.561  -4.207  -1.032  0.00  0.00    +0.145 HD
ATOM     17  H   UNL     1      -4.093  -4.039  -0.362  0.00  0.00    +0.145 HD
ENDBRANCH   5  13
ENDBRANCH   1  12
BRANCH   1  18
ATOM     18  C   UNL     1       0.657   1.118   3.023  0.00  0.00    +0.231 C 
ATOM     19  O   UNL     1      -0.525   0.857   3.103  0.00  0.00    -0.274 OA
ATOM     20  N   UNL     1       1.209   2.008   3.871  0.00  0.00    -0.307 N 
ATOM     21  H   UNL     1       2.154   2.217   3.808  0.00  0.00    +0.149 HD
BRANCH  20  22
ATOM     22  C   UNL     1       0.382   2.660   4.889  0.00  0.00    +0.106 C 
BRANCH  22  23
ATOM     23  C   UNL     1       1.251   3.091   6.043  0.00  0.00    -0.027 A 
ATOM     24  C   UNL     1       2.500   3.634   5.802  0.00  0.00    +0.006 A 
ATOM     25  C   UNL     1       3.297   4.029   6.859  0.00  0.00    +0.004 A 
ATOM     26  C   UNL     1       2.846   3.882   8.158  0.00  0.00    -0.045 A 
ATOM     27  C   UNL     1       1.597   3.341   8.399  0.00  0.00    +0.004 A 
ATOM     28  C   UNL     1       0.798   2.950   7.341  0.00  0.00    +0.006 A 
BRANCH  26  29
ATOM     29  C   UNL     1       3.716   4.312   9.311  0.00  0.00    +0.013 C 
ATOM     30  C   UNL     1       2.994   5.393  10.119  0.00  0.00    +0.012 C 
ATOM     31  C   UNL     1       4.001   3.108  10.211  0.00  0.00    +0.012 C 
ENDBRANCH  26  29
ENDBRANCH  22  23
BRANCH  22  32
ATOM     32  C   UNL     1      -0.303   3.886   4.281  0.00  0.00    +0.008 C 
ATOM     33  C   UNL     1      -1.186   3.448   3.111  0.00  0.00    +0.009 C 
ATOM     34  C   UNL     1      -1.167   4.567   5.345  0.00  0.00    +0.009 C 
ENDBRANCH  22  32
ENDBRANCH  20  22
ENDBRANCH   1  18
TORSDOF 7
