REMARK  Name = ZINC45630241
REMARK  11 active torsions:
REMARK  status: ('A' for Active; 'I' for Inactive)
REMARK    1  A    between atoms: C_1  and  C_2
REMARK    2  A    between atoms: C_2  and  C_3
REMARK    3  A    between atoms: C_2  and  C_4
REMARK    4  A    between atoms: C_4  and  C_6
REMARK    5  A    between atoms: C_4  and  N_14
REMARK    6  A    between atoms: C_9  and  O_12
REMARK    7  A    between atoms: O_12  and  C_13
REMARK    8  A    between atoms: C_15  and  C_17
REMARK    9  A    between atoms: C_17  and  N_18
REMARK   10  A    between atoms: C_21  and  C_25
REMARK   11  A    between atoms: C_21  and  C_26
REMARK                            x       y       z     vdW  Elec       q    Type
REMARK                         _______ _______ _______ _____ _____    ______ ____
ROOT
ATOM      1  C   UNL     1      -2.661  -0.514  -3.613  0.00  0.00    +0.213 C 
ENDROOT
BRANCH   1   2
ATOM      2  N   UNL     1      -2.359  -1.497  -4.656  0.00  0.00    -0.215 N 
ATOM      3  C   UNL     1      -1.305  -1.414  -5.492  0.00  0.00    +0.251 C 
ATOM      4  O   UNL     1      -0.460  -0.545  -5.521  0.00  0.00    -0.272 OA
ATOM      5  C   UNL     1      -1.395  -2.634  -6.387  0.00  0.00    +0.136 C 
ATOM      6  N   UNL     1      -2.603  -3.327  -5.907  0.00  0.00    -0.281 N 
ATOM      7  C   UNL     1      -3.092  -2.591  -4.894  0.00  0.00    +0.310 C 
ATOM      8  O   UNL     1      -4.091  -2.884  -4.266  0.00  0.00    -0.252 OA
ATOM      9  C   UNL     1      -0.160  -3.521  -6.214  0.00  0.00    +0.047 C 
ATOM     10  H   UNL     1      -2.971  -4.155  -6.253  0.00  0.00    +0.152 HD
BRANCH   5  11
ATOM     11  C   UNL     1      -1.557  -2.223  -7.828  0.00  0.00    +0.003 A 
ATOM     12  C   UNL     1      -2.678  -2.613  -8.536  0.00  0.00    +0.009 A 
ATOM     13  C   UNL     1      -2.827  -2.237  -9.858  0.00  0.00    +0.020 A 
ATOM     14  C   UNL     1      -1.854  -1.469 -10.473  0.00  0.00    +0.042 A 
ATOM     15  C   UNL     1      -0.732  -1.078  -9.765  0.00  0.00    +0.040 A 
ATOM     16  C   UNL     1      -0.586  -1.451  -8.440  0.00  0.00    +0.048 A 
ATOM     17 CL   UNL     1       0.819  -0.956  -7.549  0.00  0.00    -0.083 Cl
ATOM     18 CL   UNL     1      -2.042  -0.997 -12.133  0.00  0.00    -0.083 Cl
ENDBRANCH   5  11
ENDBRANCH   1   2
BRANCH   1  20
ATOM     19  N   UNL     1      -2.105  -0.148  -1.230  0.00  0.00    -0.307 N 
ATOM     20  C   UNL     1      -1.970  -0.910  -2.334  0.00  0.00    +0.231 C 
ATOM     21  O   UNL     1      -1.291  -1.915  -2.297  0.00  0.00    -0.274 OA
ATOM     22  H   UNL     1      -2.648   0.655  -1.260  0.00  0.00    +0.149 HD
BRANCH  19  23
ATOM     23  C   UNL     1      -1.433  -0.534   0.013  0.00  0.00    +0.106 C 
BRANCH  23  24
ATOM     24  C   UNL     1      -2.175   0.051   1.187  0.00  0.00    -0.027 A 
ATOM     25  C   UNL     1      -2.690   1.332   1.110  0.00  0.00    +0.009 A 
ATOM     26  C   UNL     1      -3.371   1.870   2.185  0.00  0.00    +0.046 A 
ATOM     27  C   UNL     1      -3.538   1.124   3.343  0.00  0.00    +0.120 A 
ATOM     28  C   UNL     1      -3.020  -0.161   3.417  0.00  0.00    +0.046 A 
ATOM     29  C   UNL     1      -2.345  -0.697   2.338  0.00  0.00    +0.009 A 
BRANCH  27  30
ATOM     30  O   UNL     1      -4.206   1.651   4.402  0.00  0.00    -0.495 OA
ATOM     31  C   UNL     1      -4.340   0.826   5.561  0.00  0.00    +0.277 C 
ENDBRANCH  27  30
ENDBRANCH  23  24
BRANCH  23  33
ATOM     32  C   UNL     1      -0.019   1.526   0.010  0.00  0.00    +0.009 C 
ATOM     33  C   UNL     1       0.002  -0.004   0.002  0.00  0.00    +0.008 C 
ATOM     34  C   UNL     1       0.742  -0.511   1.242  0.00  0.00    +0.009 C 
ENDBRANCH  23  33
ENDBRANCH  19  23
ENDBRANCH   1  20
TORSDOF 7
