REMARK  Name = ZINC59392325
REMARK  8 active torsions:
REMARK  status: ('A' for Active; 'I' for Inactive)
REMARK    1  A    between atoms: C_1  and  C_2
REMARK    2  A    between atoms: N_16  and  C_17
REMARK    3  A    between atoms: C_17  and  C_18
REMARK    4  A    between atoms: N_20  and  C_21
REMARK    5  A    between atoms: C_21  and  C_22
REMARK    6  A    between atoms: C_25  and  O_28
REMARK    7  A    between atoms: O_28  and  C_29
REMARK    8  A    between atoms: C_29  and  C_30
REMARK                            x       y       z     vdW  Elec       q    Type
REMARK                         _______ _______ _______ _____ _____    ______ ____
ROOT
ATOM      1  C   UNL     1      -0.199   1.371   0.248  0.00  0.00    -0.008 C 
ATOM      2  C   UNL     1       0.024  -0.112  -0.052  0.00  0.00    -0.040 C 
ATOM      3  C   UNL     1      -1.307  -0.816  -0.088  0.00  0.00    -0.054 A 
ATOM      4  C   UNL     1      -2.380  -0.177  -0.691  0.00  0.00    +0.051 A 
ATOM      5  C   UNL     1      -3.620  -0.790  -0.748  0.00  0.00    +0.162 A 
ATOM      6  C   UNL     1      -3.789  -2.056  -0.200  0.00  0.00    +0.162 A 
ATOM      7  C   UNL     1      -2.715  -2.690   0.404  0.00  0.00    +0.053 A 
ATOM      8  C   UNL     1      -1.477  -2.070   0.461  0.00  0.00    -0.038 A 
ATOM      9  C   UNL     1      -0.337  -2.788   1.134  0.00  0.00    -0.019 C 
ATOM     10  C   UNL     1      -0.530  -2.749   2.661  0.00  0.00    +0.010 C 
ATOM     11  C   UNL     1      -1.221  -4.097   2.989  0.00  0.00    +0.001 C 
ATOM     12  C   UNL     1      -0.526  -5.084   2.018  0.00  0.00    +0.001 C 
ATOM     13  C   UNL     1      -0.335  -4.268   0.722  0.00  0.00    +0.010 C 
ATOM     14  C   UNL     1       0.994  -2.141   0.764  0.00  0.00    -0.066 C 
ATOM     15  N   UNL     1       0.887  -0.690   0.982  0.00  0.00    +0.390 N 
ATOM     16  O   UNL     1      -4.995  -2.683  -0.252  0.00  0.00    -0.485 OA
ATOM     17  C   UNL     1      -6.135  -1.863  -0.530  0.00  0.00    +0.270 C 
ATOM     18  C   UNL     1      -5.790  -0.945  -1.710  0.00  0.00    +0.270 C 
ATOM     19  O   UNL     1      -4.662  -0.144  -1.340  0.00  0.00    -0.485 OA
ATOM     20  H   UNL     1       0.488  -0.513   1.892  0.00  0.00    -0.080 HD
ENDROOT
BRANCH  15  21
ATOM     21  C   UNL     1       2.222  -0.082   0.903  0.00  0.00    +0.019 C 
BRANCH  21  22
ATOM     22  C   UNL     1       3.067  -0.574   2.050  0.00  0.00    +0.197 C 
ATOM     23  O   UNL     1       2.574  -1.272   2.910  0.00  0.00    -0.278 OA
ATOM     24  N   UNL     1       4.370  -0.236   2.120  0.00  0.00    -0.313 N 
ATOM     25  H   UNL     1       4.764   0.323   1.433  0.00  0.00    +0.149 HD
BRANCH  24  26
ATOM     26  C   UNL     1       5.191  -0.715   3.235  0.00  0.00    +0.139 C 
BRANCH  26  27
ATOM     27  C   UNL     1       6.599  -0.201   3.079  0.00  0.00    -0.030 A 
ATOM     28  C   UNL     1       7.529  -0.940   2.372  0.00  0.00    +0.009 A 
ATOM     29  C   UNL     1       8.820  -0.472   2.228  0.00  0.00    +0.046 A 
ATOM     30  C   UNL     1       9.184   0.743   2.792  0.00  0.00    +0.121 A 
ATOM     31  C   UNL     1       8.248   1.483   3.501  0.00  0.00    +0.046 A 
ATOM     32  C   UNL     1       6.957   1.012   3.638  0.00  0.00    +0.009 A 
BRANCH  30  33
ATOM     33  O   UNL     1      10.453   1.206   2.652  0.00  0.00    -0.483 OA
BRANCH  33  34
ATOM     34  C   UNL     1      10.756   2.463   3.259  0.00  0.00    +0.324 C 
BRANCH  34  35
ATOM     35  C   UNL     1      12.200   2.811   3.001  0.00  0.00    +0.248 C 
ATOM     36  O   UNL     1      12.900   2.057   2.359  0.00  0.00    -0.272 OA
ATOM     37  N   UNL     1      12.712   3.961   3.482  0.00  0.00    -0.327 N 
ATOM     38  H   UNL     1      12.152   4.564   3.995  0.00  0.00    +0.145 HD
ATOM     39  H   UNL     1      13.641   4.185   3.316  0.00  0.00    +0.145 HD
ENDBRANCH  34  35
ENDBRANCH  33  34
ENDBRANCH  30  33
ENDBRANCH  26  27
ENDBRANCH  24  26
ENDBRANCH  21  22
ENDBRANCH  15  21
TORSDOF 7
