REMARK  Name = ZINC53070242
REMARK  4 active torsions:
REMARK  status: ('A' for Active; 'I' for Inactive)
REMARK    1  A    between atoms: C_8  and  C_12
REMARK    2  A    between atoms: N_14  and  C_15
REMARK    3  A    between atoms: C_15  and  C_20
REMARK    4  A    between atoms: C_20  and  O_21
REMARK                            x       y       z     vdW  Elec       q    Type
REMARK                         _______ _______ _______ _____ _____    ______ ____
ROOT
ATOM      1  C   UNL     1       2.522  -4.264  -0.196  0.00  0.00    +0.263 C 
ATOM      2  O   UNL     1       1.575  -5.025  -0.218  0.00  0.00    -0.269 OA
ATOM      3  N   UNL     1       3.777  -4.751  -0.124  0.00  0.00    -0.302 N 
ATOM      4  H   UNL     1       4.535  -4.149  -0.182  0.00  0.00    +0.150 HD
ENDROOT
BRANCH   1  12
ATOM      5  C   UNL     1      -0.598   0.999  -0.493  0.00  0.00    +0.001 A 
ATOM      6  C   UNL     1       0.523   1.826  -0.465  0.00  0.00    +0.001 A 
ATOM      7  C   UNL     1       1.780   1.305  -0.392  0.00  0.00    +0.011 A 
ATOM      8  C   UNL     1       1.951  -0.086  -0.344  0.00  0.00    +0.019 A 
ATOM      9  C   UNL     1       0.808  -0.928  -0.372  0.00  0.00    -0.013 A 
ATOM     10  C   UNL     1      -0.470  -0.357  -0.448  0.00  0.00    +0.008 A 
ATOM     11  C   UNL     1       1.004  -2.319  -0.323  0.00  0.00    +0.041 A 
ATOM     12  C   UNL     1       2.298  -2.803  -0.249  0.00  0.00    +0.128 A 
ATOM     13  N   UNL     1       3.350  -1.979  -0.224  0.00  0.00    -0.230 NA
ATOM     14  C   UNL     1       3.228  -0.676  -0.268  0.00  0.00    +0.138 A 
ATOM     15 CL   UNL     1       4.644   0.328  -0.232  0.00  0.00    -0.061 Cl
ENDBRANCH   1  12
BRANCH   3  16
ATOM     16  C   UNL     1       3.995  -6.190   0.043  0.00  0.00    +0.058 C 
ATOM     17  C   UNL     1       5.511  -6.510   0.060  0.00  0.00    +0.028 C 
ATOM     18  C   UNL     1       5.875  -6.519  -1.446  0.00  0.00    +0.002 C 
ATOM     19  C   UNL     1       4.654  -7.172  -2.126  0.00  0.00    +0.002 C 
ATOM     20  C   UNL     1       3.459  -6.963  -1.179  0.00  0.00    +0.028 C 
BRANCH  16  21
ATOM     21  C   UNL     1       3.326  -6.687   1.326  0.00  0.00    +0.181 C 
BRANCH  21  22
ATOM     22  O   UNL     1       3.790  -5.914   2.435  0.00  0.00    -0.393 OA
ATOM     23  H   UNL     1       3.406  -6.175   3.284  0.00  0.00    +0.209 HD
ENDBRANCH  21  22
ENDBRANCH  16  21
ENDBRANCH   3  16
TORSDOF 4
