REMARK  Name = ZINC22106773
REMARK  11 active torsions:
REMARK  status: ('A' for Active; 'I' for Inactive)
REMARK    1  A    between atoms: C_1  and  C_2
REMARK    2  A    between atoms: C_2  and  C_3
REMARK    3  A    between atoms: C_3  and  C_5
REMARK    4  A    between atoms: C_3  and  C_6
REMARK    5  A    between atoms: C_11  and  N_12
REMARK    6  A    between atoms: C_13  and  C_15
REMARK    7  A    between atoms: C_15  and  C_17
REMARK    8  A    between atoms: C_15  and  S_18
REMARK    9  A    between atoms: S_18  and  C_19
REMARK   10  A    between atoms: C_22  and  C_25
REMARK   11  A    between atoms: N_23  and  N_24
REMARK                            x       y       z     vdW  Elec       q    Type
REMARK                         _______ _______ _______ _____ _____    ______ ____
ROOT
ATOM      1  C   UNL     1       6.410   6.599   0.029  0.00  0.00    +0.137 C 
ATOM      2  C   UNL     1       6.714   5.852  -1.271  0.00  0.00    +0.029 C 
ENDROOT
BRANCH   1   4
ATOM      3  N   UNL     1       8.560   7.720   0.518  0.00  0.00    -0.284 N 
ATOM      4  C   UNL     1       7.278   7.828   0.117  0.00  0.00    +0.230 C 
ATOM      5  O   UNL     1       6.823   8.914  -0.174  0.00  0.00    -0.274 OA
ATOM      6  H   UNL     1       8.995   6.728   0.711  0.00  0.00    +0.155 HD
BRANCH   3  12
ATOM      7  C   UNL     1      10.367   8.880   1.623  0.00  0.00    -0.023 A 
ATOM      8  C   UNL     1      11.137  10.015   1.788  0.00  0.00    +0.006 A 
ATOM      9  C   UNL     1      10.878  11.143   1.032  0.00  0.00    +0.000 A 
ATOM     10  C   UNL     1       9.851  11.138   0.106  0.00  0.00    +0.002 A 
ATOM     11  C   UNL     1       9.080  10.005  -0.067  0.00  0.00    +0.023 A 
ATOM     12  C   UNL     1       9.339   8.870   0.691  0.00  0.00    +0.037 A 
BRANCH   7  13
ATOM     13  C   UNL     1      10.646   7.653   2.452  0.00  0.00    +0.017 C 
ATOM     14  C   UNL     1      10.612   8.021   3.937  0.00  0.00    +0.012 C 
BRANCH  13  16
ATOM     15  C   UNL     1      12.260   5.786   2.844  0.00  0.00    +0.004 C 
ATOM     16  C   UNL     1      12.028   7.100   2.095  0.00  0.00    +0.004 C 
ENDBRANCH  13  16
ENDBRANCH   7  13
ENDBRANCH   3  12
ENDBRANCH   1   4
BRANCH   1  17
ATOM     17  S   UNL     1       4.668   7.089   0.050  0.00  0.00    -0.072 S 
BRANCH  17  18
ATOM     18  C   UNL     1       3.904   5.501   0.090  0.00  0.00    +0.209 A 
ATOM     19  N   UNL     1       4.520   4.340   0.100  0.00  0.00    -0.121 NA
ATOM     20  N   UNL     1       3.660   3.385   0.130  0.00  0.00    -0.127 NA
ATOM     21  C   UNL     1       2.444   3.878   0.142  0.00  0.00    +0.183 A 
ATOM     22  N   UNL     1       2.562   5.248   0.111  0.00  0.00    -0.224 N 
BRANCH  21  23
ATOM     23  C   UNL     1       1.184   3.105   0.177  0.00  0.00    +0.035 A 
ATOM     24  C   UNL     1       0.142   3.424  -0.696  0.00  0.00    +0.013 A 
ATOM     25  C   UNL     1      -1.032   2.700  -0.658  0.00  0.00    +0.001 A 
ATOM     26  C   UNL     1      -1.180   1.663   0.245  0.00  0.00    +0.001 A 
ATOM     27  C   UNL     1      -0.150   1.337   1.110  0.00  0.00    +0.016 A 
ATOM     28  C   UNL     1       1.030   2.054   1.083  0.00  0.00    +0.029 A 
ATOM     29 BR   UNL     1       2.435   1.612   2.269  0.00  0.00    -0.050 Br
ENDBRANCH  21  23
BRANCH  22  30
ATOM     30  N   UNL     1       1.549   6.164   0.105  0.00  0.00    -0.295 N 
ATOM     31  H   UNL     1       0.502   5.827   0.124  0.00  0.00    +0.163 HD
ATOM     32  H   UNL     1       1.780   7.239   0.081  0.00  0.00    +0.163 HD
ENDBRANCH  22  30
ENDBRANCH  17  18
ENDBRANCH   1  17
TORSDOF 8
