REMARK  Name = ZINC37127296
REMARK  6 active torsions:
REMARK  status: ('A' for Active; 'I' for Inactive)
REMARK    1  A    between atoms: C_1  and  N_2
REMARK    2  A    between atoms: N_2  and  C_3
REMARK    3  A    between atoms: N_2  and  C_4
REMARK    4  A    between atoms: C_5  and  N_11
REMARK    5  A    between atoms: N_11  and  C_12
REMARK    6  A    between atoms: C_20  and  O_22
REMARK                            x       y       z     vdW  Elec       q    Type
REMARK                         _______ _______ _______ _____ _____    ______ ____
ROOT
ATOM      1  N   UNL     1      -2.421  -0.723  -1.200  0.00  0.00    -0.332 N 
ATOM      2  H   UNL     1      -2.423  -0.243  -0.358  0.00  0.00    +0.147 HD
ENDROOT
BRANCH   1   3
ATOM      3  C   UNL     1      -3.689  -1.100  -1.831  0.00  0.00    +0.142 C 
ATOM      4  C   UNL     1      -4.142  -2.503  -1.365  0.00  0.00    +0.256 C 
ATOM      5  O   UNL     1      -5.571  -2.367  -1.287  0.00  0.00    -0.489 OA
ATOM      6  C   UNL     1      -5.885  -1.067  -1.032  0.00  0.00    +0.129 A 
ATOM      7  C   UNL     1      -4.823  -0.223  -1.336  0.00  0.00    +0.018 A 
ATOM      8  C   UNL     1      -4.930   1.140  -1.165  0.00  0.00    +0.013 A 
ATOM      9  C   UNL     1      -6.103   1.687  -0.679  0.00  0.00    +0.046 A 
ATOM     10  C   UNL     1      -7.170   0.857  -0.364  0.00  0.00    +0.120 A 
ATOM     11  C   UNL     1      -7.063  -0.514  -0.539  0.00  0.00    +0.091 A 
BRANCH  10  12
ATOM     12  O   UNL     1      -8.323   1.390   0.117  0.00  0.00    -0.507 OA
ATOM     13  H   UNL     1      -8.964   1.626  -0.568  0.00  0.00    +0.292 HD
ENDBRANCH  10  12
ENDBRANCH   1   3
BRANCH   1  15
ATOM     14  C   UNL     1       0.000  -0.698  -1.215  0.00  0.00    +0.069 A 
ATOM     15  C   UNL     1      -1.208  -1.056  -1.814  0.00  0.00    +0.050 A 
ATOM     16  C   UNL     1      -1.203  -1.742  -3.019  0.00  0.00    +0.025 A 
ATOM     17  C   UNL     1      -0.003  -2.071  -3.623  0.00  0.00    +0.003 A 
ATOM     18  C   UNL     1       1.194  -1.717  -3.030  0.00  0.00    +0.022 A 
ATOM     19  C   UNL     1       1.199  -1.026  -1.831  0.00  0.00    +0.064 A 
ATOM     20 CL   UNL     1       2.705  -0.577  -1.094  0.00  0.00    -0.082 Cl
BRANCH  14  22
ATOM     21  C   UNL     1      -0.018   1.461   0.010  0.00  0.00    +0.129 C 
ATOM     22  N   UNL     1       0.002  -0.004   0.002  0.00  0.00    -0.333 N 
ATOM     23  C   UNL     1       0.024  -0.743   1.267  0.00  0.00    +0.129 C 
ENDBRANCH  14  22
ENDBRANCH   1  15
TORSDOF 4
