REMARK  Name = ZINC20909803
REMARK  9 active torsions:
REMARK  status: ('A' for Active; 'I' for Inactive)
REMARK    1  A    between atoms: C_1  and  O_2
REMARK    2  A    between atoms: O_2  and  C_3
REMARK    3  A    between atoms: C_8  and  C_9
REMARK    4  A    between atoms: N_12  and  C_21
REMARK    5  A    between atoms: C_21  and  C_22
REMARK    6  A    between atoms: C_22  and  N_23
REMARK    7  A    between atoms: C_24  and  C_26
REMARK    8  A    between atoms: C_26  and  C_28
REMARK    9  A    between atoms: C_26  and  N_34
REMARK                            x       y       z     vdW  Elec       q    Type
REMARK                         _______ _______ _______ _____ _____    ______ ____
ROOT
ATOM      1  C   UNL     1       3.050   3.762  -1.282  0.00  0.00    +0.221 C 
ATOM      2  C   UNL     1       3.925   2.527  -1.300  0.00  0.00    +0.134 C 
ATOM      3  N   UNL     1       3.173   1.276  -1.271  0.00  0.00    -0.293 NA
ATOM      4  C   UNL     1       2.499   1.054   0.013  0.00  0.00    +0.123 C 
ATOM      5  C   UNL     1       1.170   1.785   0.001  0.00  0.00    +0.008 A 
ATOM      6  C   UNL     1      -0.013   1.076   0.008  0.00  0.00    +0.008 A 
ATOM      7  C   UNL     1      -1.218   1.755   0.017  0.00  0.00    +0.001 A 
ATOM      8  C   UNL     1      -1.235   3.138   0.038  0.00  0.00    +0.004 A 
ATOM      9  C   UNL     1      -0.050   3.848   0.028  0.00  0.00    +0.046 A 
ATOM     10  C   UNL     1       1.159   3.167   0.000  0.00  0.00    +0.126 A 
ATOM     11  O   UNL     1       2.331   3.857  -0.046  0.00  0.00    -0.483 OA
ENDROOT
BRANCH   1  17
ATOM     12  C   UNL     1       4.276   5.412  -2.719  0.00  0.00    +0.127 A 
ATOM     13  C   UNL     1       5.068   6.541  -2.869  0.00  0.00    +0.046 A 
ATOM     14  C   UNL     1       5.503   7.232  -1.755  0.00  0.00    +0.004 A 
ATOM     15  C   UNL     1       5.145   6.801  -0.490  0.00  0.00    +0.001 A 
ATOM     16  C   UNL     1       4.352   5.680  -0.338  0.00  0.00    +0.011 A 
ATOM     17  C   UNL     1       3.914   4.985  -1.449  0.00  0.00    +0.036 A 
BRANCH  12  19
ATOM     18  C   UNL     1       4.262   5.224  -5.089  0.00  0.00    +0.277 C 
ATOM     19  O   UNL     1       3.851   4.727  -3.813  0.00  0.00    -0.495 OA
ENDBRANCH  12  19
ENDBRANCH   1  17
BRANCH   3  20
ATOM     20  C   UNL     1       4.033   0.137  -1.618  0.00  0.00    +0.103 C 
BRANCH  20  21
ATOM     21  C   UNL     1       5.184   0.041  -0.615  0.00  0.00    +0.119 C 
BRANCH  21  22
ATOM     22  N   UNL     1       6.041  -1.095  -0.961  0.00  0.00    -0.315 N 
ATOM     23  C   UNL     1       7.125  -1.375  -0.211  0.00  0.00    +0.204 C 
ATOM     24  O   UNL     1       7.391  -0.686   0.751  0.00  0.00    -0.277 OA
ATOM     25  H   UNL     1       5.800  -1.720  -1.834  0.00  0.00    +0.149 HD
BRANCH  23  26
ATOM     26  C   UNL     1       8.007  -2.544  -0.567  0.00  0.00    +0.051 C 
BRANCH  26  27
ATOM     27  C   UNL     1       7.378  -3.819  -0.067  0.00  0.00    -0.034 A 
ATOM     28  C   UNL     1       6.668  -4.638  -0.932  0.00  0.00    +0.005 A 
ATOM     29  C   UNL     1       6.110  -5.803  -0.429  0.00  0.00    +0.020 A 
ATOM     30  C   UNL     1       6.271  -6.103   0.911  0.00  0.00    +0.111 A 
ATOM     31  N   UNL     1       6.949  -5.297   1.706  0.00  0.00    -0.263 NA
ATOM     32  C   UNL     1       7.497  -4.183   1.260  0.00  0.00    +0.113 A 
ENDBRANCH  26  27
BRANCH  26  33
ATOM     33  N   UNL     1       9.325  -2.371   0.057  0.00  0.00    +0.390 N 
ATOM     34  C   UNL     1      10.205  -3.534  -0.226  0.00  0.00    -0.077 C 
ATOM     35  C   UNL     1      11.627  -2.971   0.021  0.00  0.00    -0.020 C 
ATOM     36  C   UNL     1      11.527  -1.527  -0.523  0.00  0.00    -0.020 C 
ATOM     37  C   UNL     1      10.024  -1.192  -0.500  0.00  0.00    -0.077 C 
ATOM     38  H   UNL     1       9.134  -2.255   1.134  0.00  0.00    -0.080 HD
ENDBRANCH  26  33
ENDBRANCH  23  26
ENDBRANCH  21  22
ENDBRANCH  20  21
ENDBRANCH   3  20
TORSDOF 8
