REMARK  Name = ZINC07884585
REMARK  7 active torsions:
REMARK  status: ('A' for Active; 'I' for Inactive)
REMARK    1  A    between atoms: C_1  and  O_2
REMARK    2  A    between atoms: O_2  and  C_3
REMARK    3  A    between atoms: C_6  and  C_10
REMARK    4  A    between atoms: C_8  and  O_9
REMARK    5  A    between atoms: N_21  and  C_22
REMARK    6  A    between atoms: C_22  and  C_23
REMARK    7  A    between atoms: C_23  and  C_24
REMARK                            x       y       z     vdW  Elec       q    Type
REMARK                         _______ _______ _______ _____ _____    ______ ____
ROOT
ATOM      1  C   UNL     1      -1.283  -0.762   0.010  0.00  0.00    +0.193 C 
ATOM      2  N   UNL     1      -1.125  -1.986  -0.785  0.00  0.00    -0.321 N 
ATOM      3  C   UNL     1      -1.140  -1.883  -2.171  0.00  0.00    +0.041 A 
ATOM      4  C   UNL     1      -0.439  -2.763  -2.979  0.00  0.00    +0.024 A 
ATOM      5  C   UNL     1      -0.485  -2.614  -4.352  0.00  0.00    +0.002 A 
ATOM      6  C   UNL     1      -1.224  -1.592  -4.926  0.00  0.00    +0.001 A 
ATOM      7  C   UNL     1      -1.929  -0.708  -4.136  0.00  0.00    +0.015 A 
ATOM      8  C   UNL     1      -1.894  -0.848  -2.751  0.00  0.00    +0.058 A 
ATOM      9  C   UNL     1      -2.635   0.064  -1.860  0.00  0.00    +0.250 C 
ATOM     10  O   UNL     1      -3.487   0.806  -2.310  0.00  0.00    -0.270 OA
ATOM     11  N   UNL     1      -2.358   0.065  -0.539  0.00  0.00    -0.275 N 
ATOM     12  H   UNL     1      -1.012  -2.847  -0.353  0.00  0.00    +0.148 HD
ENDROOT
BRANCH   1  16
ATOM     13  C   UNL     1       2.380   1.445  -0.053  0.00  0.00    +0.161 A 
ATOM     14  C   UNL     1       2.402   0.059  -0.032  0.00  0.00    +0.050 A 
ATOM     15  C   UNL     1       1.217  -0.651  -0.011  0.00  0.00    +0.011 A 
ATOM     16  C   UNL     1       0.007   0.018  -0.012  0.00  0.00    -0.006 A 
ATOM     17  C   UNL     1      -0.023   1.400  -0.034  0.00  0.00    +0.056 A 
ATOM     18  C   UNL     1       1.162   2.118  -0.054  0.00  0.00    +0.159 A 
BRANCH  13  20
ATOM     19  C   UNL     1       4.757   1.388  -0.071  0.00  0.00    +0.277 C 
ATOM     20  O   UNL     1       3.545   2.145  -0.073  0.00  0.00    -0.491 OA
ENDBRANCH  13  20
BRANCH  18  21
ATOM     21  O   UNL     1       1.135   3.477  -0.075  0.00  0.00    -0.503 OA
ATOM     22  H   UNL     1       1.133   3.884   0.802  0.00  0.00    +0.292 HD
ENDBRANCH  18  21
ENDBRANCH   1  16
BRANCH  11  23
ATOM     23  C   UNL     1      -3.148   0.908   0.361  0.00  0.00    +0.115 C 
BRANCH  23  24
ATOM     24  C   UNL     1      -4.295   0.087   0.954  0.00  0.00    +0.054 C 
BRANCH  24  25
ATOM     25  C   UNL     1      -5.178   0.984   1.783  0.00  0.00    -0.046 A 
ATOM     26  C   UNL     1      -4.918   1.155   3.130  0.00  0.00    +0.004 A 
ATOM     27  C   UNL     1      -5.725   1.982   3.889  0.00  0.00    +0.000 A 
ATOM     28  C   UNL     1      -6.798   2.628   3.304  0.00  0.00    +0.000 A 
ATOM     29  C   UNL     1      -7.061   2.452   1.959  0.00  0.00    +0.000 A 
ATOM     30  C   UNL     1      -6.250   1.630   1.198  0.00  0.00    +0.004 A 
ENDBRANCH  24  25
ENDBRANCH  23  24
ENDBRANCH  11  23
TORSDOF 6
