REMARK  Name = ZINC40933546
REMARK  8 active torsions:
REMARK  status: ('A' for Active; 'I' for Inactive)
REMARK    1  A    between atoms: C_1  and  C_2
REMARK    2  A    between atoms: C_2  and  C_3
REMARK    3  A    between atoms: C_3  and  N_4
REMARK    4  A    between atoms: C_5  and  C_18
REMARK    5  A    between atoms: C_6  and  N_17
REMARK    6  A    between atoms: N_9  and  C_10
REMARK    7  A    between atoms: C_18  and  C_19
REMARK    8  A    between atoms: C_18  and  C_20
REMARK                            x       y       z     vdW  Elec       q    Type
REMARK                         _______ _______ _______ _____ _____    ______ ____
ROOT
ATOM      1  N   UNL     1      -1.232  -2.735  -0.154  0.00  0.00    -0.279 N 
ATOM      2  C   UNL     1      -1.396  -3.301   1.087  0.00  0.00    +0.065 A 
ATOM      3  C   UNL     1      -1.400  -4.643   0.945  0.00  0.00    +0.113 A 
ATOM      4  C   UNL     1      -1.234  -4.939  -0.433  0.00  0.00    +0.293 A 
ATOM      5  O   UNL     1      -1.191  -6.051  -0.928  0.00  0.00    -0.264 OA
ATOM      6  N   UNL     1      -1.138  -3.769  -1.095  0.00  0.00    -0.214 N 
ENDROOT
BRANCH   6   7
ATOM      7  C   UNL     1      -0.970  -3.614  -2.475  0.00  0.00    +0.081 A 
ATOM      8  C   UNL     1       0.301  -3.668  -3.032  0.00  0.00    +0.029 A 
ATOM      9  C   UNL     1       0.463  -3.515  -4.395  0.00  0.00    +0.002 A 
ATOM     10  C   UNL     1      -0.638  -3.310  -5.206  0.00  0.00    +0.001 A 
ATOM     11  C   UNL     1      -1.905  -3.256  -4.655  0.00  0.00    +0.017 A 
ATOM     12  C   UNL     1      -2.075  -3.413  -3.293  0.00  0.00    +0.043 A 
ATOM     13 BR   UNL     1      -3.809  -3.346  -2.542  0.00  0.00    -0.048 Br
ENDBRANCH   6   7
BRANCH   3  14
ATOM     14  N   UNL     1      -1.545  -5.586   1.984  0.00  0.00    -0.352 N 
ATOM     15  H   UNL     1      -1.654  -5.286   2.900  0.00  0.00    +0.143 HD
ATOM     16  H   UNL     1      -1.536  -6.535   1.782  0.00  0.00    +0.143 HD
ENDBRANCH   3  14
BRANCH   2  17
ATOM     17  C   UNL     1      -1.545  -2.551   2.386  0.00  0.00    +0.033 C 
ATOM     18  C   UNL     1      -0.376  -1.577   2.550  0.00  0.00    +0.014 C 
ATOM     19  C   UNL     1      -2.861  -1.770   2.376  0.00  0.00    +0.014 C 
ENDBRANCH   2  17
BRANCH   1  20
ATOM     20  C   UNL     1      -1.173  -1.300  -0.444  0.00  0.00    +0.142 C 
BRANCH  20  22
ATOM     21  C   UNL     1       0.344   0.673  -0.651  0.00  0.00    +0.005 C 
ATOM     22  C   UNL     1       0.287  -0.844  -0.466  0.00  0.00    +0.020 C 
ENDBRANCH  20  22
ENDBRANCH   1  20
TORSDOF 5
