REMARK  Name = ZINC00985835
REMARK  10 active torsions:
REMARK  status: ('A' for Active; 'I' for Inactive)
REMARK    1  A    between atoms: C_1  and  C_2
REMARK    2  A    between atoms: C_2  and  C_3
REMARK    3  A    between atoms: C_2  and  C_4
REMARK    4  A    between atoms: C_4  and  C_5
REMARK    5  A    between atoms: C_8  and  C_11
REMARK    6  A    between atoms: C_18  and  N_32
REMARK    7  A    between atoms: C_19  and  C_30
REMARK    8  A    between atoms: C_20  and  C_22
REMARK    9  A    between atoms: C_25  and  S_28
REMARK   10  A    between atoms: S_28  and  C_29
REMARK                            x       y       z     vdW  Elec       q    Type
REMARK                         _______ _______ _______ _____ _____    ______ ____
ROOT
ATOM      1  C   UNL     1      -4.075   0.982  -4.876  0.00  0.00    +0.100 A 
ATOM      2  C   UNL     1      -3.631   0.702  -6.172  0.00  0.00    +0.054 A 
ATOM      3  C   UNL     1      -4.534   1.227  -7.050  0.00  0.00    +0.223 A 
ATOM      4  N   UNL     1      -5.511   1.817  -6.331  0.00  0.00    -0.246 N 
ATOM      5  H   UNL     1      -6.287   2.275  -6.691  0.00  0.00    +0.192 HD
ATOM      6  N   UNL     1      -5.209   1.649  -4.971  0.00  0.00    -0.171 NA
ATOM      7  O   UNL     1      -4.393   1.123  -8.395  0.00  0.00    -0.423 OA
ATOM      8  C   UNL     1      -3.478   0.248  -8.861  0.00  0.00    +0.200 C 
ATOM      9  C   UNL     1      -2.527  -0.327  -8.092  0.00  0.00    +0.098 C 
ATOM     10  C   UNL     1      -2.395  -0.036  -6.618  0.00  0.00    +0.102 C 
ENDROOT
BRANCH   1  14
ATOM     11  C   UNL     1      -2.125  -0.137  -1.266  0.00  0.00    -0.047 A 
ATOM     12  C   UNL     1      -2.807   1.064  -1.337  0.00  0.00    +0.004 A 
ATOM     13  C   UNL     1      -3.442   1.432  -2.506  0.00  0.00    +0.010 A 
ATOM     14  C   UNL     1      -3.394   0.591  -3.616  0.00  0.00    +0.003 A 
ATOM     15  C   UNL     1      -2.705  -0.617  -3.539  0.00  0.00    +0.010 A 
ATOM     16  C   UNL     1      -2.070  -0.973  -2.367  0.00  0.00    +0.004 A 
BRANCH  11  17
ATOM     17  C   UNL     1      -1.433  -0.534   0.013  0.00  0.00    +0.038 C 
BRANCH  17  19
ATOM     18  C   UNL     1      -0.019   1.526   0.010  0.00  0.00    +0.007 C 
ATOM     19  C   UNL     1       0.002  -0.004   0.002  0.00  0.00    -0.013 C 
ATOM     20  C   UNL     1       0.742  -0.511   1.242  0.00  0.00    +0.007 C 
ENDBRANCH  17  19
ENDBRANCH  11  17
ENDBRANCH   1  14
BRANCH  10  21
ATOM     21  C   UNL     1      -1.177   0.817  -6.374  0.00  0.00    -0.034 A 
ATOM     22  C   UNL     1      -1.069   2.054  -6.984  0.00  0.00    +0.005 A 
ATOM     23  C   UNL     1       0.046   2.839  -6.763  0.00  0.00    +0.015 A 
ATOM     24  C   UNL     1       1.059   2.385  -5.927  0.00  0.00    +0.008 A 
ATOM     25  C   UNL     1       0.946   1.141  -5.316  0.00  0.00    +0.015 A 
ATOM     26  C   UNL     1      -0.174   0.365  -5.537  0.00  0.00    +0.005 A 
BRANCH  24  27
ATOM     27  S   UNL     1       2.484   3.382  -5.643  0.00  0.00    -0.129 S 
ATOM     28  C   UNL     1       3.497   2.389  -4.513  0.00  0.00    +0.090 C 
ENDBRANCH  24  27
ENDBRANCH  10  21
BRANCH   8  29
ATOM     29  N   UNL     1      -3.514  -0.076 -10.195  0.00  0.00    -0.328 N 
ATOM     30  H   UNL     1      -4.185   0.320 -10.772  0.00  0.00    +0.145 HD
ATOM     31  H   UNL     1      -2.869  -0.702 -10.559  0.00  0.00    +0.145 HD
ENDBRANCH   8  29
BRANCH   9  32
ATOM     32  C   UNL     1      -1.611  -1.246  -8.698  0.00  0.00    +0.101 C 
ATOM     33  N   UNL     1      -0.885  -1.975  -9.180  0.00  0.00    -0.191 NA
ENDBRANCH   9  32
TORSDOF 7
