REMARK  Name = ZINC01089046
REMARK  6 active torsions:
REMARK  status: ('A' for Active; 'I' for Inactive)
REMARK    1  A    between atoms: C_7  and  C_11
REMARK    2  A    between atoms: N_12  and  N_13
REMARK    3  A    between atoms: C_14  and  C_16
REMARK    4  A    between atoms: C_17  and  N_29
REMARK    5  A    between atoms: N_19  and  C_21
REMARK    6  A    between atoms: C_21  and  C_22
REMARK                            x       y       z     vdW  Elec       q    Type
REMARK                         _______ _______ _______ _____ _____    ______ ____
ROOT
ATOM      1  N   UNL     1       1.964   6.551   0.018  0.00  0.00    -0.202 N 
ATOM      2  C   UNL     1       1.445   7.795   0.030  0.00  0.00    +0.286 C 
ATOM      3  O   UNL     1       0.239   7.950   0.042  0.00  0.00    -0.267 OA
ATOM      4  H   UNL     1       2.926   6.427   0.009  0.00  0.00    +0.178 HD
ENDROOT
BRANCH   2   5
ATOM      5  C   UNL     1       2.341   8.969   0.028  0.00  0.00    +0.179 A 
ATOM      6  C   UNL     1       1.948  10.328   0.039  0.00  0.00    +0.176 A 
ATOM      7  C   UNL     1       3.100  11.038   0.033  0.00  0.00    +0.142 A 
ATOM      8  N   UNL     1       4.117  10.150   0.019  0.00  0.00    -0.264 N 
ATOM      9  N   UNL     1       3.659   8.950   0.021  0.00  0.00    -0.164 NA
BRANCH   6  10
ATOM     10  N   UNL     1       0.567  10.861   0.054  0.00  0.00    +0.060 N 
ATOM     11  O   UNL     1       0.379  12.065   0.062  0.00  0.00    -0.126 OA
ATOM     12  O   UNL     1      -0.381  10.097   0.057  0.00  0.00    -0.126 OA
ENDBRANCH   6  10
BRANCH   8  13
ATOM     13  C   UNL     1       5.538  10.505   0.009  0.00  0.00    +0.178 C 
BRANCH  13  14
ATOM     14  C   UNL     1       6.233   9.829   1.163  0.00  0.00    -0.026 A 
ATOM     15  C   UNL     1       6.325  10.469   2.385  0.00  0.00    +0.006 A 
ATOM     16  C   UNL     1       6.957   9.847   3.445  0.00  0.00    +0.015 A 
ATOM     17  C   UNL     1       7.508   8.588   3.280  0.00  0.00    +0.018 A 
ATOM     18  C   UNL     1       7.420   7.951   2.056  0.00  0.00    +0.015 A 
ATOM     19  C   UNL     1       6.782   8.571   0.998  0.00  0.00    +0.006 A 
ATOM     20 BR   UNL     1       8.379   7.740   4.729  0.00  0.00    -0.050 Br
ENDBRANCH  13  14
ENDBRANCH   8  13
ENDBRANCH   2   5
BRANCH   1  22
ATOM     21  C   UNL     1       1.615   4.238   0.009  0.00  0.00    +0.140 C 
ATOM     22  N   UNL     1       1.115   5.437   0.020  0.00  0.00    -0.187 NA
BRANCH  21  29
ATOM     23  C   UNL     1      -3.045   3.774   0.050  0.00  0.00    +0.001 A 
ATOM     24  C   UNL     1      -3.443   2.444   0.047  0.00  0.00    +0.002 A 
ATOM     25  C   UNL     1      -2.510   1.432   0.033  0.00  0.00    +0.026 A 
ATOM     26  C   UNL     1      -1.153   1.738   0.016  0.00  0.00    +0.047 A 
ATOM     27  C   UNL     1      -0.751   3.084   0.025  0.00  0.00    +0.008 A 
ATOM     28  C   UNL     1      -1.706   4.098   0.039  0.00  0.00    +0.010 A 
ATOM     29  C   UNL     1       0.723   3.068   0.011  0.00  0.00    +0.020 A 
ATOM     30  C   UNL     1       1.097   1.760   0.001  0.00  0.00    +0.093 A 
ATOM     31  N   UNL     1      -0.011   0.966   0.007  0.00  0.00    -0.360 N 
ATOM     32  H   UNL     1       0.002  -0.004   0.002  0.00  0.00    +0.165 HD
ENDBRANCH  21  29
ENDBRANCH   1  22
TORSDOF 6
