REMARK  Name = ZINC20613855
REMARK  6 active torsions:
REMARK  status: ('A' for Active; 'I' for Inactive)
REMARK    1  A    between atoms: C_1  and  N_2
REMARK    2  A    between atoms: C_4  and  C_7
REMARK    3  A    between atoms: C_10  and  C_12
REMARK    4  A    between atoms: C_10  and  O_16
REMARK    5  A    between atoms: C_19  and  C_27
REMARK    6  A    between atoms: C_21  and  C_23
REMARK                            x       y       z     vdW  Elec       q    Type
REMARK                         _______ _______ _______ _____ _____    ______ ____
ROOT
ATOM      1  C   UNL     1      -0.795   1.612  -1.174  0.00  0.00    +0.074 C 
ATOM      2  N   UNL     1      -1.805   2.291  -0.753  0.00  0.00    -0.178 NA
ATOM      3  N   UNL     1      -1.907   2.360   0.635  0.00  0.00    -0.150 N 
ATOM      4  C   UNL     1      -0.787   1.609   1.234  0.00  0.00    +0.257 C 
ATOM      5  C   UNL     1      -0.013   1.086   0.008  0.00  0.00    +0.124 C 
ATOM      6  C   UNL     1      -2.897   3.025   1.337  0.00  0.00    +0.242 A 
ATOM      7  N   UNL     1      -3.842   3.667   0.669  0.00  0.00    -0.212 NA
ATOM      8  C   UNL     1      -4.812   4.313   1.317  0.00  0.00    +0.083 A 
ATOM      9  C   UNL     1      -4.809   4.310   2.718  0.00  0.00    +0.061 A 
ATOM     10  C   UNL     1      -3.799   3.631   3.373  0.00  0.00    +0.149 A 
ATOM     11  N   UNL     1      -2.871   3.007   2.663  0.00  0.00    -0.209 NA
ENDROOT
BRANCH   1  15
ATOM     12  C   UNL     1      -0.903   1.684  -6.173  0.00  0.00    +0.172 C 
ATOM     13  N   UNL     1      -0.506   1.417  -4.788  0.00  0.00    -0.274 N 
ATOM     14  C   UNL     1      -1.150   1.850  -3.685  0.00  0.00    +0.117 A 
ATOM     15  C   UNL     1      -0.455   1.382  -2.592  0.00  0.00    +0.035 A 
ATOM     16  C   UNL     1       0.648   0.648  -3.079  0.00  0.00    +0.144 A 
ATOM     17  N   UNL     1       0.606   0.669  -4.384  0.00  0.00    -0.179 NA
ENDBRANCH   1  15
BRANCH   8  18
ATOM     18  C   UNL     1      -5.868   5.023   0.571  0.00  0.00    +0.038 A 
ATOM     19  C   UNL     1      -6.037   5.144  -0.784  0.00  0.00    +0.017 A 
ATOM     20  C   UNL     1      -7.111   5.862  -1.255  0.00  0.00    +0.008 A 
ATOM     21  C   UNL     1      -7.965   6.436  -0.367  0.00  0.00    +0.046 A 
ATOM     22  S   UNL     1      -7.255   5.957   1.199  0.00  0.00    -0.095 S 
ENDBRANCH   8  18
BRANCH   4  23
ATOM     23  C   UNL     1      -1.309   0.445   2.079  0.00  0.00    +0.438 C 
ATOM     24  F   UNL     1      -0.231  -0.329   2.521  0.00  0.00    -0.166 F 
ATOM     25  F   UNL     1      -2.007   0.947   3.182  0.00  0.00    -0.166 F 
ATOM     26  F   UNL     1      -2.166  -0.345   1.305  0.00  0.00    -0.166 F 
ENDBRANCH   4  23
BRANCH  10  27
ATOM     27  C   UNL     1      -3.754   3.600   4.879  0.00  0.00    +0.434 C 
ATOM     28  F   UNL     1      -2.587   2.953   5.297  0.00  0.00    -0.164 F 
ATOM     29  F   UNL     1      -3.765   4.909   5.373  0.00  0.00    -0.164 F 
ATOM     30  F   UNL     1      -4.870   2.909   5.364  0.00  0.00    -0.164 F 
ENDBRANCH  10  27
BRANCH   4  31
ATOM     31  O   UNL     1       0.037   2.473   2.019  0.00  0.00    -0.363 OA
ATOM     32  H   UNL     1       0.920   2.069   2.537  0.00  0.00    +0.212 HD
ENDBRANCH   4  31
TORSDOF 5
