REMARK  Name = ZINC39682464
REMARK  8 active torsions:
REMARK  status: ('A' for Active; 'I' for Inactive)
REMARK    1  A    between atoms: C_4  and  C_7
REMARK    2  A    between atoms: C_7  and  C_9
REMARK    3  A    between atoms: C_7  and  N_13
REMARK    4  A    between atoms: C_9  and  C_10
REMARK    5  A    between atoms: C_14  and  C_16
REMARK    6  A    between atoms: C_27  and  C_29
REMARK    7  A    between atoms: C_29  and  O_30
REMARK    8  A    between atoms: O_30  and  C_31
REMARK                            x       y       z     vdW  Elec       q    Type
REMARK                         _______ _______ _______ _____ _____    ______ ____
ROOT
ATOM      1  C   UNL     1       4.639  -3.628   1.909  0.00  0.00    +0.100 C 
ATOM      2  C   UNL     1       4.381  -4.773   0.903  0.00  0.00    +0.121 C 
ATOM      3  N   UNL     1       5.726  -5.322   0.608  0.00  0.00    -0.297 N 
ATOM      4  C   UNL     1       6.428  -5.301   1.913  0.00  0.00    +0.115 C 
ATOM      5  C   UNL     1       5.981  -3.981   2.572  0.00  0.00    -0.004 C 
ATOM      6  C   UNL     1       5.793  -4.176   4.073  0.00  0.00    -0.010 C 
ATOM      7  C   UNL     1       7.151  -4.468   4.720  0.00  0.00    -0.082 C 
ATOM      8  N   UNL     1       8.067  -3.350   4.462  0.00  0.00    +0.379 N 
ATOM      9  C   UNL     1       8.316  -3.229   3.021  0.00  0.00    -0.082 C 
ATOM     10  C   UNL     1       7.008  -2.885   2.303  0.00  0.00    -0.010 C 
ATOM     11  C   UNL     1       6.202  -5.746  -0.580  0.00  0.00    +0.253 C 
ATOM     12  O   UNL     1       7.334  -6.173  -0.661  0.00  0.00    -0.272 OA
ATOM     13  H   UNL     1       7.657  -2.495   4.805  0.00  0.00    -0.086 HD
ATOM     14  H   UNL     1       8.941  -3.517   4.940  0.00  0.00    -0.086 HD
ENDROOT
BRANCH   1  16
ATOM     15  N   UNL     1       4.516  -1.159   1.851  0.00  0.00    -0.308 N 
ATOM     16  C   UNL     1       4.741  -2.309   1.187  0.00  0.00    +0.219 C 
ATOM     17  O   UNL     1       5.026  -2.284   0.008  0.00  0.00    -0.275 OA
ATOM     18  H   UNL     1       4.221  -1.181   2.775  0.00  0.00    +0.149 HD
BRANCH  15  19
ATOM     19  C   UNL     1       4.718   0.127   1.178  0.00  0.00    +0.114 C 
BRANCH  19  23
ATOM     20  C   UNL     1       5.760   3.099   4.064  0.00  0.00    +0.000 A 
ATOM     21  C   UNL     1       6.391   3.078   2.835  0.00  0.00    +0.000 A 
ATOM     22  C   UNL     1       6.054   2.116   1.901  0.00  0.00    +0.005 A 
ATOM     23  C   UNL     1       5.086   1.175   2.197  0.00  0.00    -0.027 A 
ATOM     24  C   UNL     1       4.455   1.195   3.427  0.00  0.00    +0.005 A 
ATOM     25  C   UNL     1       4.792   2.158   4.360  0.00  0.00    +0.000 A 
ENDBRANCH  19  23
BRANCH  19  26
ATOM     26  C   UNL     1       3.426   0.538   0.468  0.00  0.00    +0.152 C 
BRANCH  26  27
ATOM     27  C   UNL     1       3.680   1.770  -0.363  0.00  0.00    +0.358 C 
ATOM     28  O   UNL     1       4.813   2.206  -0.475  0.00  0.00    -0.246 OA
ATOM     29  O   UNL     1       2.753   2.330  -0.922  0.00  0.00    -0.246 OA
ENDBRANCH  26  27
ENDBRANCH  19  26
ENDBRANCH  15  19
ENDBRANCH   1  16
BRANCH  11  30
ATOM     30  C   UNL     1       5.329  -5.688  -1.806  0.00  0.00    +0.324 C 
BRANCH  30  31
ATOM     31  O   UNL     1       6.053  -6.188  -2.931  0.00  0.00    -0.483 OA
BRANCH  31  32
ATOM     32  C   UNL     1       5.405  -6.205  -4.125  0.00  0.00    +0.123 A 
ATOM     33  C   UNL     1       4.099  -5.744  -4.213  0.00  0.00    +0.046 A 
ATOM     34  C   UNL     1       3.441  -5.761  -5.428  0.00  0.00    +0.005 A 
ATOM     35  C   UNL     1       4.083  -6.237  -6.556  0.00  0.00    +0.020 A 
ATOM     36  C   UNL     1       5.385  -6.698  -6.472  0.00  0.00    +0.044 A 
ATOM     37  C   UNL     1       6.049  -6.678  -5.259  0.00  0.00    +0.065 A 
ATOM     38 CL   UNL     1       6.187  -7.296  -7.890  0.00  0.00    -0.083 Cl
ENDBRANCH  31  32
ENDBRANCH  30  31
ENDBRANCH  11  30
TORSDOF 8
