REMARK  Name = ZINC09366932
REMARK  5 active torsions:
REMARK  status: ('A' for Active; 'I' for Inactive)
REMARK    1  A    between atoms: C_1  and  C_2
REMARK    2  A    between atoms: C_2  and  C_4
REMARK    3  A    between atoms: C_2  and  N_16
REMARK    4  A    between atoms: N_12  and  C_13
REMARK    5  A    between atoms: C_24  and  C_26
REMARK                            x       y       z     vdW  Elec       q    Type
REMARK                         _______ _______ _______ _____ _____    ______ ____
ROOT
ATOM      1  N   UNL     1      -1.756   7.526  -0.922  0.00  0.00    -0.319 N 
ATOM      2  C   UNL     1      -2.501   8.552  -1.474  0.00  0.00    +0.132 A 
ATOM      3  C   UNL     1      -1.918   9.436  -2.426  0.00  0.00    +0.051 A 
ATOM      4  C   UNL     1      -0.545   9.431  -2.955  0.00  0.00    -0.025 A 
ATOM      5  C   UNL     1      -0.237  10.379  -3.854  0.00  0.00    -0.004 A 
ATOM      6  S   UNL     1      -1.727  11.330  -4.054  0.00  0.00    -0.073 S 
ATOM      7  C   UNL     1      -2.765  10.444  -2.923  0.00  0.00    +0.114 A 
ATOM      8  N   UNL     1      -4.017  10.553  -2.525  0.00  0.00    -0.220 NA
ATOM      9  C   UNL     1      -4.510   9.702  -1.634  0.00  0.00    +0.164 A 
ATOM     10  N   UNL     1      -3.766   8.722  -1.129  0.00  0.00    -0.212 NA
ATOM     11  C   UNL     1       1.188  10.274  -4.327  0.00  0.00    +0.043 C 
ATOM     12  C   UNL     1       1.627   8.850  -3.919  0.00  0.00    +0.010 C 
ATOM     13  C   UNL     1       0.698   8.567  -2.722  0.00  0.00    +0.037 C 
ATOM     14  H   UNL     1      -0.830   7.404  -1.183  0.00  0.00    +0.148 HD
ENDROOT
BRANCH   9  15
ATOM     15  C   UNL     1      -5.920   9.841  -1.199  0.00  0.00    +0.037 A 
ATOM     16  C   UNL     1      -6.725  10.862  -1.714  0.00  0.00    +0.014 A 
ATOM     17  C   UNL     1      -8.037  10.946  -1.279  0.00  0.00    +0.020 A 
ATOM     18  C   UNL     1      -8.501  10.034  -0.349  0.00  0.00    +0.111 A 
ATOM     19  N   UNL     1      -7.716   9.085   0.123  0.00  0.00    -0.263 NA
ATOM     20  C   UNL     1      -6.463   8.961  -0.265  0.00  0.00    +0.122 A 
ENDBRANCH   9  15
BRANCH   1  22
ATOM     21  C   UNL     1      -2.273   7.243   1.451  0.00  0.00    +0.036 C 
ATOM     22  C   UNL     1      -2.366   6.622   0.056  0.00  0.00    +0.135 C 
BRANCH  22  23
ATOM     23  C   UNL     1      -1.638   5.303   0.044  0.00  0.00    +0.135 A 
ATOM     24  N   UNL     1      -0.344   5.166   0.031  0.00  0.00    -0.230 NA
ATOM     25  C   UNL     1      -0.025   3.846   0.022  0.00  0.00    +0.090 A 
ATOM     26  C   UNL     1       1.185   3.147   0.007  0.00  0.00    +0.030 A 
ATOM     27  C   UNL     1       1.183   1.781   0.000  0.00  0.00    +0.002 A 
ATOM     28  C   UNL     1      -0.013   1.076   0.008  0.00  0.00    +0.002 A 
ATOM     29  C   UNL     1      -1.218   1.744   0.017  0.00  0.00    +0.028 A 
ATOM     30  C   UNL     1      -1.235   3.132   0.030  0.00  0.00    +0.074 A 
ATOM     31  N   UNL     1      -2.237   4.082   0.044  0.00  0.00    -0.269 N 
BRANCH  31  32
ATOM     32  C   UNL     1      -3.679   3.822   0.057  0.00  0.00    +0.449 C 
ATOM     33  F   UNL     1      -4.244   4.383   1.207  0.00  0.00    -0.185 F 
ATOM     34  F   UNL     1      -4.266   4.394  -1.077  0.00  0.00    -0.185 F 
ENDBRANCH  31  32
ENDBRANCH  22  23
ENDBRANCH   1  22
TORSDOF 4
