REMARK  Name = ZINC02626903
REMARK  11 active torsions:
REMARK  status: ('A' for Active; 'I' for Inactive)
REMARK    1  A    between atoms: C_1  and  C_2
REMARK    2  A    between atoms: C_2  and  C_3
REMARK    3  A    between atoms: C_6  and  N_9
REMARK    4  A    between atoms: C_19  and  S_20
REMARK    5  A    between atoms: S_20  and  C_21
REMARK    6  A    between atoms: C_21  and  C_22
REMARK    7  A    between atoms: C_22  and  C_24
REMARK    8  A    between atoms: C_25  and  C_34
REMARK    9  A    between atoms: C_26  and  C_31
REMARK   10  A    between atoms: C_27  and  C_30
REMARK   11  A    between atoms: C_31  and  C_33
REMARK                            x       y       z     vdW  Elec       q    Type
REMARK                         _______ _______ _______ _____ _____    ______ ____
ROOT
ATOM      1  N   UNL     1       5.618  -2.621   0.385  0.00  0.00    -0.255 N 
ATOM      2  C   UNL     1       5.706  -3.806  -0.262  0.00  0.00    +0.267 A 
ATOM      3  O   UNL     1       6.757  -4.184  -0.745  0.00  0.00    -0.267 OA
ATOM      4  C   UNL     1       4.487  -4.619  -0.359  0.00  0.00    +0.065 A 
ATOM      5  C   UNL     1       4.475  -5.855  -1.005  0.00  0.00    +0.015 A 
ATOM      6  C   UNL     1       3.312  -6.572  -1.066  0.00  0.00    +0.001 A 
ATOM      7  C   UNL     1       2.145  -6.083  -0.493  0.00  0.00    +0.002 A 
ATOM      8  C   UNL     1       2.128  -4.875   0.146  0.00  0.00    +0.028 A 
ATOM      9  C   UNL     1       3.301  -4.118   0.226  0.00  0.00    +0.079 A 
ATOM     10  N   UNL     1       3.331  -2.920   0.853  0.00  0.00    -0.223 NA
ATOM     11  C   UNL     1       4.430  -2.210   0.923  0.00  0.00    +0.177 A 
ENDROOT
BRANCH   1  15
ATOM     12  C   UNL     1       8.995  -0.204   0.740  0.00  0.00    -0.047 A 
ATOM     13  C   UNL     1       8.716  -1.148   1.712  0.00  0.00    +0.005 A 
ATOM     14  C   UNL     1       7.598  -1.950   1.597  0.00  0.00    +0.026 A 
ATOM     15  C   UNL     1       6.753  -1.808   0.505  0.00  0.00    +0.052 A 
ATOM     16  C   UNL     1       7.038  -0.864  -0.472  0.00  0.00    +0.026 A 
ATOM     17  C   UNL     1       8.155  -0.061  -0.349  0.00  0.00    +0.005 A 
BRANCH  12  19
ATOM     18  C   UNL     1      11.405  -0.011   0.187  0.00  0.00    +0.009 C 
ATOM     19  C   UNL     1      10.216   0.669   0.869  0.00  0.00    +0.032 C 
ENDBRANCH  12  19
ENDBRANCH   1  15
BRANCH  11  20
ATOM     20  S   UNL     1       4.375  -0.657   1.753  0.00  0.00    -0.079 S 
BRANCH  20  21
ATOM     21  C   UNL     1       2.633  -0.622   2.243  0.00  0.00    +0.158 C 
BRANCH  21  22
ATOM     22  C   UNL     1       2.347   0.654   2.991  0.00  0.00    +0.190 C 
ATOM     23  O   UNL     1       3.234   1.462   3.175  0.00  0.00    -0.290 OA
BRANCH  22  24
ATOM     24  C   UNL     1       1.043   0.911   3.479  0.00  0.00    +0.087 A 
ATOM     25  C   UNL     1       0.646   2.031   4.175  0.00  0.00    -0.012 A 
ATOM     26  C   UNL     1      -0.729   1.869   4.461  0.00  0.00    +0.041 A 
ATOM     27  C   UNL     1      -1.117   0.652   3.920  0.00  0.00    +0.024 A 
ATOM     28  N   UNL     1      -0.053   0.082   3.340  0.00  0.00    -0.355 N 
ATOM     29  H   UNL     1      -0.052  -0.776   2.888  0.00  0.00    +0.166 HD
ATOM     30  C   UNL     1      -2.505   0.068   3.978  0.00  0.00    +0.064 C 
ATOM     31  C   UNL     1       1.511   3.205   4.557  0.00  0.00    +0.047 C 
BRANCH  26  32
ATOM     32  C   UNL     1      -1.584   2.813   5.188  0.00  0.00    +0.162 C 
ATOM     33  O   UNL     1      -2.128   3.720   4.595  0.00  0.00    -0.292 OA
ATOM     34  C   UNL     1      -1.788   2.655   6.673  0.00  0.00    +0.091 C 
ENDBRANCH  26  32
ENDBRANCH  22  24
ENDBRANCH  21  22
ENDBRANCH  20  21
ENDBRANCH  11  20
TORSDOF 7
