REMARK  Name = ZINC01074685
REMARK  8 active torsions:
REMARK  status: ('A' for Active; 'I' for Inactive)
REMARK    1  A    between atoms: C_1  and  C_2
REMARK    2  A    between atoms: C_3  and  C_27
REMARK    3  A    between atoms: C_4  and  C_20
REMARK    4  A    between atoms: C_10  and  C_15
REMARK    5  A    between atoms: C_27  and  O_29
REMARK    6  A    between atoms: O_29  and  C_30
REMARK    7  A    between atoms: C_30  and  C_31
REMARK    8  A    between atoms: C_31  and  C_32
REMARK                            x       y       z     vdW  Elec       q    Type
REMARK                         _______ _______ _______ _____ _____    ______ ____
ROOT
ATOM      1  C   UNL     1       2.425   1.292   0.089  0.00  0.00    +0.061 C 
ATOM      2  C   UNL     1       1.134   2.067   0.048  0.00  0.00    +0.016 C 
ATOM      3  C   UNL     1      -0.020   1.428  -0.208  0.00  0.00    +0.065 C 
ATOM      4  C   UNL     1      -1.325   2.167  -0.256  0.00  0.00    +0.092 C 
ATOM      5  C   UNL     1      -1.104   3.649  -0.408  0.00  0.00    +0.024 C 
ATOM      6  C   UNL     1       0.098   4.199  -0.136  0.00  0.00    +0.016 C 
ATOM      7  N   UNL     1       1.145   3.416   0.271  0.00  0.00    -0.321 N 
ATOM      8  C   UNL     1       0.321   5.685  -0.269  0.00  0.00    +0.060 C 
ATOM      9  C   UNL     1      -0.575   6.241  -1.378  0.00  0.00    +0.039 C 
ATOM     10  C   UNL     1      -2.034   5.926  -1.029  0.00  0.00    +0.088 C 
ATOM     11  C   UNL     1      -2.182   4.440  -0.842  0.00  0.00    +0.162 C 
ATOM     12  O   UNL     1      -3.254   3.915  -1.071  0.00  0.00    -0.292 OA
ATOM     13  H   UNL     1       1.999   3.882   0.783  0.00  0.00    +0.152 HD
ENDROOT
BRANCH   4  14
ATOM     14  C   UNL     1      -2.085   1.913   1.021  0.00  0.00    -0.035 A 
ATOM     15  C   UNL     1      -1.532   2.272   2.236  0.00  0.00    +0.006 A 
ATOM     16  C   UNL     1      -2.230   2.044   3.407  0.00  0.00    +0.020 A 
ATOM     17  C   UNL     1      -3.478   1.448   3.364  0.00  0.00    +0.041 A 
ATOM     18  C   UNL     1      -4.028   1.085   2.147  0.00  0.00    +0.020 A 
ATOM     19  C   UNL     1      -3.331   1.318   0.977  0.00  0.00    +0.006 A 
ATOM     20 CL   UNL     1      -4.353   1.157   4.835  0.00  0.00    -0.084 Cl
ENDBRANCH   4  14
BRANCH   9  21
ATOM     21  C   UNL     1      -0.391   7.733  -1.483  0.00  0.00    -0.006 A 
ATOM     22  C   UNL     1       0.018   8.470  -2.545  0.00  0.00    +0.011 A 
ATOM     23  C   UNL     1       0.113   9.843  -2.411  0.00  0.00    +0.008 A 
ATOM     24  C   UNL     1      -0.204  10.411  -1.222  0.00  0.00    +0.045 A 
ATOM     25  S   UNL     1      -0.663   8.989  -0.244  0.00  0.00    -0.101 S 
ENDBRANCH   9  21
BRANCH   3  26
ATOM     26  C   UNL     1      -0.004   0.033  -0.443  0.00  0.00    +0.338 C 
ATOM     27  O   UNL     1       1.057  -0.556  -0.533  0.00  0.00    -0.245 OA
BRANCH  26  28
ATOM     28  O   UNL     1      -1.165  -0.644  -0.567  0.00  0.00    -0.461 OA
BRANCH  28  29
ATOM     29  C   UNL     1      -1.073  -2.050  -0.802  0.00  0.00    +0.237 C 
BRANCH  29  30
ATOM     30  C   UNL     1      -2.480  -2.642  -0.913  0.00  0.00    +0.076 C 
BRANCH  30  31
ATOM     31  C   UNL     1      -2.384  -4.125  -1.162  0.00  0.00    -0.044 A 
ATOM     32  C   UNL     1      -2.335  -4.607  -2.457  0.00  0.00    +0.004 A 
ATOM     33  C   UNL     1      -2.243  -5.967  -2.685  0.00  0.00    +0.000 A 
ATOM     34  C   UNL     1      -2.207  -6.846  -1.619  0.00  0.00    +0.000 A 
ATOM     35  C   UNL     1      -2.260  -6.364  -0.324  0.00  0.00    +0.000 A 
ATOM     36  C   UNL     1      -2.349  -5.004  -0.096  0.00  0.00    +0.004 A 
ENDBRANCH  30  31
ENDBRANCH  29  30
ENDBRANCH  28  29
ENDBRANCH  26  28
ENDBRANCH   3  26
TORSDOF 7
