REMARK  Name = ZINC07330986
REMARK  3 active torsions:
REMARK  status: ('A' for Active; 'I' for Inactive)
REMARK    1  A    between atoms: C_3  and  C_6
REMARK    2  A    between atoms: N_9  and  C_11
REMARK    3  A    between atoms: C_11  and  C_12
REMARK                            x       y       z     vdW  Elec       q    Type
REMARK                         _______ _______ _______ _____ _____    ______ ____
ROOT
ATOM      1  C   UNL     1      -2.629  -4.149   0.008  0.00  0.00    +0.204 C 
ENDROOT
BRANCH   1   2
ATOM      2  C   UNL     1      -2.768  -4.629  -1.414  0.00  0.00    -0.007 A 
ATOM      3  C   UNL     1      -1.736  -5.332  -2.009  0.00  0.00    +0.056 A 
ATOM      4  C   UNL     1      -1.862  -5.775  -3.315  0.00  0.00    +0.167 A 
ATOM      5  C   UNL     1      -3.029  -5.510  -4.028  0.00  0.00    +0.167 A 
ATOM      6  C   UNL     1      -4.058  -4.804  -3.427  0.00  0.00    +0.065 A 
ATOM      7  C   UNL     1      -3.929  -4.370  -2.120  0.00  0.00    +0.027 A 
ATOM      8 BR   UNL     1      -5.339  -3.414  -1.299  0.00  0.00    -0.050 Br
ATOM      9  O   UNL     1      -2.908  -6.046  -5.277  0.00  0.00    -0.453 OA
ATOM     10  C   UNL     1      -1.500  -6.285  -5.459  0.00  0.00    +0.466 C 
ATOM     11  O   UNL     1      -1.010  -6.477  -4.118  0.00  0.00    -0.453 OA
ENDBRANCH   1   2
BRANCH   1  15
ATOM     12  C   UNL     1      -1.134  -0.952   0.009  0.00  0.00    +0.211 A 
ATOM     13  N   UNL     1      -2.439  -0.639   0.023  0.00  0.00    -0.107 NA
ATOM     14  N   UNL     1      -3.098  -1.748   0.024  0.00  0.00    -0.045 NA
ATOM     15  N   UNL     1      -2.265  -2.730   0.011  0.00  0.00    -0.158 N 
ATOM     16  N   UNL     1      -1.062  -2.269  -0.005  0.00  0.00    -0.130 NA
BRANCH  12  19
ATOM     17  C   UNL     1       1.183   2.043   0.002  0.00  0.00    +0.008 A 
ATOM     18  C   UNL     1      -0.017   1.364   0.009  0.00  0.00    +0.019 A 
ATOM     19  C   UNL     1       0.002  -0.004   0.002  0.00  0.00    +0.060 A 
ATOM     20  S   UNL     1       1.754  -0.348  -0.017  0.00  0.00    -0.093 S 
ATOM     21  C   UNL     1       2.342   1.338  -0.013  0.00  0.00    +0.046 A 
ENDBRANCH  12  19
ENDBRANCH   1  15
TORSDOF 3
