REMARK  Name = ZINC04057159
REMARK  11 active torsions:
REMARK  status: ('A' for Active; 'I' for Inactive)
REMARK    1  A    between atoms: C_1  and  C_2
REMARK    2  A    between atoms: C_2  and  C_3
REMARK    3  A    between atoms: C_3  and  C_4
REMARK    4  A    between atoms: C_4  and  O_5
REMARK    5  A    between atoms: O_5  and  C_6
REMARK    6  A    between atoms: C_9  and  O_27
REMARK    7  A    between atoms: C_24  and  C_26
REMARK    8  A    between atoms: O_27  and  C_28
REMARK    9  A    between atoms: C_28  and  C_29
REMARK   10  A    between atoms: C_29  and  C_30
REMARK   11  A    between atoms: C_30  and  C_31
REMARK                            x       y       z     vdW  Elec       q    Type
REMARK                         _______ _______ _______ _____ _____    ______ ____
ROOT
ATOM      1  C   UNL     1       1.554  -3.876   2.538  0.00  0.00    +0.142 A 
ATOM      2  C   UNL     1       1.017  -4.724   1.583  0.00  0.00    +0.051 A 
ATOM      3  C   UNL     1       1.135  -6.094   1.728  0.00  0.00    +0.051 A 
ATOM      4  C   UNL     1       1.791  -6.620   2.827  0.00  0.00    +0.143 A 
ATOM      5  C   UNL     1       2.333  -5.769   3.792  0.00  0.00    +0.095 A 
ATOM      6  C   UNL     1       2.219  -4.397   3.642  0.00  0.00    +0.080 A 
ATOM      7  N   UNL     1       2.839  -3.745   4.717  0.00  0.00    -0.373 NA
ATOM      8  C   UNL     1       3.377  -4.789   5.594  0.00  0.00    +0.190 C 
ATOM      9  N   UNL     1       3.030  -6.065   4.974  0.00  0.00    -0.309 N 
ATOM     10  C   UNL     1       4.862  -4.638   5.785  0.00  0.00    +0.023 A 
ATOM     11  C   UNL     1       5.931  -4.641   4.917  0.00  0.00    +0.009 A 
ATOM     12  C   UNL     1       7.216  -4.474   5.402  0.00  0.00    +0.001 A 
ATOM     13  C   UNL     1       7.423  -4.306   6.759  0.00  0.00    +0.002 A 
ATOM     14  C   UNL     1       6.355  -4.304   7.631  0.00  0.00    +0.024 A 
ATOM     15  C   UNL     1       5.058  -4.471   7.151  0.00  0.00    +0.051 A 
ATOM     16  N   UNL     1       3.832  -4.506   7.824  0.00  0.00    -0.207 N 
ATOM     17  C   UNL     1       2.798  -4.690   6.982  0.00  0.00    +0.271 C 
ATOM     18  O   UNL     1       1.625  -4.762   7.283  0.00  0.00    -0.270 OA
ATOM     19  C   UNL     1       3.701  -4.371   9.158  0.00  0.00    +0.223 C 
ATOM     20  O   UNL     1       4.687  -4.306   9.861  0.00  0.00    -0.275 OA
ATOM     21  C   UNL     1       2.329  -4.300   9.778  0.00  0.00    +0.110 C 
ATOM     22  H   UNL     1       3.588  -3.160   4.380  0.00  0.00    +0.126 HD
ATOM     23  H   UNL     1       3.249  -6.949   5.310  0.00  0.00    +0.149 HD
ATOM     24  H   UNL     1       2.162  -3.189   5.219  0.00  0.00    +0.126 HD
ENDROOT
BRANCH   1  25
ATOM     25  O   UNL     1       1.436  -2.530   2.393  0.00  0.00    -0.490 OA
BRANCH  25  26
ATOM     26  C   UNL     1       0.740  -2.061   1.236  0.00  0.00    +0.229 C 
BRANCH  26  27
ATOM     27  C   UNL     1       0.709  -0.531   1.244  0.00  0.00    +0.041 C 
BRANCH  27  29
ATOM     28  C   UNL     1      -0.068   1.500   0.014  0.00  0.00    +0.004 C 
ATOM     29  C   UNL     1      -0.036  -0.030   0.005  0.00  0.00    -0.000 C 
ENDBRANCH  27  29
ENDBRANCH  26  27
ENDBRANCH  25  26
ENDBRANCH   1  25
BRANCH   4  30
ATOM     30  O   UNL     1       1.906  -7.968   2.968  0.00  0.00    -0.490 OA
BRANCH  30  31
ATOM     31  C   UNL     1       1.327  -8.780   1.944  0.00  0.00    +0.229 C 
BRANCH  31  32
ATOM     32  C   UNL     1       1.556 -10.256   2.273  0.00  0.00    +0.041 C 
BRANCH  32  33
ATOM     33  C   UNL     1       0.936 -11.125   1.177  0.00  0.00    -0.000 C 
ATOM     34  C   UNL     1       1.165 -12.602   1.506  0.00  0.00    +0.004 C 
ENDBRANCH  32  33
ENDBRANCH  31  32
ENDBRANCH  30  31
ENDBRANCH   4  30
TORSDOF 8
