REMARK  Name = ZINC23718943
REMARK  5 active torsions:
REMARK  status: ('A' for Active; 'I' for Inactive)
REMARK    1  A    between atoms: C_1  and  C_2
REMARK    2  A    between atoms: N_10  and  C_14
REMARK    3  A    between atoms: C_14  and  N_15
REMARK    4  A    between atoms: N_18  and  S_21
REMARK    5  A    between atoms: S_21  and  C_24
REMARK                            x       y       z     vdW  Elec       q    Type
REMARK                         _______ _______ _______ _____ _____    ______ ____
ROOT
ATOM      1  N   UNL     1      -2.981   0.667   4.382  0.00  0.00    -0.284 NA
ATOM      2  C   UNL     1      -3.282   1.905   3.651  0.00  0.00    +0.103 C 
ATOM      3  C   UNL     1      -3.981   1.559   2.332  0.00  0.00    +0.125 C 
ATOM      4  N   UNL     1      -3.147   0.592   1.601  0.00  0.00    -0.174 NA
ATOM      5  C   UNL     1      -2.696  -0.614   2.312  0.00  0.00    +0.125 C 
ATOM      6  C   UNL     1      -2.043  -0.179   3.633  0.00  0.00    +0.103 C 
ENDROOT
BRANCH   4   7
ATOM      7  S   UNL     1      -2.734   0.852   0.019  0.00  0.00    +0.061 S 
ATOM      8  O   UNL     1      -3.721   1.718  -0.522  0.00  0.00    -0.153 OA
ATOM      9  O   UNL     1      -2.449  -0.423  -0.541  0.00  0.00    -0.153 OA
BRANCH   7  10
ATOM     10  C   UNL     1      -1.219   1.751   0.017  0.00  0.00    +0.106 A 
ATOM     11  C   UNL     1      -0.013   1.076   0.008  0.00  0.00    +0.029 A 
ATOM     12  C   UNL     1       1.173   1.783   0.000  0.00  0.00    +0.006 A 
ATOM     13  C   UNL     1       1.159   3.168   0.008  0.00  0.00    -0.044 A 
ATOM     14  C   UNL     1      -0.047   3.844   0.023  0.00  0.00    -0.042 A 
ATOM     15  C   UNL     1      -1.235   3.132   0.031  0.00  0.00    +0.032 A 
ATOM     16  C   UNL     1       0.203   5.336   0.029  0.00  0.00    +0.036 C 
ATOM     17  C   UNL     1       1.669   5.503  -0.424  0.00  0.00    +0.009 C 
ATOM     18  C   UNL     1       2.302   4.161   0.003  0.00  0.00    +0.036 C 
ENDBRANCH   7  10
ENDBRANCH   4   7
BRANCH   1  19
ATOM     19  C   UNL     1      -2.467   0.961   5.726  0.00  0.00    +0.205 C 
BRANCH  19  29
ATOM     20  C   UNL     1      -3.414  -5.462  10.401  0.00  0.00    +0.007 C 
ATOM     21  C   UNL     1      -2.698  -4.550   9.402  0.00  0.00    -0.014 C 
ATOM     22  C   UNL     1      -3.559  -4.394   8.147  0.00  0.00    +0.006 C 
ATOM     23  C   UNL     1      -2.836  -3.491   7.144  0.00  0.00    +0.035 C 
ATOM     24  C   UNL     1      -2.579  -2.128   7.776  0.00  0.00    +0.113 C 
ATOM     25  C   UNL     1      -1.743  -2.270   9.043  0.00  0.00    +0.035 C 
ATOM     26  C   UNL     1      -2.470  -3.178  10.039  0.00  0.00    +0.006 C 
ATOM     27  C   UNL     1      -1.890  -1.212   6.791  0.00  0.00    +0.248 C 
ATOM     28  O   UNL     1      -0.807  -1.375   6.271  0.00  0.00    -0.273 OA
ATOM     29  N   UNL     1      -2.735  -0.176   6.611  0.00  0.00    -0.211 N 
ATOM     30  C   UNL     1      -3.846  -0.312   7.345  0.00  0.00    +0.310 C 
ATOM     31  O   UNL     1      -4.753   0.496   7.356  0.00  0.00    -0.252 OA
ATOM     32  N   UNL     1      -3.847  -1.448   8.069  0.00  0.00    -0.285 N 
ATOM     33  H   UNL     1      -4.565  -1.901   8.769  0.00  0.00    +0.151 HD
ENDBRANCH  19  29
ENDBRANCH   1  19
TORSDOF 4
