REMARK  Name = ZINC10257355
REMARK  5 active torsions:
REMARK  status: ('A' for Active; 'I' for Inactive)
REMARK    1  A    between atoms: C_4  and  N_24
REMARK    2  A    between atoms: C_5  and  N_7
REMARK    3  A    between atoms: C_8  and  C_10
REMARK    4  A    between atoms: C_10  and  S_11
REMARK    5  A    between atoms: S_11  and  C_12
REMARK                            x       y       z     vdW  Elec       q    Type
REMARK                         _______ _______ _______ _____ _____    ______ ____
ROOT
ATOM      1  C   UNL     1       0.030  -4.196   0.026  0.00  0.00    +0.171 C 
ENDROOT
BRANCH   1   3
ATOM      2  N   UNL     1       1.217  -2.026  -0.008  0.00  0.00    -0.283 N 
ATOM      3  C   UNL     1       0.048  -2.693  -0.084  0.00  0.00    +0.227 C 
ATOM      4  O   UNL     1      -0.989  -2.084  -0.239  0.00  0.00    -0.275 OA
ATOM      5  H   UNL     1       2.053  -2.515   0.039  0.00  0.00    +0.155 HD
BRANCH   2  10
ATOM      6  C   UNL     1       0.212   1.452   0.639  0.00  0.00    +0.002 A 
ATOM      7  C   UNL     1       1.238   2.140   0.017  0.00  0.00    +0.002 A 
ATOM      8  C   UNL     1       2.256   1.449  -0.613  0.00  0.00    +0.034 A 
ATOM      9  C   UNL     1       2.252   0.068  -0.623  0.00  0.00    +0.147 A 
ATOM     10  C   UNL     1       1.224  -0.626   0.001  0.00  0.00    +0.064 A 
ATOM     11  C   UNL     1       0.203   0.071   0.633  0.00  0.00    +0.025 A 
BRANCH   9  12
ATOM     12  N   UNL     1       3.342  -0.671  -1.299  0.00  0.00    +0.058 N 
ATOM     13  O   UNL     1       4.188  -0.068  -1.918  0.00  0.00    -0.126 OA
ATOM     14  O   UNL     1       3.387  -1.877  -1.231  0.00  0.00    -0.126 OA
ENDBRANCH   9  12
ENDBRANCH   2  10
ENDBRANCH   1   3
BRANCH   1  15
ATOM     15  S   UNL     1      -1.677  -4.792  -0.112  0.00  0.00    -0.096 S 
BRANCH  15  16
ATOM     16  C   UNL     1      -1.531  -6.542   0.034  0.00  0.00    +0.108 A 
ATOM     17  C   UNL     1      -2.687  -7.357  -0.035  0.00  0.00    +0.004 A 
ATOM     18  C   UNL     1      -2.547  -8.692   0.072  0.00  0.00    +0.026 A 
ATOM     19  N   UNL     1      -1.295  -9.216   0.257  0.00  0.00    -0.310 N 
ATOM     20  H   UNL     1      -1.185 -10.176   0.343  0.00  0.00    +0.170 HD
ATOM     21  C   UNL     1      -0.218  -8.416   0.319  0.00  0.00    +0.347 A 
ATOM     22  O   UNL     1       0.887  -8.908   0.479  0.00  0.00    -0.245 OA
ATOM     23  N   UNL     1      -0.339  -7.096   0.203  0.00  0.00    -0.186 NA
ATOM     24  C   UNL     1      -3.708  -9.646  -0.010  0.00  0.00    +0.054 C 
ATOM     25  C   UNL     1      -5.027  -8.910   0.222  0.00  0.00    +0.006 C 
ATOM     26  C   UNL     1      -5.066  -7.687  -0.703  0.00  0.00    +0.005 C 
ATOM     27  C   UNL     1      -4.020  -6.685  -0.219  0.00  0.00    +0.039 C 
ENDBRANCH  15  16
ENDBRANCH   1  15
TORSDOF 5
