REMARK  Name = ZINC01001903
REMARK  11 active torsions:
REMARK  status: ('A' for Active; 'I' for Inactive)
REMARK    1  A    between atoms: C_1  and  C_2
REMARK    2  A    between atoms: C_7  and  O_8
REMARK    3  A    between atoms: O_8  and  C_9
REMARK    4  A    between atoms: C_9  and  C_11
REMARK    5  A    between atoms: C_9  and  C_12
REMARK    6  A    between atoms: N_14  and  N_15
REMARK    7  A    between atoms: C_16  and  C_18
REMARK    8  A    between atoms: C_21  and  C_24
REMARK    9  A    between atoms: C_24  and  C_25
REMARK   10  A    between atoms: C_24  and  C_26
REMARK   11  A    between atoms: C_24  and  C_27
REMARK                            x       y       z     vdW  Elec       q    Type
REMARK                         _______ _______ _______ _____ _____    ______ ____
ROOT
ATOM      1  C   UNL     1      -0.043   5.452   0.530  0.00  0.00    +0.270 C 
ATOM      2  O   UNL     1       1.020   5.885   0.922  0.00  0.00    -0.270 OA
ATOM      3  N   UNL     1      -1.158   6.200   0.644  0.00  0.00    -0.231 N 
ATOM      4  H   UNL     1      -2.008   5.855   0.331  0.00  0.00    +0.173 HD
ENDROOT
BRANCH   3   5
ATOM      5  N   UNL     1      -1.089   7.477   1.218  0.00  0.00    -0.230 N 
ATOM      6  C   UNL     1      -2.204   8.225   1.333  0.00  0.00    +0.260 C 
ATOM      7  O   UNL     1      -3.270   7.792   0.939  0.00  0.00    -0.269 OA
ATOM      8  H   UNL     1      -0.239   7.823   1.532  0.00  0.00    +0.173 HD
BRANCH   6   9
ATOM      9  C   UNL     1      -2.132   9.572   1.937  0.00  0.00    +0.038 A 
ATOM     10  C   UNL     1      -0.911  10.070   2.395  0.00  0.00    +0.013 A 
ATOM     11  C   UNL     1      -0.850  11.330   2.955  0.00  0.00    +0.005 A 
ATOM     12  C   UNL     1      -1.996  12.095   3.071  0.00  0.00    -0.042 A 
ATOM     13  C   UNL     1      -3.211  11.605   2.623  0.00  0.00    +0.005 A 
ATOM     14  C   UNL     1      -3.285  10.349   2.058  0.00  0.00    +0.013 A 
BRANCH  12  15
ATOM     15  C   UNL     1      -1.923  13.468   3.688  0.00  0.00    -0.013 C 
ATOM     16  C   UNL     1      -2.823  13.521   4.924  0.00  0.00    +0.015 C 
ATOM     17  C   UNL     1      -0.479  13.767   4.096  0.00  0.00    +0.015 C 
ATOM     18  C   UNL     1      -2.391  14.510   2.671  0.00  0.00    +0.015 C 
ENDBRANCH  12  15
ENDBRANCH   6   9
ENDBRANCH   3   5
BRANCH   1  19
ATOM     19  C   UNL     1      -0.117   4.079  -0.087  0.00  0.00    +0.257 C 
ATOM     20  C   UNL     1      -0.516   4.202  -1.559  0.00  0.00    +0.062 C 
BRANCH  19  21
ATOM     21  O   UNL     1       1.160   3.445   0.009  0.00  0.00    -0.480 OA
BRANCH  21  28
ATOM     22  C   UNL     1       3.645   2.170   0.435  0.00  0.00    +0.047 C 
ATOM     23  C   UNL     1       2.367   1.404   0.207  0.00  0.00    -0.009 A 
ATOM     24  C   UNL     1       2.380   0.022   0.200  0.00  0.00    +0.007 A 
ATOM     25  C   UNL     1       1.208  -0.680  -0.009  0.00  0.00    +0.000 A 
ATOM     26  C   UNL     1       0.020  -0.003  -0.212  0.00  0.00    +0.004 A 
ATOM     27  C   UNL     1       0.001   1.378  -0.206  0.00  0.00    +0.046 A 
ATOM     28  C   UNL     1       1.176   2.086   0.003  0.00  0.00    +0.124 A 
ENDBRANCH  21  28
ENDBRANCH  19  21
ENDBRANCH   1  19
TORSDOF 6
