REMARK  Name = ZINC00521536
REMARK  5 active torsions:
REMARK  status: ('A' for Active; 'I' for Inactive)
REMARK    1  A    between atoms: C_1  and  C_2
REMARK    2  A    between atoms: C_2  and  C_3
REMARK    3  A    between atoms: C_3  and  C_19
REMARK    4  A    between atoms: C_12  and  S_14
REMARK    5  A    between atoms: S_14  and  C_15
REMARK                            x       y       z     vdW  Elec       q    Type
REMARK                         _______ _______ _______ _____ _____    ______ ____
ROOT
ATOM      1  C   UNL     1      -0.753   1.593  -1.232  0.00  0.00    +0.071 C 
ATOM      2  C   UNL     1      -0.119   0.984  -2.485  0.00  0.00    +0.071 C 
ATOM      3  C   UNL     1      -0.719   1.679  -3.706  0.00  0.00    -0.020 A 
ATOM      4  C   UNL     1      -1.352   2.865  -3.551  0.00  0.00    +0.021 A 
ATOM      5  S   UNL     1      -1.894   3.323  -5.176  0.00  0.00    -0.071 S 
ATOM      6  C   UNL     1      -1.274   1.930  -6.064  0.00  0.00    +0.115 A 
ATOM      7  C   UNL     1      -0.656   1.141  -5.054  0.00  0.00    +0.048 A 
ATOM      8  C   UNL     1      -0.052  -0.072  -5.467  0.00  0.00    +0.142 A 
ATOM      9  N   UNL     1      -0.126  -0.349  -6.761  0.00  0.00    -0.210 NA
ATOM     10  C   UNL     1      -0.718   0.430  -7.654  0.00  0.00    +0.190 A 
ATOM     11  N   UNL     1      -1.306   1.585  -7.333  0.00  0.00    -0.215 NA
ATOM     12 CL   UNL     1       0.740  -1.133  -4.344  0.00  0.00    -0.061 Cl
ATOM     13  C   UNL     1      -1.538   3.607  -2.264  0.00  0.00    +0.203 C 
ATOM     14  O   UNL     1      -0.670   3.020  -1.283  0.00  0.00    -0.368 OA
ATOM     15  C   UNL     1      -2.222   1.172  -1.153  0.00  0.00    +0.042 C 
ENDROOT
BRANCH   1  17
ATOM     16  C   UNL     1      -0.729   1.579   1.267  0.00  0.00    +0.007 C 
ATOM     17  C   UNL     1      -0.013   1.086   0.008  0.00  0.00    +0.032 C 
ENDBRANCH   1  17
BRANCH  10  18
ATOM     18  S   UNL     1      -0.732  -0.081  -9.340  0.00  0.00    -0.089 S 
ATOM     19  C   UNL     1       0.166  -1.647  -9.201  0.00  0.00    +0.093 C 
ENDBRANCH  10  18
TORSDOF 2
