REMARK  Name = ZINC37324663
REMARK  4 active torsions:
REMARK  status: ('A' for Active; 'I' for Inactive)
REMARK    1  A    between atoms: C_3  and  N_8
REMARK    2  A    between atoms: C_5  and  O_7
REMARK    3  A    between atoms: N_8  and  C_9
REMARK    4  A    between atoms: C_9  and  C_10
REMARK                            x       y       z     vdW  Elec       q    Type
REMARK                         _______ _______ _______ _____ _____    ______ ____
ROOT
ATOM      1  C   UNL     1       3.559   3.595  -0.015  0.00  0.00    +0.137 C 
ENDROOT
BRANCH   1   2
ATOM      2  C   UNL     1       4.971   4.119  -0.026  0.00  0.00    -0.026 A 
ATOM      3  C   UNL     1       5.632   4.348   1.167  0.00  0.00    +0.054 A 
ATOM      4  C   UNL     1       6.931   4.830   1.159  0.00  0.00    +0.168 A 
ATOM      5  C   UNL     1       7.569   5.083  -0.053  0.00  0.00    +0.180 A 
ATOM      6  C   UNL     1       6.900   4.852  -1.245  0.00  0.00    +0.064 A 
ATOM      7  C   UNL     1       5.606   4.365  -1.229  0.00  0.00    +0.024 A 
ATOM      8 BR   UNL     1       7.762   5.195  -2.893  0.00  0.00    -0.046 Br
ATOM      9  O   UNL     1       8.827   5.546   0.205  0.00  0.00    -0.451 OA
ATOM     10  C   UNL     1       8.809   5.960   1.584  0.00  0.00    +0.466 C 
ATOM     11  O   UNL     1       7.789   5.134   2.176  0.00  0.00    -0.453 OA
ENDBRANCH   1   2
BRANCH   1  12
ATOM     12  N   UNL     1       3.582   2.130  -0.022  0.00  0.00    -0.340 N 
ATOM     13  H   UNL     1       4.429   1.658  -0.033  0.00  0.00    +0.146 HD
BRANCH  12  16
ATOM     14  C   UNL     1      -0.017   1.377   0.010  0.00  0.00    +0.005 A 
ATOM     15  C   UNL     1       1.169   2.087   0.002  0.00  0.00    +0.023 A 
ATOM     16  C   UNL     1       2.383   1.413  -0.013  0.00  0.00    +0.031 A 
ATOM     17  C   UNL     1       2.404   0.024  -0.021  0.00  0.00    +0.068 A 
ATOM     18  C   UNL     1       1.212  -0.684  -0.013  0.00  0.00    +0.119 A 
ATOM     19  C   UNL     1       0.002  -0.004   0.002  0.00  0.00    +0.045 A 
BRANCH  18  20
ATOM     20  O   UNL     1       1.229  -2.042  -0.021  0.00  0.00    -0.507 OA
ATOM     21  H   UNL     1       1.243  -2.441   0.860  0.00  0.00    +0.292 HD
ENDBRANCH  18  20
ENDBRANCH  12  16
ENDBRANCH   1  12
TORSDOF 4
