REMARK  Name = ZINC08453892
REMARK  8 active torsions:
REMARK  status: ('A' for Active; 'I' for Inactive)
REMARK    1  A    between atoms: C_1  and  C_2
REMARK    2  A    between atoms: C_7  and  O_8
REMARK    3  A    between atoms: O_8  and  C_9
REMARK    4  A    between atoms: C_9  and  C_10
REMARK    5  A    between atoms: C_10  and  C_12
REMARK    6  A    between atoms: C_10  and  O_35
REMARK    7  A    between atoms: C_12  and  N_72
REMARK    8  A    between atoms: C_19  and  C_29
REMARK                            x       y       z     vdW  Elec       q    Type
REMARK                         _______ _______ _______ _____ _____    ______ ____
ROOT
ATOM      1  C   UNL     1      -0.743   1.587   1.260  0.00  0.00    -0.056 C 
ATOM      2  C   UNL     1      -0.013   1.086   0.008  0.00  0.00    +0.103 C 
ATOM      3  N   UNL     1      -0.736   1.579  -1.174  0.00  0.00    -0.347 N 
ATOM      4  C   UNL     1      -0.654   1.194  -2.479  0.00  0.00    +0.049 A 
ATOM      5  C   UNL     1       0.099   0.209  -3.114  0.00  0.00    +0.027 A 
ATOM      6  C   UNL     1      -0.051   0.081  -4.483  0.00  0.00    +0.006 A 
ATOM      7  C   UNL     1      -0.909   0.890  -5.209  0.00  0.00    -0.044 A 
ATOM      8  C   UNL     1      -1.665   1.869  -4.615  0.00  0.00    +0.014 A 
ATOM      9  C   UNL     1      -1.539   2.024  -3.231  0.00  0.00    +0.003 A 
ATOM     10  C   UNL     1      -2.156   2.910  -2.282  0.00  0.00    -0.020 A 
ATOM     11  C   UNL     1      -1.651   2.589  -1.074  0.00  0.00    +0.009 A 
ATOM     12  C   UNL     1      -2.074   3.307   0.187  0.00  0.00    -0.020 C 
ATOM     13  C   UNL     1      -2.151   4.794  -0.118  0.00  0.00    -0.009 C 
ATOM     14  C   UNL     1      -2.714   5.171  -1.466  0.00  0.00    +0.003 C 
ATOM     15  C   UNL     1      -3.153   4.032  -2.376  0.00  0.00    +0.037 C 
ATOM     16  N   UNL     1      -0.993   3.041   1.170  0.00  0.00    +0.388 N 
ATOM     17  H   UNL     1      -0.134   3.509   0.856  0.00  0.00    -0.081 HD
ENDROOT
BRANCH   7  18
ATOM     18  C   UNL     1      -1.016   0.690  -6.699  0.00  0.00    +0.019 C 
ATOM     19  C   UNL     1      -1.494  -0.735  -6.989  0.00  0.00    +0.008 C 
ATOM     20  C   UNL     1      -1.601  -0.939  -8.501  0.00  0.00    +0.001 C 
ATOM     21  C   UNL     1      -0.231  -0.720  -9.144  0.00  0.00    +0.000 C 
ATOM     22  C   UNL     1       0.247   0.704  -8.854  0.00  0.00    +0.001 C 
ATOM     23  C   UNL     1       0.355   0.908  -7.342  0.00  0.00    +0.008 C 
ENDBRANCH   7  18
BRANCH  16  24
ATOM     24  C   UNL     1      -1.372   3.572   2.496  0.00  0.00    -0.043 C 
BRANCH  24  25
ATOM     25  C   UNL     1      -0.160   3.489   3.427  0.00  0.00    +0.135 C 
BRANCH  25  26
ATOM     26  O   UNL     1       0.878   4.340   2.935  0.00  0.00    -0.390 OA
ATOM     27  H   UNL     1       0.627   5.272   2.876  0.00  0.00    +0.210 HD
ENDBRANCH  25  26
BRANCH  25  28
ATOM     28  C   UNL     1      -0.565   3.938   4.832  0.00  0.00    +0.258 C 
BRANCH  28  29
ATOM     29  O   UNL     1       0.534   3.750   5.727  0.00  0.00    -0.489 OA
BRANCH  29  36
ATOM     30  C   UNL     1       2.692   3.388   7.512  0.00  0.00    +0.047 C 
ATOM     31  C   UNL     1       1.363   3.947   7.948  0.00  0.00    -0.009 A 
ATOM     32  C   UNL     1       1.163   4.306   9.267  0.00  0.00    +0.007 A 
ATOM     33  C   UNL     1      -0.057   4.820   9.668  0.00  0.00    +0.000 A 
ATOM     34  C   UNL     1      -1.079   4.976   8.749  0.00  0.00    +0.004 A 
ATOM     35  C   UNL     1      -0.882   4.624   7.428  0.00  0.00    +0.046 A 
ATOM     36  C   UNL     1       0.339   4.103   7.025  0.00  0.00    +0.124 A 
ENDBRANCH  29  36
ENDBRANCH  28  29
ENDBRANCH  25  28
ENDBRANCH  24  25
ENDBRANCH  16  24
TORSDOF 7
