REMARK  Name = ZINC07003222
REMARK  6 active torsions:
REMARK  status: ('A' for Active; 'I' for Inactive)
REMARK    1  A    between atoms: C_1  and  O_2
REMARK    2  A    between atoms: O_2  and  C_3
REMARK    3  A    between atoms: C_6  and  C_9
REMARK    4  A    between atoms: C_9  and  N_10
REMARK    5  A    between atoms: N_10  and  S_11
REMARK    6  A    between atoms: S_11  and  C_14
REMARK                            x       y       z     vdW  Elec       q    Type
REMARK                         _______ _______ _______ _____ _____    ______ ____
ROOT
ATOM      1  C   UNL     1      -1.510  -3.937  -2.059  0.00  0.00    +0.106 A 
ATOM      2  C   UNL     1      -1.261  -3.959  -3.425  0.00  0.00    +0.030 A 
ATOM      3  C   UNL     1      -0.637  -2.898  -4.043  0.00  0.00    +0.028 A 
ATOM      4  C   UNL     1      -0.251  -1.792  -3.293  0.00  0.00    +0.047 A 
ATOM      5  C   UNL     1      -0.503  -1.774  -1.909  0.00  0.00    +0.005 A 
ATOM      6  C   UNL     1      -1.139  -2.861  -1.304  0.00  0.00    +0.038 A 
ATOM      7  C   UNL     1       0.018  -0.498  -1.421  0.00  0.00    -0.019 A 
ATOM      8  C   UNL     1       0.524   0.159  -2.480  0.00  0.00    +0.020 A 
ATOM      9  N   UNL     1       0.375  -0.607  -3.607  0.00  0.00    -0.358 N 
ATOM     10  H   UNL     1       0.669  -0.351  -4.495  0.00  0.00    +0.166 HD
ATOM     11  C   UNL     1       1.152   1.531  -2.429  0.00  0.00    +0.053 C 
ATOM     12  C   UNL     1       2.141   1.600  -1.264  0.00  0.00    +0.006 C 
ATOM     13  C   UNL     1       1.415   2.052  -0.000  0.00  0.00    +0.001 C 
ATOM     14  C   UNL     1      -0.019   1.526   0.010  0.00  0.00    +0.005 C 
ATOM     15  C   UNL     1       0.002  -0.004   0.002  0.00  0.00    +0.037 C 
ENDROOT
BRANCH   1  16
ATOM     16  S   UNL     1      -2.309  -5.308  -1.294  0.00  0.00    +0.059 S 
ATOM     17  O   UNL     1      -2.070  -6.434  -2.126  0.00  0.00    -0.153 OA
ATOM     18  O   UNL     1      -1.937  -5.281   0.077  0.00  0.00    -0.153 OA
BRANCH  16  19
ATOM     19  N   UNL     1      -3.938  -5.017  -1.347  0.00  0.00    -0.186 NA
ATOM     20  H   UNL     1      -4.435  -4.888  -0.524  0.00  0.00    +0.148 HD
BRANCH  19  21
ATOM     21  C   UNL     1      -4.629  -4.954  -2.638  0.00  0.00    +0.141 C 
BRANCH  21  25
ATOM     22  C   UNL     1      -8.848  -5.225  -2.010  0.00  0.00    +0.120 A 
ATOM     23  C   UNL     1      -8.225  -3.985  -2.020  0.00  0.00    +0.046 A 
ATOM     24  C   UNL     1      -6.861  -3.901  -2.224  0.00  0.00    +0.008 A 
ATOM     25  C   UNL     1      -6.117  -5.050  -2.416  0.00  0.00    -0.032 A 
ATOM     26  C   UNL     1      -6.736  -6.286  -2.412  0.00  0.00    +0.008 A 
ATOM     27  C   UNL     1      -8.099  -6.376  -2.204  0.00  0.00    +0.046 A 
BRANCH  22  29
ATOM     28  C   UNL     1     -10.763  -6.620  -1.812  0.00  0.00    +0.277 C 
ATOM     29  O   UNL     1     -10.189  -5.311  -1.810  0.00  0.00    -0.495 OA
ENDBRANCH  22  29
ENDBRANCH  21  25
ENDBRANCH  19  21
ENDBRANCH  16  19
ENDBRANCH   1  16
TORSDOF 5
