REMARK  Name = ZINC11583973
REMARK  5 active torsions:
REMARK  status: ('A' for Active; 'I' for Inactive)
REMARK    1  A    between atoms: C_1  and  C_2
REMARK    2  A    between atoms: C_2  and  C_26
REMARK    3  A    between atoms: N_5  and  C_9
REMARK    4  A    between atoms: C_9  and  C_10
REMARK    5  A    between atoms: N_12  and  C_13
REMARK                            x       y       z     vdW  Elec       q    Type
REMARK                         _______ _______ _______ _____ _____    ______ ____
ROOT
ATOM      1  C   UNL     1      -4.941   1.272   2.815  0.00  0.00    +0.213 C 
ENDROOT
BRANCH   1   6
ATOM      2  C   UNL     1      -2.972   0.694  -1.412  0.00  0.00    +0.047 C 
ATOM      3  C   UNL     1      -2.513   0.977   0.020  0.00  0.00    +0.135 C 
ATOM      4  C   UNL     1      -3.584   1.732   0.783  0.00  0.00    +0.251 C 
ATOM      5  O   UNL     1      -4.035   2.826   0.523  0.00  0.00    -0.272 OA
ATOM      6  N   UNL     1      -3.929   0.932   1.812  0.00  0.00    -0.215 N 
ATOM      7  C   UNL     1      -3.233  -0.210   1.804  0.00  0.00    +0.310 C 
ATOM      8  O   UNL     1      -3.369  -1.090   2.632  0.00  0.00    -0.252 OA
ATOM      9  N   UNL     1      -2.365  -0.279   0.774  0.00  0.00    -0.281 N 
ATOM     10  H   UNL     1      -1.762  -1.011   0.569  0.00  0.00    +0.152 HD
BRANCH   3  11
ATOM     11  C   UNL     1      -1.220   1.750   0.017  0.00  0.00    -0.013 A 
ATOM     12  C   UNL     1      -0.013   1.076   0.008  0.00  0.00    +0.009 A 
ATOM     13  C   UNL     1       1.175   1.782   0.000  0.00  0.00    +0.041 A 
ATOM     14  C   UNL     1       1.157   3.166   0.008  0.00  0.00    +0.158 A 
ATOM     15  C   UNL     1      -0.053   3.842   0.022  0.00  0.00    +0.159 A 
ATOM     16  C   UNL     1      -1.241   3.132   0.030  0.00  0.00    +0.047 A 
ATOM     17  F   UNL     1      -0.073   5.193   0.029  0.00  0.00    -0.202 F 
ATOM     18  F   UNL     1       2.318   3.858   0.001  0.00  0.00    -0.202 F 
ENDBRANCH   3  11
ENDBRANCH   1   6
BRANCH   1  19
ATOM     19  C   UNL     1      -6.290   0.785   2.353  0.00  0.00    +0.232 C 
ATOM     20  O   UNL     1      -6.396   0.210   1.290  0.00  0.00    -0.274 OA
ATOM     21  N   UNL     1      -7.379   0.989   3.120  0.00  0.00    -0.303 N 
ATOM     22  H   UNL     1      -7.295   1.448   3.970  0.00  0.00    +0.150 HD
BRANCH  21  23
ATOM     23  C   UNL     1      -8.691   0.515   2.671  0.00  0.00    +0.135 C 
ATOM     24  C   UNL     1      -9.354   1.562   1.810  0.00  0.00    -0.015 A 
ATOM     25  C   UNL     1      -8.991   2.146   0.616  0.00  0.00    +0.006 A 
ATOM     26  C   UNL     1      -9.806   3.101   0.035  0.00  0.00    +0.000 A 
ATOM     27  C   UNL     1     -10.988   3.472   0.651  0.00  0.00    +0.001 A 
ATOM     28  C   UNL     1     -11.359   2.894   1.847  0.00  0.00    +0.009 A 
ATOM     29  C   UNL     1     -10.542   1.929   2.439  0.00  0.00    -0.012 A 
ATOM     30  C   UNL     1     -10.694   1.158   3.697  0.00  0.00    -0.012 A 
ATOM     31  C   UNL     1      -9.603   0.309   3.856  0.00  0.00    -0.015 A 
ATOM     32  C   UNL     1      -9.517  -0.515   4.958  0.00  0.00    +0.006 A 
ATOM     33  C   UNL     1     -10.518  -0.502   5.913  0.00  0.00    +0.000 A 
ATOM     34  C   UNL     1     -11.606   0.339   5.764  0.00  0.00    +0.001 A 
ATOM     35  C   UNL     1     -11.700   1.167   4.665  0.00  0.00    +0.009 A 
ENDBRANCH  21  23
ENDBRANCH   1  19
TORSDOF 4
