REMARK  Name = ZINC44453315
REMARK  7 active torsions:
REMARK  status: ('A' for Active; 'I' for Inactive)
REMARK    1  A    between atoms: C_1  and  C_2
REMARK    2  A    between atoms: N_4  and  N_5
REMARK    3  A    between atoms: C_6  and  C_8
REMARK    4  A    between atoms: C_12  and  N_13
REMARK    5  A    between atoms: C_14  and  C_16
REMARK    6  A    between atoms: C_19  and  S_22
REMARK    7  A    between atoms: S_22  and  N_25
REMARK                            x       y       z     vdW  Elec       q    Type
REMARK                         _______ _______ _______ _____ _____    ______ ____
ROOT
ATOM      1  N   UNL     1      -4.750  -4.532   0.023  0.00  0.00    -0.275 N 
ATOM      2  C   UNL     1      -5.776  -5.406   0.028  0.00  0.00    +0.249 C 
ATOM      3  O   UNL     1      -5.556  -6.602   0.020  0.00  0.00    -0.270 OA
ATOM      4  H   UNL     1      -4.926  -3.578   0.030  0.00  0.00    +0.156 HD
ENDROOT
BRANCH   2   5
ATOM      5  C   UNL     1      -7.169  -4.911   0.044  0.00  0.00    +0.037 A 
ATOM      6  C   UNL     1      -7.425  -3.539   0.048  0.00  0.00    +0.015 A 
ATOM      7  C   UNL     1      -8.727  -3.084   0.063  0.00  0.00    +0.029 A 
ATOM      8  C   UNL     1      -9.778  -3.984   0.073  0.00  0.00    +0.109 A 
ATOM      9  C   UNL     1      -9.531  -5.346   0.070  0.00  0.00    +0.029 A 
ATOM     10  C   UNL     1      -8.234  -5.814   0.050  0.00  0.00    +0.015 A 
BRANCH   8  11
ATOM     11  S   UNL     1     -11.438  -3.394   0.092  0.00  0.00    +0.075 S 
ATOM     12  O   UNL     1     -12.232  -4.432   0.650  0.00  0.00    -0.150 OA
ATOM     13  O   UNL     1     -11.398  -2.085   0.643  0.00  0.00    -0.150 OA
BRANCH  11  14
ATOM     14  N   UNL     1     -11.917  -3.229  -1.485  0.00  0.00    -0.202 N 
ATOM     15  C   UNL     1     -11.752  -2.015  -2.290  0.00  0.00    +0.136 C 
ATOM     16  C   UNL     1     -12.346  -2.360  -3.665  0.00  0.00    +0.058 C 
ATOM     17  C   UNL     1     -12.817  -3.790  -3.528  0.00  0.00    -0.023 A 
ATOM     18  C   UNL     1     -12.530  -4.227  -2.244  0.00  0.00    +0.054 A 
ATOM     19  C   UNL     1     -12.871  -5.532  -1.880  0.00  0.00    +0.025 A 
ATOM     20  C   UNL     1     -13.479  -6.370  -2.789  0.00  0.00    +0.002 A 
ATOM     21  C   UNL     1     -13.757  -5.926  -4.069  0.00  0.00    +0.000 A 
ATOM     22  C   UNL     1     -13.431  -4.633  -4.434  0.00  0.00    +0.005 A 
ENDBRANCH  11  14
ENDBRANCH   8  11
ENDBRANCH   2   5
BRANCH   1  27
ATOM     23  C   UNL     1      -2.275  -4.250   0.001  0.00  0.00    +0.067 A 
ATOM     24  C   UNL     1      -1.036  -4.993  -0.009  0.00  0.00    +0.022 A 
ATOM     25  C   UNL     1      -1.155  -6.334  -0.016  0.00  0.00    +0.048 A 
ATOM     26  S   UNL     1      -2.916  -6.588  -0.009  0.00  0.00    -0.081 S 
ATOM     27  C   UNL     1      -3.445  -4.996   0.008  0.00  0.00    +0.084 A 
BRANCH  23  29
ATOM     28  N   UNL     1      -1.137  -2.095   0.002  0.00  0.00    -0.230 N 
ATOM     29  C   UNL     1      -2.295  -2.784   0.009  0.00  0.00    +0.262 C 
ATOM     30  O   UNL     1      -3.357  -2.190   0.022  0.00  0.00    -0.269 OA
ATOM     31  H   UNL     1      -0.290  -2.568  -0.009  0.00  0.00    +0.173 HD
BRANCH  28  35
ATOM     32  C   UNL     1      -0.018   1.503   0.010  0.00  0.00    +0.110 C 
ATOM     33  C   UNL     1       0.002  -0.004   0.002  0.00  0.00    +0.226 C 
ATOM     34  O   UNL     1       1.060  -0.596  -0.011  0.00  0.00    -0.275 OA
ATOM     35  N   UNL     1      -1.156  -0.694   0.009  0.00  0.00    -0.234 N 
ATOM     36  H   UNL     1      -2.002  -0.220   0.020  0.00  0.00    +0.173 HD
ENDBRANCH  28  35
ENDBRANCH  23  29
ENDBRANCH   1  27
TORSDOF 6
