REMARK  Name = ZINC12343985
REMARK  7 active torsions:
REMARK  status: ('A' for Active; 'I' for Inactive)
REMARK    1  A    between atoms: C_1  and  C_2
REMARK    2  A    between atoms: C_9  and  N_30
REMARK    3  A    between atoms: C_10  and  C_13
REMARK    4  A    between atoms: N_17  and  C_21
REMARK    5  A    between atoms: C_21  and  C_22
REMARK    6  A    between atoms: C_22  and  C_23
REMARK    7  A    between atoms: C_23  and  C_24
REMARK                            x       y       z     vdW  Elec       q    Type
REMARK                         _______ _______ _______ _____ _____    ______ ____
ROOT
ATOM      1  C   UNL     1       1.377   4.105   0.560  0.00  0.00    +0.047 C 
ATOM      2  C   UNL     1       1.281   2.674   0.097  0.00  0.00    -0.007 A 
ATOM      3  C   UNL     1       0.082   2.161  -0.301  0.00  0.00    +0.008 A 
ATOM      4  C   UNL     1       0.009   0.828  -0.730  0.00  0.00    +0.019 A 
ATOM      5  C   UNL     1       1.121   0.059  -0.747  0.00  0.00    +0.096 A 
ATOM      6  N   UNL     1       2.324   0.564  -0.351  0.00  0.00    -0.267 N 
ATOM      7  C   UNL     1       2.427   1.859   0.072  0.00  0.00    +0.145 A 
ATOM      8  N   UNL     1       3.594   2.370   0.465  0.00  0.00    -0.213 NA
ATOM      9  C   UNL     1       4.705   1.648   0.462  0.00  0.00    +0.136 A 
ATOM     10  C   UNL     1       4.660   0.300   0.033  0.00  0.00    +0.081 A 
ATOM     11  C   UNL     1       3.416  -0.231  -0.381  0.00  0.00    +0.267 A 
ATOM     12  O   UNL     1       3.330  -1.388  -0.757  0.00  0.00    -0.267 OA
ENDROOT
BRANCH  10  13
ATOM     13  C   UNL     1       5.829  -0.495   0.018  0.00  0.00    +0.037 C 
ATOM     14  C   UNL     1       6.924  -0.088  -0.689  0.00  0.00    +0.077 C 
ATOM     15  C   UNL     1       8.194  -0.714  -0.832  0.00  0.00    +0.258 C 
ATOM     16  O   UNL     1       8.436  -1.774  -0.281  0.00  0.00    -0.269 OA
ATOM     17  N   UNL     1       9.104  -0.114  -1.580  0.00  0.00    -0.255 N 
ATOM     18  C   UNL     1       8.835   1.061  -2.192  0.00  0.00    +0.121 C 
ATOM     19  S   UNL     1       9.851   2.005  -3.195  0.00  0.00    -0.027 S 
ATOM     20  S   UNL     1       7.149   1.374  -1.692  0.00  0.00    -0.061 S 
BRANCH  17  21
ATOM     21  C   UNL     1      10.422  -0.732  -1.749  0.00  0.00    +0.115 C 
BRANCH  21  22
ATOM     22  C   UNL     1      10.399  -1.659  -2.965  0.00  0.00    +0.024 C 
BRANCH  22  23
ATOM     23  C   UNL     1      11.775  -2.304  -3.141  0.00  0.00    +0.036 C 
BRANCH  23  24
ATOM     24  C   UNL     1      11.752  -3.218  -4.339  0.00  0.00    -0.047 A 
ATOM     25  C   UNL     1      11.411  -4.548  -4.187  0.00  0.00    +0.003 A 
ATOM     26  C   UNL     1      11.386  -5.386  -5.287  0.00  0.00    +0.000 A 
ATOM     27  C   UNL     1      11.711  -4.894  -6.537  0.00  0.00    +0.000 A 
ATOM     28  C   UNL     1      12.058  -3.565  -6.688  0.00  0.00    +0.000 A 
ATOM     29  C   UNL     1      12.079  -2.727  -5.589  0.00  0.00    +0.003 A 
ENDBRANCH  23  24
ENDBRANCH  22  23
ENDBRANCH  21  22
ENDBRANCH  17  21
ENDBRANCH  10  13
BRANCH   9  30
ATOM     30  N   UNL     1       5.896   2.205   0.874  0.00  0.00    -0.313 N 
ATOM     31  C   UNL     1       6.410   1.524   2.064  0.00  0.00    +0.117 C 
ATOM     32  C   UNL     1       7.904   1.827   2.232  0.00  0.00    +0.088 C 
ATOM     33  S   UNL     1       8.103   3.622   2.455  0.00  0.00    -0.158 S 
ATOM     34  C   UNL     1       7.146   4.307   1.067  0.00  0.00    +0.088 C 
ATOM     35  C   UNL     1       5.761   3.651   1.065  0.00  0.00    +0.117 C 
ENDBRANCH   9  30
TORSDOF 6
