REMARK  Name = ZINC05002641
REMARK  4 active torsions:
REMARK  status: ('A' for Active; 'I' for Inactive)
REMARK    1  A    between atoms: C_1  and  C_2
REMARK    2  A    between atoms: C_5  and  C_8
REMARK    3  A    between atoms: C_11  and  C_12
REMARK    4  A    between atoms: C_13  and  C_14
REMARK                            x       y       z     vdW  Elec       q    Type
REMARK                         _______ _______ _______ _____ _____    ______ ____
ROOT
ATOM      1  C   UNL     1      -2.520   3.870   0.046  0.00  0.00    +0.133 C 
ATOM      2  N   UNL     1      -2.636   5.173   0.054  0.00  0.00    -0.227 NA
ATOM      3  C   UNL     1      -3.955   5.507   0.068  0.00  0.00    +0.128 C 
ATOM      4  C   UNL     1      -4.490   6.787   0.080  0.00  0.00    +0.033 C 
ATOM      5  C   UNL     1      -4.698   4.236   0.069  0.00  0.00    +0.268 C 
ATOM      6  O   UNL     1      -5.907   4.089   0.079  0.00  0.00    -0.268 OA
ATOM      7  N   UNL     1      -3.756   3.268   0.050  0.00  0.00    -0.265 N 
ATOM      8  H   UNL     1      -3.923   2.312   0.042  0.00  0.00    +0.157 HD
ENDROOT
BRANCH   1  13
ATOM      9  C   UNL     1       2.489   1.041  -0.017  0.00  0.00    +0.044 C 
ATOM     10  C   UNL     1       1.177   1.782   0.000  0.00  0.00    -0.050 A 
ATOM     11  C   UNL     1      -0.013   1.076   0.008  0.00  0.00    +0.004 A 
ATOM     12  C   UNL     1      -1.217   1.748   0.017  0.00  0.00    +0.011 A 
ATOM     13  C   UNL     1      -1.234   3.144   0.030  0.00  0.00    +0.015 A 
ATOM     14  C   UNL     1      -0.030   3.851   0.023  0.00  0.00    +0.011 A 
ATOM     15  C   UNL     1       1.168   3.166   0.008  0.00  0.00    +0.004 A 
ENDBRANCH   1  13
BRANCH   4  16
ATOM     16  C   UNL     1      -3.640   7.903   0.078  0.00  0.00    +0.003 C 
ATOM     17  C   UNL     1      -4.165   9.155   0.089  0.00  0.00    +0.008 C 
BRANCH  17  18
ATOM     18  C   UNL     1      -3.275  10.324   0.087  0.00  0.00    -0.025 A 
ATOM     19  C   UNL     1      -1.885  10.151   0.080  0.00  0.00    +0.008 A 
ATOM     20  C   UNL     1      -1.058  11.253   0.072  0.00  0.00    +0.001 A 
ATOM     21  C   UNL     1      -1.597  12.528   0.084  0.00  0.00    +0.000 A 
ATOM     22  C   UNL     1      -2.969  12.708   0.097  0.00  0.00    +0.001 A 
ATOM     23  C   UNL     1      -3.811  11.617   0.099  0.00  0.00    +0.008 A 
ENDBRANCH  17  18
ENDBRANCH   4  16
TORSDOF 3
