REMARK  Name = ZINC12798146
REMARK  11 active torsions:
REMARK  status: ('A' for Active; 'I' for Inactive)
REMARK    1  A    between atoms: C_1  and  C_2
REMARK    2  A    between atoms: C_5  and  C_7
REMARK    3  A    between atoms: C_10  and  C_12
REMARK    4  A    between atoms: C_12  and  N_58
REMARK    5  A    between atoms: C_13  and  N_58
REMARK    6  A    between atoms: C_14  and  C_15
REMARK    7  A    between atoms: C_14  and  N_58
REMARK    8  A    between atoms: C_15  and  C_17
REMARK    9  A    between atoms: C_15  and  O_30
REMARK   10  A    between atoms: C_17  and  O_18
REMARK   11  A    between atoms: O_18  and  C_19
REMARK                            x       y       z     vdW  Elec       q    Type
REMARK                         _______ _______ _______ _____ _____    ______ ____
ROOT
ATOM      1  C   UNL     1       1.163   3.534  -0.016  0.00  0.00    +0.124 C 
ENDROOT
BRANCH   1   2
ATOM      2  O   UNL     1       0.364   4.057  -1.079  0.00  0.00    -0.391 OA
ATOM      3  H   UNL     1       0.718   3.880  -1.961  0.00  0.00    +0.210 HD
ENDBRANCH   1   2
BRANCH   1   4
ATOM      4  C   UNL     1       2.560   4.154  -0.075  0.00  0.00    -0.045 C 
BRANCH   4   6
ATOM      5  C   UNL     1       2.026   5.857   1.560  0.00  0.00    -0.095 C 
ATOM      6  N   UNL     1       2.447   5.608   0.166  0.00  0.00    +0.384 N 
ATOM      7  H   UNL     1       1.741   5.997  -0.470  0.00  0.00    -0.082 HD
BRANCH   6   8
ATOM      8  C   UNL     1       3.744   6.266  -0.096  0.00  0.00    -0.003 C 
BRANCH   8  12
ATOM      9  C   UNL     1       3.126   9.813  -0.704  0.00  0.00    +0.108 A 
ATOM     10  C   UNL     1       3.405   9.867   0.611  0.00  0.00    +0.045 A 
ATOM     11  C   UNL     1       3.677   8.543   1.026  0.00  0.00    +0.043 A 
ATOM     12  C   UNL     1       3.548   7.760  -0.059  0.00  0.00    +0.089 A 
ATOM     13  O   UNL     1       3.220   8.535  -1.106  0.00  0.00    -0.466 OA
BRANCH   9  17
ATOM     14  C   UNL     1       0.510   9.755  -2.029  0.00  0.00    +0.008 C 
ATOM     15  C   UNL     1       1.411  10.967  -2.275  0.00  0.00    -0.003 C 
ATOM     16  C   UNL     1       2.688  10.745  -3.088  0.00  0.00    +0.015 C 
ATOM     17  C   UNL     1       2.773  10.988  -1.579  0.00  0.00    +0.058 C 
ENDBRANCH   9  17
ENDBRANCH   8  12
ENDBRANCH   6   8
ENDBRANCH   4   6
ENDBRANCH   1   4
BRANCH   1  18
ATOM     18  C   UNL     1       1.273   2.014  -0.161  0.00  0.00    +0.190 C 
BRANCH  18  19
ATOM     19  O   UNL     1      -0.017   1.425   0.010  0.00  0.00    -0.369 OA
BRANCH  19  20
ATOM     20  C   UNL     1      -0.023  -0.001  -0.092  0.00  0.00    +0.149 C 
ATOM     21  C   UNL     1      -0.209  -0.401  -1.554  0.00  0.00    +0.037 C 
ATOM     22  C   UNL     1      -0.429  -1.917  -1.616  0.00  0.00    +0.007 C 
ATOM     23  C   UNL     1      -1.801  -2.229  -1.022  0.00  0.00    +0.035 C 
ATOM     24  C   UNL     1      -1.954  -1.580   0.329  0.00  0.00    -0.042 A 
ATOM     25  C   UNL     1      -1.140  -0.554   0.754  0.00  0.00    -0.016 A 
ATOM     26  C   UNL     1      -1.338   0.005   2.010  0.00  0.00    +0.006 A 
ATOM     27  C   UNL     1      -2.342  -0.461   2.834  0.00  0.00    +0.000 A 
ATOM     28  C   UNL     1      -3.156  -1.493   2.409  0.00  0.00    +0.000 A 
ATOM     29  C   UNL     1      -2.961  -2.050   1.161  0.00  0.00    +0.004 A 
ENDBRANCH  19  20
ENDBRANCH  18  19
ENDBRANCH   1  18
TORSDOF 9
