REMARK  Name = ZINC39462472
REMARK  8 active torsions:
REMARK  status: ('A' for Active; 'I' for Inactive)
REMARK    1  A    between atoms: C_1  and  O_2
REMARK    2  A    between atoms: O_2  and  C_3
REMARK    3  A    between atoms: C_6  and  C_9
REMARK    4  A    between atoms: C_13  and  S_22
REMARK    5  A    between atoms: N_14  and  C_15
REMARK    6  A    between atoms: C_15  and  C_16
REMARK    7  A    between atoms: S_22  and  C_23
REMARK    8  A    between atoms: C_23  and  C_24
REMARK                            x       y       z     vdW  Elec       q    Type
REMARK                         _______ _______ _______ _____ _____    ______ ____
ROOT
ATOM      1  C   UNL     1      -5.139  -2.728   0.141  0.00  0.00    +0.208 C 
ATOM      2  N   UNL     1      -6.091  -1.847  -0.557  0.00  0.00    -0.242 N 
ATOM      3  N   UNL     1      -6.363  -2.463  -1.785  0.00  0.00    -0.162 NA
ATOM      4  C   UNL     1      -5.714  -3.571  -1.912  0.00  0.00    +0.176 C 
ATOM      5  N   UNL     1      -4.931  -3.844  -0.796  0.00  0.00    -0.283 N 
ATOM      6  H   UNL     1      -6.456  -1.009  -0.232  0.00  0.00    +0.170 HD
ENDROOT
BRANCH   1  10
ATOM      7  C   UNL     1      -1.461  -0.679   0.875  0.00  0.00    +0.120 A 
ATOM      8  C   UNL     1      -1.970  -0.753  -0.414  0.00  0.00    +0.046 A 
ATOM      9  C   UNL     1      -3.159  -1.416  -0.648  0.00  0.00    +0.011 A 
ATOM     10  C   UNL     1      -3.842  -2.005   0.400  0.00  0.00    -0.008 A 
ATOM     11  C   UNL     1      -3.337  -1.932   1.685  0.00  0.00    +0.011 A 
ATOM     12  C   UNL     1      -2.145  -1.275   1.924  0.00  0.00    +0.046 A 
BRANCH   7  14
ATOM     13  C   UNL     1       0.358   0.563  -0.020  0.00  0.00    +0.277 C 
ATOM     14  O   UNL     1      -0.291  -0.027   1.107  0.00  0.00    -0.495 OA
ENDBRANCH   7  14
ENDBRANCH   1  10
BRANCH   5  15
ATOM     15  C   UNL     1      -4.068  -5.010  -0.592  0.00  0.00    +0.140 C 
BRANCH  15  16
ATOM     16  C   UNL     1      -4.828  -6.075   0.200  0.00  0.00    +0.136 C 
ATOM     17  C   UNL     1      -3.889  -7.257   0.524  0.00  0.00    +0.035 C 
ATOM     18  C   UNL     1      -4.823  -8.482   0.333  0.00  0.00    +0.031 C 
ATOM     19  C   UNL     1      -5.722  -7.989  -0.829  0.00  0.00    +0.160 C 
ATOM     20  O   UNL     1      -5.912  -6.584  -0.587  0.00  0.00    -0.375 OA
ENDBRANCH  15  16
ENDBRANCH   5  15
BRANCH   4  21
ATOM     21  S   UNL     1      -5.812  -4.615  -3.328  0.00  0.00    -0.081 S 
BRANCH  21  22
ATOM     22  C   UNL     1      -6.969  -3.755  -4.428  0.00  0.00    +0.151 C 
BRANCH  22  23
ATOM     23  C   UNL     1      -7.144  -4.553  -5.695  0.00  0.00    +0.121 A 
ATOM     24  N   UNL     1      -7.975  -4.066  -6.654  0.00  0.00    -0.310 N 
ATOM     25  H   UNL     1      -8.435  -3.224  -6.508  0.00  0.00    +0.170 HD
ATOM     26  C   UNL     1      -8.166  -4.744  -7.809  0.00  0.00    +0.259 A 
ATOM     27  O   UNL     1      -8.907  -4.319  -8.676  0.00  0.00    -0.267 OA
ATOM     28  C   UNL     1      -7.444  -6.013  -7.976  0.00  0.00    +0.066 A 
ATOM     29  C   UNL     1      -7.571  -6.788  -9.128  0.00  0.00    +0.035 A 
ATOM     30  C   UNL     1      -6.870  -7.971  -9.232  0.00  0.00    +0.042 A 
ATOM     31  C   UNL     1      -6.041  -8.393  -8.199  0.00  0.00    +0.022 A 
ATOM     32  C   UNL     1      -5.903  -7.642  -7.054  0.00  0.00    +0.030 A 
ATOM     33  C   UNL     1      -6.601  -6.440  -6.926  0.00  0.00    +0.078 A 
ATOM     34  N   UNL     1      -6.490  -5.667  -5.817  0.00  0.00    -0.233 NA
ATOM     35 CL   UNL     1      -7.025  -8.940 -10.663  0.00  0.00    -0.084 Cl
ENDBRANCH  22  23
ENDBRANCH  21  22
ENDBRANCH   4  21
TORSDOF 7
