REMARK  Name = ZINC35639931
REMARK  10 active torsions:
REMARK  status: ('A' for Active; 'I' for Inactive)
REMARK    1  A    between atoms: C_1  and  C_2
REMARK    2  A    between atoms: C_5  and  C_8
REMARK    3  A    between atoms: C_11  and  C_32
REMARK    4  A    between atoms: C_21  and  C_23
REMARK    5  A    between atoms: C_27  and  N_29
REMARK    6  A    between atoms: N_34  and  C_35
REMARK    7  A    between atoms: C_35  and  C_36
REMARK    8  A    between atoms: C_36  and  N_37
REMARK    9  A    between atoms: N_37  and  C_38
REMARK   10  A    between atoms: N_37  and  C_39
REMARK                            x       y       z     vdW  Elec       q    Type
REMARK                         _______ _______ _______ _____ _____    ______ ____
ROOT
ATOM      1  C   UNL     1       0.274  -4.534   0.249  0.00  0.00    +0.249 C 
ATOM      2  O   UNL     1       0.497  -4.717  -0.932  0.00  0.00    -0.270 OA
ATOM      3  N   UNL     1       0.389  -5.555   1.122  0.00  0.00    -0.255 N 
ATOM      4  C   UNL     1       0.075  -5.528   2.568  0.00  0.00    +0.190 C 
ATOM      5  C   UNL     1      -0.137  -7.027   2.900  0.00  0.00    +0.194 C 
ATOM      6  O   UNL     1       0.843  -7.673   2.054  0.00  0.00    -0.353 OA
ATOM      7  C   UNL     1       0.845  -6.922   0.829  0.00  0.00    +0.142 C 
ATOM      8  C   UNL     1      -0.103  -7.576  -0.177  0.00  0.00    +0.074 C 
ATOM      9  C   UNL     1      -0.118  -6.753  -1.470  0.00  0.00    +0.112 C 
ATOM     10  N   UNL     1       1.263  -6.598  -1.947  0.00  0.00    -0.297 N 
ATOM     11  C   UNL     1       2.271  -6.051  -1.028  0.00  0.00    +0.112 C 
ATOM     12  C   UNL     1       2.264  -6.880   0.261  0.00  0.00    +0.074 C 
ATOM     13  C   UNL     1       1.598  -6.949  -3.204  0.00  0.00    +0.247 C 
ATOM     14  O   UNL     1       2.733  -6.770  -3.603  0.00  0.00    -0.270 OA
ENDROOT
BRANCH   1  19
ATOM     15  C   UNL     1      -1.273   0.686   2.112  0.00  0.00    +0.044 C 
ATOM     16  C   UNL     1      -0.868  -0.681   1.624  0.00  0.00    -0.050 A 
ATOM     17  C   UNL     1      -0.886  -0.962   0.269  0.00  0.00    +0.004 A 
ATOM     18  C   UNL     1      -0.516  -2.212  -0.184  0.00  0.00    +0.013 A 
ATOM     19  C   UNL     1      -0.123  -3.193   0.727  0.00  0.00    +0.037 A 
ATOM     20  C   UNL     1      -0.107  -2.903   2.092  0.00  0.00    +0.013 A 
ATOM     21  C   UNL     1      -0.474  -1.648   2.532  0.00  0.00    +0.004 A 
ENDBRANCH   1  19
BRANCH  13  22
ATOM     22  C   UNL     1       0.587  -7.552  -4.098  0.00  0.00    +0.039 A 
ATOM     23  C   UNL     1      -0.685  -6.986  -4.200  0.00  0.00    +0.013 A 
ATOM     24  C   UNL     1      -1.624  -7.553  -5.037  0.00  0.00    +0.003 A 
ATOM     25  C   UNL     1      -1.307  -8.681  -5.773  0.00  0.00    +0.033 A 
ATOM     26  C   UNL     1      -0.049  -9.247  -5.676  0.00  0.00    +0.127 A 
ATOM     27  C   UNL     1       0.901  -8.686  -4.848  0.00  0.00    +0.045 A 
BRANCH  26  28
ATOM     28  N   UNL     1       0.281 -10.454  -6.467  0.00  0.00    +0.056 N 
ATOM     29  O   UNL     1      -0.549 -10.944  -7.197  0.00  0.00    -0.126 OA
ATOM     30  O   UNL     1       1.380 -10.950  -6.383  0.00  0.00    -0.126 OA
ENDBRANCH  26  28
ENDBRANCH  13  22
BRANCH   4  31
ATOM     31  C   UNL     1      -1.181  -4.737   2.827  0.00  0.00    +0.236 C 
ATOM     32  O   UNL     1      -1.998  -4.589   1.944  0.00  0.00    -0.274 OA
ATOM     33  N   UNL     1      -1.396  -4.193   4.042  0.00  0.00    -0.315 N 
ATOM     34  H   UNL     1      -0.743  -4.311   4.749  0.00  0.00    +0.149 HD
BRANCH  33  35
ATOM     35  C   UNL     1      -2.617  -3.424   4.294  0.00  0.00    +0.085 C 
BRANCH  35  36
ATOM     36  C   UNL     1      -2.614  -2.921   5.739  0.00  0.00    -0.061 C 
BRANCH  36  37
ATOM     37  N   UNL     1      -3.838  -2.150   5.992  0.00  0.00    +0.377 N 
ATOM     38  C   UNL     1      -3.893  -1.769   7.410  0.00  0.00    -0.097 C 
ATOM     39  C   UNL     1      -3.835  -0.940   5.160  0.00  0.00    -0.097 C 
ATOM     40  H   UNL     1      -4.644  -2.713   5.764  0.00  0.00    -0.083 HD
ENDBRANCH  36  37
ENDBRANCH  35  36
ENDBRANCH  33  35
ENDBRANCH   4  31
TORSDOF 7
