REMARK  Name = ZINC34758687
REMARK  9 active torsions:
REMARK  status: ('A' for Active; 'I' for Inactive)
REMARK    1  A    between atoms: C_1  and  C_2
REMARK    2  A    between atoms: C_2  and  N_3
REMARK    3  A    between atoms: C_11  and  C_24
REMARK    4  A    between atoms: C_12  and  C_23
REMARK    5  A    between atoms: C_16  and  S_18
REMARK    6  A    between atoms: S_18  and  C_19
REMARK    7  A    between atoms: C_19  and  C_20
REMARK    8  A    between atoms: C_20  and  C_21
REMARK    9  A    between atoms: C_20  and  C_22
REMARK                            x       y       z     vdW  Elec       q    Type
REMARK                         _______ _______ _______ _____ _____    ______ ____
ROOT
ATOM      1  N   UNL     1       2.192   0.425   2.335  0.00  0.00    +0.382 N 
ATOM      2  C   UNL     1       3.178  -0.142   3.264  0.00  0.00    -0.060 C 
ATOM      3  C   UNL     1       2.987  -1.660   3.346  0.00  0.00    +0.088 C 
ATOM      4  N   UNL     1       1.586  -1.936   3.703  0.00  0.00    -0.318 N 
ATOM      5  C   UNL     1       0.529  -1.275   2.922  0.00  0.00    +0.088 C 
ATOM      6  C   UNL     1       0.836   0.225   2.861  0.00  0.00    -0.060 C 
ATOM      7  C   UNL     1       1.273  -2.792   4.743  0.00  0.00    +0.134 A 
ATOM      8  C   UNL     1       1.242  -4.199   4.531  0.00  0.00    +0.051 A 
ATOM      9  C   UNL     1       1.502  -4.960   3.321  0.00  0.00    -0.028 A 
ATOM     10  C   UNL     1       1.414  -6.298   3.358  0.00  0.00    -0.008 A 
ATOM     11  S   UNL     1       0.966  -6.639   5.049  0.00  0.00    -0.073 S 
ATOM     12  C   UNL     1       0.910  -4.976   5.662  0.00  0.00    +0.115 A 
ATOM     13  N   UNL     1       0.649  -4.420   6.829  0.00  0.00    -0.215 NA
ATOM     14  C   UNL     1       0.692  -3.102   6.967  0.00  0.00    +0.191 A 
ATOM     15  N   UNL     1       1.004  -2.312   5.945  0.00  0.00    -0.206 NA
ATOM     16  C   UNL     1       1.638  -7.278   2.236  0.00  0.00    +0.052 C 
ATOM     17  C   UNL     1       1.867  -4.255   2.041  0.00  0.00    +0.045 C 
ATOM     18  H   UNL     1       2.276  -0.033   1.440  0.00  0.00    -0.082 HD
ENDROOT
BRANCH   1  20
ATOM     19  C   UNL     1       3.809   2.069   1.510  0.00  0.00    -0.017 C 
ATOM     20  C   UNL     1       2.446   1.863   2.173  0.00  0.00    -0.082 C 
ENDBRANCH   1  20
BRANCH  14  21
ATOM     21  S   UNL     1       0.339  -2.385   8.537  0.00  0.00    -0.086 S 
BRANCH  21  22
ATOM     22  C   UNL     1      -0.015  -3.811   9.601  0.00  0.00    +0.080 C 
BRANCH  22  23
ATOM     23  C   UNL     1      -0.343  -3.324  11.014  0.00  0.00    -0.007 C 
ATOM     24  C   UNL     1      -1.638  -2.510  10.985  0.00  0.00    +0.008 C 
ATOM     25  C   UNL     1      -0.519  -4.529  11.940  0.00  0.00    +0.008 C 
ENDBRANCH  22  23
ENDBRANCH  21  22
ENDBRANCH  14  21
TORSDOF 4
