REMARK  Name = ZINC18115172
REMARK  9 active torsions:
REMARK  status: ('A' for Active; 'I' for Inactive)
REMARK    1  A    between atoms: C_1  and  C_2
REMARK    2  A    between atoms: C_3  and  C_32
REMARK    3  A    between atoms: C_4  and  N_31
REMARK    4  A    between atoms: C_9  and  C_10
REMARK    5  A    between atoms: C_13  and  O_16
REMARK    6  A    between atoms: O_16  and  C_17
REMARK    7  A    between atoms: C_17  and  C_18
REMARK    8  A    between atoms: C_26  and  C_30
REMARK    9  A    between atoms: C_27  and  C_28
REMARK                            x       y       z     vdW  Elec       q    Type
REMARK                         _______ _______ _______ _____ _____    ______ ____
ROOT
ATOM      1  C   UNL     1      -0.746  -1.135  -1.343  0.00  0.00    +0.046 C 
ATOM      2  C   UNL     1       0.301  -0.179  -0.834  0.00  0.00    -0.020 A 
ATOM      3  C   UNL     1       0.059   1.199  -0.797  0.00  0.00    +0.095 A 
ATOM      4  C   UNL     1       1.065   2.058  -0.313  0.00  0.00    +0.135 A 
ATOM      5  N   UNL     1       2.224   1.583   0.103  0.00  0.00    -0.230 NA
ATOM      6  C   UNL     1       2.493   0.279   0.084  0.00  0.00    +0.092 A 
ATOM      7  C   UNL     1       1.533  -0.641  -0.388  0.00  0.00    +0.013 A 
ATOM      8  C   UNL     1       2.132  -1.986  -0.278  0.00  0.00    -0.011 C 
ATOM      9  C   UNL     1       1.529  -3.179  -0.633  0.00  0.00    +0.016 C 
ATOM     10  C   UNL     1       3.431  -1.837   0.255  0.00  0.00    -0.023 C 
ATOM     11  C   UNL     1       3.679  -0.498   0.483  0.00  0.00    +0.081 C 
ATOM     12  C   UNL     1       4.395  -2.961   0.532  0.00  0.00    +0.046 C 
ENDROOT
BRANCH   9  13
ATOM     13  C   UNL     1       2.329  -4.397  -0.748  0.00  0.00    -0.024 A 
ATOM     14  C   UNL     1       3.566  -4.369  -1.410  0.00  0.00    +0.011 A 
ATOM     15  C   UNL     1       4.311  -5.509  -1.509  0.00  0.00    +0.046 A 
ATOM     16  C   UNL     1       3.841  -6.700  -0.964  0.00  0.00    +0.121 A 
ATOM     17  C   UNL     1       2.613  -6.737  -0.311  0.00  0.00    +0.046 A 
ATOM     18  C   UNL     1       1.861  -5.602  -0.200  0.00  0.00    +0.011 A 
BRANCH  16  19
ATOM     19  O   UNL     1       4.584  -7.830  -1.070  0.00  0.00    -0.487 OA
BRANCH  19  20
ATOM     20  C   UNL     1       5.835  -7.723  -1.753  0.00  0.00    +0.266 C 
BRANCH  20  21
ATOM     21  C   UNL     1       6.514  -9.068  -1.771  0.00  0.00    +0.008 A 
ATOM     22  C   UNL     1       5.907 -10.157  -1.173  0.00  0.00    +0.010 A 
ATOM     23  C   UNL     1       6.526 -11.392  -1.195  0.00  0.00    +0.020 A 
ATOM     24  C   UNL     1       7.760 -11.538  -1.805  0.00  0.00    +0.042 A 
ATOM     25  C   UNL     1       8.370 -10.447  -2.399  0.00  0.00    +0.040 A 
ATOM     26  C   UNL     1       7.747  -9.212  -2.382  0.00  0.00    +0.049 A 
ATOM     27 CL   UNL     1       8.512  -7.843  -3.126  0.00  0.00    -0.083 Cl
ATOM     28 CL   UNL     1       8.541 -13.088  -1.825  0.00  0.00    -0.083 Cl
ENDBRANCH  20  21
ENDBRANCH  19  20
ENDBRANCH  16  19
ENDBRANCH   9  13
BRANCH   4  29
ATOM     29  N   UNL     1       0.834   3.423  -0.273  0.00  0.00    -0.342 N 
ATOM     30  H   UNL     1      -0.015   3.781  -0.578  0.00  0.00    +0.144 HD
ATOM     31  H   UNL     1       1.522   4.022   0.059  0.00  0.00    +0.144 HD
ENDBRANCH   4  29
BRANCH  11  32
ATOM     32  C   UNL     1       4.890   0.046   1.018  0.00  0.00    +0.102 C 
ATOM     33  N   UNL     1       5.852   0.477   1.443  0.00  0.00    -0.191 NA
ENDBRANCH  11  32
BRANCH   3  34
ATOM     34  C   UNL     1      -1.192   1.728  -1.251  0.00  0.00    +0.103 C 
ATOM     35  N   UNL     1      -2.184   2.148  -1.611  0.00  0.00    -0.191 NA
ENDBRANCH   3  34
TORSDOF 7
