REMARK  Name = ZINC35696726
REMARK  11 active torsions:
REMARK  status: ('A' for Active; 'I' for Inactive)
REMARK    1  A    between atoms: C_1  and  C_2
REMARK    2  A    between atoms: C_2  and  C_3
REMARK    3  A    between atoms: C_4  and  C_34
REMARK    4  A    between atoms: C_5  and  C_27
REMARK    5  A    between atoms: C_8  and  C_13
REMARK    6  A    between atoms: C_14  and  N_16
REMARK    7  A    between atoms: N_16  and  C_17
REMARK    8  A    between atoms: C_17  and  C_18
REMARK    9  A    between atoms: C_30  and  C_33
REMARK   10  A    between atoms: C_34  and  O_36
REMARK   11  A    between atoms: O_36  and  C_37
REMARK                            x       y       z     vdW  Elec       q    Type
REMARK                         _______ _______ _______ _____ _____    ______ ____
ROOT
ATOM      1  C   UNL     1      -1.502  -0.966   0.265  0.00  0.00    +0.056 C 
ATOM      2  C   UNL     1      -2.067  -1.100  -0.988  0.00  0.00    +0.083 C 
ATOM      3  C   UNL     1      -3.544  -1.417  -1.066  0.00  0.00    +0.150 C 
ATOM      4  N   UNL     1      -4.274  -1.559   0.222  0.00  0.00    -0.267 N 
ATOM      5  C   UNL     1      -5.615  -1.845   0.390  0.00  0.00    +0.048 C 
ATOM      6  C   UNL     1      -6.083  -1.931   1.654  0.00  0.00    +0.072 C 
ATOM      7  S   UNL     1      -4.617  -1.607   2.614  0.00  0.00    -0.060 S 
ATOM      8  C   UNL     1      -3.529  -1.388   1.355  0.00  0.00    +0.166 C 
ATOM      9  N   UNL     1      -2.240  -1.117   1.353  0.00  0.00    -0.229 NA
ENDROOT
BRANCH   3  10
ATOM     10  C   UNL     1      -3.703  -2.704  -1.833  0.00  0.00    -0.022 A 
ATOM     11  C   UNL     1      -3.451  -3.914  -1.213  0.00  0.00    +0.006 A 
ATOM     12  C   UNL     1      -3.597  -5.095  -1.917  0.00  0.00    +0.004 A 
ATOM     13  C   UNL     1      -3.994  -5.066  -3.240  0.00  0.00    -0.050 A 
ATOM     14  C   UNL     1      -4.247  -3.857  -3.860  0.00  0.00    +0.004 A 
ATOM     15  C   UNL     1      -4.105  -2.676  -3.155  0.00  0.00    +0.006 A 
ATOM     16  C   UNL     1      -4.152  -6.354  -4.008  0.00  0.00    +0.044 C 
ENDBRANCH   3  10
BRANCH   5  17
ATOM     17  C   UNL     1      -6.500  -2.046  -0.766  0.00  0.00    +0.091 C 
ATOM     18  C   UNL     1      -7.763  -2.475  -0.579  0.00  0.00    +0.239 C 
ATOM     19  O   UNL     1      -8.255  -2.610   0.677  0.00  0.00    -0.271 OA
BRANCH  18  20
ATOM     20  N   UNL     1      -8.559  -2.780  -1.670  0.00  0.00    -0.308 N 
ATOM     21  H   UNL     1      -8.186  -2.755  -2.565  0.00  0.00    +0.149 HD
BRANCH  20  22
ATOM     22  C   UNL     1      -9.966  -3.139  -1.474  0.00  0.00    +0.140 C 
BRANCH  22  23
ATOM     23  C   UNL     1     -10.572  -3.539  -2.794  0.00  0.00    -0.027 A 
ATOM     24  C   UNL     1     -11.163  -2.583  -3.599  0.00  0.00    +0.009 A 
ATOM     25  C   UNL     1     -11.719  -2.945  -4.812  0.00  0.00    +0.050 A 
ATOM     26  C   UNL     1     -11.687  -4.267  -5.223  0.00  0.00    +0.166 A 
ATOM     27  C   UNL     1     -11.092  -5.230  -4.412  0.00  0.00    +0.167 A 
ATOM     28  C   UNL     1     -10.531  -4.860  -3.200  0.00  0.00    +0.054 A 
ATOM     29  O   UNL     1     -11.187  -6.443  -5.032  0.00  0.00    -0.453 OA
ATOM     30  C   UNL     1     -12.205  -6.281  -6.038  0.00  0.00    +0.466 C 
ATOM     31  O   UNL     1     -12.155  -4.876  -6.351  0.00  0.00    -0.453 OA
ENDBRANCH  22  23
ENDBRANCH  20  22
ENDBRANCH  18  20
ENDBRANCH   5  17
BRANCH   1  33
ATOM     32  C   UNL     1       0.175   0.861   0.286  0.00  0.00    +0.010 C 
ATOM     33  C   UNL     1      -0.034  -0.651   0.395  0.00  0.00    +0.053 C 
ENDBRANCH   1  33
BRANCH   2  34
ATOM     34  C   UNL     1      -1.298  -0.948  -2.148  0.00  0.00    +0.339 C 
ATOM     35  O   UNL     1      -0.095  -0.770  -2.063  0.00  0.00    -0.245 OA
BRANCH  34  36
ATOM     36  O   UNL     1      -1.889  -0.999  -3.363  0.00  0.00    -0.465 OA
ATOM     37  C   UNL     1      -1.044  -0.835  -4.503  0.00  0.00    +0.280 C 
ENDBRANCH  34  36
ENDBRANCH   2  34
TORSDOF 8
