REMARK  Name = ZINC63411325
REMARK  3 active torsions:
REMARK  status: ('A' for Active; 'I' for Inactive)
REMARK    1  A    between atoms: C_5  and  C_7
REMARK    2  A    between atoms: N_8  and  N_9
REMARK    3  A    between atoms: C_10  and  C_12
REMARK                            x       y       z     vdW  Elec       q    Type
REMARK                         _______ _______ _______ _____ _____    ______ ____
ROOT
ATOM      1  N   UNL     1       3.567  -2.061  -0.291  0.00  0.00    -0.205 N 
ATOM      2  C   UNL     1       4.750  -2.704  -0.360  0.00  0.00    +0.263 C 
ATOM      3  O   UNL     1       4.785  -3.916  -0.326  0.00  0.00    -0.271 OA
ATOM      4  H   UNL     1       3.544  -1.092  -0.247  0.00  0.00    +0.177 HD
ENDROOT
BRANCH   2   5
ATOM      5  C   UNL     1       6.029  -1.916  -0.481  0.00  0.00    +0.243 C 
ATOM      6  C   UNL     1       6.652  -1.697   0.874  0.00  0.00    -0.012 C 
ATOM      7  C   UNL     1       7.840  -2.307   0.809  0.00  0.00    +0.065 C 
ATOM      8  C   UNL     1       8.815  -2.336   1.966  0.00  0.00    +0.057 C 
ATOM      9  C   UNL     1       8.419  -1.243   2.964  0.00  0.00    +0.006 C 
ATOM     10  C   UNL     1       6.928  -1.363   3.296  0.00  0.00    +0.005 C 
ATOM     11  C   UNL     1       6.103  -0.967   2.064  0.00  0.00    +0.035 C 
ATOM     12  N   UNL     1       8.008  -2.864  -0.410  0.00  0.00    -0.158 NA
ATOM     13  N   UNL     1       7.060  -2.698  -1.192  0.00  0.00    -0.170 NA
ENDBRANCH   2   5
BRANCH   1  15
ATOM     14  C   UNL     1       1.233  -2.174  -0.353  0.00  0.00    +0.139 C 
ATOM     15  N   UNL     1       2.372  -2.792  -0.282  0.00  0.00    -0.188 NA
BRANCH  14  20
ATOM     16  C   UNL     1       2.107   0.899  -2.321  0.00  0.00    +0.001 A 
ATOM     17  C   UNL     1       1.031   1.720  -2.030  0.00  0.00    +0.001 A 
ATOM     18  C   UNL     1       0.020   1.277  -1.196  0.00  0.00    +0.016 A 
ATOM     19  C   UNL     1       0.079   0.012  -0.646  0.00  0.00    +0.027 A 
ATOM     20  C   UNL     1       1.163  -0.822  -0.936  0.00  0.00    +0.008 A 
ATOM     21  C   UNL     1       2.179  -0.367  -1.780  0.00  0.00    +0.010 A 
ATOM     22 BR   UNL     1      -1.303  -0.591   0.495  0.00  0.00    -0.050 Br
ENDBRANCH  14  20
ENDBRANCH   1  15
TORSDOF 3
