REMARK  Name = ZINC00854227
REMARK  5 active torsions:
REMARK  status: ('A' for Active; 'I' for Inactive)
REMARK    1  A    between atoms: C_6  and  C_7
REMARK    2  A    between atoms: C_8  and  C_9
REMARK    3  A    between atoms: C_8  and  N_13
REMARK    4  A    between atoms: N_11  and  N_12
REMARK    5  A    between atoms: C_14  and  C_16
REMARK                            x       y       z     vdW  Elec       q    Type
REMARK                         _______ _______ _______ _____ _____    ______ ____
ROOT
ATOM      1  C   UNL     1      -0.245   1.628  -0.506  0.00  0.00    +0.036 C 
ATOM      2  C   UNL     1       0.981   2.053  -0.118  0.00  0.00    +0.098 C 
ENDROOT
BRANCH   1   8
ATOM      3  C   UNL     1       0.612   0.037  -2.214  0.00  0.00    +0.012 A 
ATOM      4  C   UNL     1       0.484  -1.123  -2.947  0.00  0.00    +0.050 A 
ATOM      5  C   UNL     1      -0.630  -1.934  -2.785  0.00  0.00    +0.166 A 
ATOM      6  C   UNL     1      -1.626  -1.582  -1.872  0.00  0.00    +0.167 A 
ATOM      7  C   UNL     1      -1.503  -0.424  -1.129  0.00  0.00    +0.057 A 
ATOM      8  C   UNL     1      -0.380   0.394  -1.294  0.00  0.00    -0.019 A 
ATOM      9  O   UNL     1      -2.602  -2.536  -1.903  0.00  0.00    -0.453 OA
ATOM     10  C   UNL     1      -2.001  -3.679  -2.539  0.00  0.00    +0.466 C 
ATOM     11  O   UNL     1      -0.985  -3.107  -3.384  0.00  0.00    -0.453 OA
ENDBRANCH   1   8
BRANCH   2  12
ATOM     12  C   UNL     1       2.159   1.208  -0.353  0.00  0.00    +0.272 C 
ATOM     13  O   UNL     1       2.949   1.497  -1.232  0.00  0.00    -0.268 OA
ATOM     14  N   UNL     1       2.365   0.113   0.405  0.00  0.00    -0.249 N 
ATOM     15  H   UNL     1       1.700  -0.159   1.056  0.00  0.00    +0.169 HD
BRANCH  14  16
ATOM     16  N   UNL     1       3.511  -0.616   0.255  0.00  0.00    -0.254 NA
ATOM     17  H   UNL     1       3.492  -1.443   0.832  0.00  0.00    +0.140 HD
ATOM     18  H   UNL     1       3.664  -0.855  -0.714  0.00  0.00    +0.140 HD
ENDBRANCH  14  16
ENDBRANCH   2  12
BRANCH   2  19
ATOM     19  N   UNL     1       1.125   3.296   0.508  0.00  0.00    -0.275 N 
ATOM     20  C   UNL     1       2.338   3.699   0.935  0.00  0.00    +0.284 C 
ATOM     21  O   UNL     1       3.323   3.025   0.693  0.00  0.00    -0.266 OA
ATOM     22  H   UNL     1       0.351   3.867   0.635  0.00  0.00    +0.155 HD
BRANCH  20  23
ATOM     23  C   UNL     1       2.471   4.947   1.690  0.00  0.00    +0.191 A 
ATOM     24  C   UNL     1       3.635   5.469   2.179  0.00  0.00    +0.056 A 
ATOM     25  C   UNL     1       3.300   6.666   2.829  0.00  0.00    +0.058 A 
ATOM     26  C   UNL     1       1.961   6.822   2.711  0.00  0.00    +0.171 A 
ATOM     27  O   UNL     1       1.466   5.786   2.019  0.00  0.00    -0.444 OA
ATOM     28 BR   UNL     1       0.954   8.266   3.401  0.00  0.00    -0.008 Br
ENDBRANCH  20  23
ENDBRANCH   2  19
TORSDOF 5
