REMARK  Name = ZINC39990714
REMARK  6 active torsions:
REMARK  status: ('A' for Active; 'I' for Inactive)
REMARK    1  A    between atoms: C_1  and  C_2
REMARK    2  A    between atoms: C_9  and  N_14
REMARK    3  A    between atoms: N_14  and  C_15
REMARK    4  A    between atoms: C_15  and  C_17
REMARK    5  A    between atoms: C_15  and  C_23
REMARK    6  A    between atoms: C_23  and  C_25
REMARK                            x       y       z     vdW  Elec       q    Type
REMARK                         _______ _______ _______ _____ _____    ______ ____
ROOT
ATOM      1  C   UNL     1       6.911   0.334   2.395  0.00  0.00    +0.172 C 
ENDROOT
BRANCH   1   2
ATOM      2  C   UNL     1       6.904   1.811   2.695  0.00  0.00    -0.020 A 
ATOM      3  C   UNL     1       7.077   2.725   1.673  0.00  0.00    +0.006 A 
ATOM      4  C   UNL     1       7.070   4.079   1.948  0.00  0.00    +0.000 A 
ATOM      5  C   UNL     1       6.891   4.520   3.246  0.00  0.00    +0.000 A 
ATOM      6  C   UNL     1       6.718   3.606   4.269  0.00  0.00    +0.000 A 
ATOM      7  C   UNL     1       6.720   2.251   3.993  0.00  0.00    +0.006 A 
ENDBRANCH   1   2
BRANCH   1   8
ATOM      8  N   UNL     1       6.196   0.088   1.140  0.00  0.00    -0.330 N 
ATOM      9  H   UNL     1       6.687   0.024   0.306  0.00  0.00    +0.147 HD
BRANCH   8  17
ATOM     10  C   UNL     1      -0.019   1.526   0.010  0.00  0.00    +0.062 C 
ATOM     11  C   UNL     1       0.002  -0.004   0.002  0.00  0.00    +0.256 C 
ATOM     12  C   UNL     1       0.706  -0.490  -1.239  0.00  0.00    +0.258 C 
ATOM     13  O   UNL     1       0.074  -0.718  -2.249  0.00  0.00    -0.271 OA
ATOM     14  N   UNL     1       2.045  -0.669  -1.223  0.00  0.00    -0.279 N 
ATOM     15  C   UNL     1       2.748  -0.432  -0.033  0.00  0.00    +0.077 A 
ATOM     16  C   UNL     1       4.126  -0.290  -0.044  0.00  0.00    +0.050 A 
ATOM     17  C   UNL     1       4.804  -0.056   1.145  0.00  0.00    +0.030 A 
ATOM     18  C   UNL     1       4.101   0.034   2.340  0.00  0.00    +0.026 A 
ATOM     19  C   UNL     1       2.726  -0.107   2.350  0.00  0.00    +0.049 A 
ATOM     20  C   UNL     1       2.046  -0.339   1.167  0.00  0.00    +0.143 A 
ATOM     21  O   UNL     1       0.693  -0.477   1.161  0.00  0.00    -0.478 OA
ATOM     22  H   UNL     1       2.513  -0.958  -2.022  0.00  0.00    +0.155 HD
ENDBRANCH   8  17
ENDBRANCH   1   8
BRANCH   1  23
ATOM     23  C   UNL     1       8.334  -0.146   2.264  0.00  0.00    +0.186 C 
ATOM     24  O   UNL     1       8.823  -0.302   1.164  0.00  0.00    -0.290 OA
BRANCH  23  25
ATOM     25  C   UNL     1       9.097  -0.413   3.420  0.00  0.00    +0.025 C 
ATOM     26  C   UNL     1      10.408  -0.851   3.474  0.00  0.00    +0.006 A 
ATOM     27  C   UNL     1      11.362  -1.158   2.475  0.00  0.00    +0.010 A 
ATOM     28  C   UNL     1      12.601  -1.575   2.821  0.00  0.00    +0.001 A 
ATOM     29  C   UNL     1      13.000  -1.723   4.159  0.00  0.00    +0.002 A 
ATOM     30  C   UNL     1      12.166  -1.456   5.188  0.00  0.00    +0.026 A 
ATOM     31  C   UNL     1      10.798  -0.996   4.898  0.00  0.00    +0.043 A 
ATOM     32  N   UNL     1       9.805  -0.674   5.678  0.00  0.00    -0.380 N 
ATOM     33  C   UNL     1       8.655  -0.275   4.861  0.00  0.00    +0.152 C 
ATOM     34  H   UNL     1       9.825  -0.692   6.648  0.00  0.00    +0.160 HD
ENDBRANCH  23  25
ENDBRANCH   1  23
TORSDOF 5
