REMARK  Name = ZINC54562784
REMARK  7 active torsions:
REMARK  status: ('A' for Active; 'I' for Inactive)
REMARK    1  A    between atoms: C_1  and  C_2
REMARK    2  A    between atoms: C_3  and  C_12
REMARK    3  A    between atoms: C_8  and  S_10
REMARK    4  A    between atoms: S_10  and  C_11
REMARK    5  A    between atoms: C_12  and  C_13
REMARK    6  A    between atoms: C_13  and  C_14
REMARK    7  A    between atoms: N_16  and  C_17
REMARK                            x       y       z     vdW  Elec       q    Type
REMARK                         _______ _______ _______ _____ _____    ______ ____
ROOT
ATOM      1  C   UNL     1      -4.329   0.892  -1.407  0.00  0.00    +0.214 C 
ATOM      2  O   UNL     1      -4.811   1.258  -0.356  0.00  0.00    -0.276 OA
ATOM      3  N   UNL     1      -4.975   1.134  -2.565  0.00  0.00    -0.310 N 
ATOM      4  H   UNL     1      -4.589   0.842  -3.406  0.00  0.00    +0.149 HD
ENDROOT
BRANCH   3   5
ATOM      5  C   UNL     1      -6.259   1.839  -2.554  0.00  0.00    +0.035 C 
ATOM      6  C   UNL     1      -6.074   3.226  -1.937  0.00  0.00    +0.029 C 
ATOM      7  C   UNL     1      -7.416   3.962  -1.926  0.00  0.00    -0.008 C 
ATOM      8  C   UNL     1      -7.931   4.106  -3.360  0.00  0.00    +0.007 C 
ATOM      9  C   UNL     1      -8.116   2.718  -3.977  0.00  0.00    -0.008 C 
ATOM     10  C   UNL     1      -6.774   1.982  -3.988  0.00  0.00    +0.029 C 
ATOM     11  C   UNL     1      -9.127   1.922  -3.149  0.00  0.00    +0.007 C 
ATOM     12  C   UNL     1      -8.612   1.778  -1.715  0.00  0.00    -0.008 C 
ATOM     13  C   UNL     1      -8.427   3.166  -1.098  0.00  0.00    +0.007 C 
ATOM     14  C   UNL     1      -7.270   1.043  -1.727  0.00  0.00    +0.029 C 
ENDBRANCH   3   5
BRANCH   1  15
ATOM     15  C   UNL     1      -3.008   0.167  -1.419  0.00  0.00    +0.100 C 
BRANCH  15  16
ATOM     16  C   UNL     1      -2.493   0.023   0.015  0.00  0.00    +0.051 C 
BRANCH  16  19
ATOM     17  C   UNL     1      -0.018   1.503   0.010  0.00  0.00    +0.066 C 
ATOM     18  C   UNL     1       0.002  -0.004   0.002  0.00  0.00    +0.049 A 
ATOM     19  C   UNL     1      -1.171  -0.701   0.004  0.00  0.00    +0.038 A 
ATOM     20  C   UNL     1      -1.128  -2.107  -0.004  0.00  0.00    +0.256 A 
ATOM     21  O   UNL     1      -2.158  -2.761  -0.004  0.00  0.00    -0.267 OA
ATOM     22  N   UNL     1       0.076  -2.718  -0.014  0.00  0.00    -0.302 N 
ATOM     23  H   UNL     1       0.130  -3.687  -0.020  0.00  0.00    +0.171 HD
ATOM     24  C   UNL     1       1.214  -1.970  -0.015  0.00  0.00    +0.169 A 
ATOM     25  N   UNL     1       1.164  -0.652  -0.013  0.00  0.00    -0.228 NA
BRANCH  24  26
ATOM     26  S   UNL     1       2.781  -2.777  -0.027  0.00  0.00    -0.091 S 
ATOM     27  C   UNL     1       3.977  -1.414  -0.025  0.00  0.00    +0.093 C 
ENDBRANCH  24  26
ENDBRANCH  16  19
ENDBRANCH  15  16
ENDBRANCH   1  15
TORSDOF 5
