REMARK  Name = ZINC33026735
REMARK  8 active torsions:
REMARK  status: ('A' for Active; 'I' for Inactive)
REMARK    1  A    between atoms: C_1  and  C_2
REMARK    2  A    between atoms: C_4  and  C_28
REMARK    3  A    between atoms: C_6  and  N_8
REMARK    4  A    between atoms: N_8  and  S_9
REMARK    5  A    between atoms: S_9  and  C_12
REMARK    6  A    between atoms: C_15  and  C_18
REMARK    7  A    between atoms: C_18  and  C_19
REMARK    8  A    between atoms: C_21  and  C_27
REMARK                            x       y       z     vdW  Elec       q    Type
REMARK                         _______ _______ _______ _____ _____    ______ ____
ROOT
ATOM      1  C   UNL     1       5.675  -2.478  -3.522  0.00  0.00    +0.109 A 
ATOM      2  C   UNL     1       5.778  -1.716  -2.373  0.00  0.00    +0.029 A 
ATOM      3  C   UNL     1       5.786  -2.330  -1.135  0.00  0.00    +0.006 A 
ATOM      4  C   UNL     1       5.691  -3.706  -1.045  0.00  0.00    -0.043 A 
ATOM      5  C   UNL     1       5.593  -4.469  -2.194  0.00  0.00    +0.006 A 
ATOM      6  C   UNL     1       5.580  -3.854  -3.432  0.00  0.00    +0.029 A 
ENDROOT
BRANCH   1   7
ATOM      7  S   UNL     1       5.663  -1.695  -5.100  0.00  0.00    +0.072 S 
ATOM      8  O   UNL     1       4.901  -2.530  -5.962  0.00  0.00    -0.150 OA
ATOM      9  O   UNL     1       5.336  -0.331  -4.875  0.00  0.00    -0.150 OA
BRANCH   7  10
ATOM     10  N   UNL     1       7.218  -1.721  -5.671  0.00  0.00    -0.216 N 
ATOM     11  H   UNL     1       7.456  -2.272  -6.593  0.00  0.00    +0.174 HD
BRANCH  10  17
ATOM     12  C   UNL     1       9.402   2.511  -4.456  0.00  0.00    +0.044 C 
ATOM     13  C   UNL     1       9.309   1.009  -4.375  0.00  0.00    -0.048 A 
ATOM     14  C   UNL     1      10.223   0.300  -3.618  0.00  0.00    +0.006 A 
ATOM     15  C   UNL     1      10.142  -1.078  -3.540  0.00  0.00    -0.048 A 
ATOM     16  C   UNL     1       9.146  -1.752  -4.220  0.00  0.00    +0.028 A 
ATOM     17  C   UNL     1       8.226  -1.043  -4.982  0.00  0.00    +0.049 A 
ATOM     18  C   UNL     1       8.314   0.341  -5.061  0.00  0.00    +0.028 A 
ATOM     19  C   UNL     1      11.141  -1.846  -2.713  0.00  0.00    +0.044 C 
ENDBRANCH  10  17
ENDBRANCH   7  10
ENDBRANCH   1   7
BRANCH   4  20
ATOM     20  C   UNL     1       5.699  -4.376   0.305  0.00  0.00    +0.075 C 
BRANCH  20  21
ATOM     21  C   UNL     1       4.287  -4.497   0.815  0.00  0.00    +0.024 A 
ATOM     22  C   UNL     1       3.563  -5.639   0.623  0.00  0.00    +0.034 A 
ATOM     23  C   UNL     1       2.251  -5.689   1.123  0.00  0.00    +0.059 A 
ATOM     24  N   UNL     1       1.744  -4.665   1.752  0.00  0.00    -0.176 NA
ATOM     25  N   UNL     1       2.403  -3.580   1.946  0.00  0.00    -0.243 N 
ATOM     26  H   UNL     1       1.936  -2.742   2.483  0.00  0.00    +0.192 HD
ATOM     27  C   UNL     1       3.667  -3.433   1.506  0.00  0.00    +0.268 A 
ATOM     28  O   UNL     1       4.272  -2.392   1.704  0.00  0.00    -0.266 OA
ATOM     29  C   UNL     1       1.423  -6.933   0.929  0.00  0.00    +0.067 C 
ENDBRANCH  20  21
ENDBRANCH   4  20
TORSDOF 5
