REMARK  Name = ZINC15642920
REMARK  6 active torsions:
REMARK  status: ('A' for Active; 'I' for Inactive)
REMARK    1  A    between atoms: C_1  and  C_2
REMARK    2  A    between atoms: C_2  and  C_4
REMARK    3  A    between atoms: C_2  and  O_13
REMARK    4  A    between atoms: O_13  and  C_14
REMARK    5  A    between atoms: C_14  and  C_16
REMARK    6  A    between atoms: C_21  and  N_22
REMARK                            x       y       z     vdW  Elec       q    Type
REMARK                         _______ _______ _______ _____ _____    ______ ____
ROOT
ATOM      1  C   UNL     1      -0.765  -0.658  -2.834  0.00  0.00    +0.342 C 
ATOM      2  O   UNL     1      -1.920  -0.444  -2.524  0.00  0.00    -0.245 OA
ENDROOT
BRANCH   1   3
ATOM      3  C   UNL     1      -0.433  -1.042  -4.217  0.00  0.00    +0.082 A 
ATOM      4  C   UNL     1       0.902  -1.174  -4.609  0.00  0.00    +0.037 A 
ATOM      5  C   UNL     1       1.206  -1.532  -5.905  0.00  0.00    +0.043 A 
ATOM      6  C   UNL     1       0.194  -1.764  -6.824  0.00  0.00    +0.042 A 
ATOM      7  C   UNL     1      -1.130  -1.637  -6.452  0.00  0.00    +0.064 A 
ATOM      8  C   UNL     1      -1.456  -1.282  -5.148  0.00  0.00    +0.057 A 
ATOM      9 CL   UNL     1      -2.388  -1.929  -7.612  0.00  0.00    -0.082 Cl
ATOM     10 CL   UNL     1       2.866  -1.696  -6.389  0.00  0.00    -0.083 Cl
BRANCH   8  11
ATOM     11  N   UNL     1      -2.787  -1.161  -4.769  0.00  0.00    -0.356 N 
ATOM     12  H   UNL     1      -3.012  -0.834  -3.884  0.00  0.00    +0.142 HD
ATOM     13  H   UNL     1      -3.492  -1.403  -5.390  0.00  0.00    +0.142 HD
ENDBRANCH   8  11
ENDBRANCH   1   3
BRANCH   1  14
ATOM     14  O   UNL     1       0.212  -0.545  -1.913  0.00  0.00    -0.449 OA
BRANCH  14  16
ATOM     15  C   UNL     1      -0.158   1.355  -0.467  0.00  0.00    +0.062 C 
ATOM     16  C   UNL     1      -0.182  -0.170  -0.592  0.00  0.00    +0.259 C 
BRANCH  16  17
ATOM     17  C   UNL     1       0.773  -0.771   0.407  0.00  0.00    +0.256 C 
ATOM     18  O   UNL     1       1.790  -1.311   0.025  0.00  0.00    -0.272 OA
ATOM     19  N   UNL     1       0.498  -0.709   1.724  0.00  0.00    -0.298 N 
ATOM     20  C   UNL     1       1.491  -1.181   2.663  0.00  0.00    +0.108 C 
ATOM     21  C   UNL     1       1.280  -2.692   2.928  0.00  0.00    +0.019 C 
ATOM     22  C   UNL     1       0.064  -2.905   3.728  0.00  0.00    +0.002 C 
ATOM     23  C   UNL     1      -1.225  -2.458   3.045  0.00  0.00    +0.002 C 
ATOM     24  C   UNL     1      -1.435  -0.984   3.290  0.00  0.00    +0.019 C 
ATOM     25  C   UNL     1      -0.804  -0.157   2.150  0.00  0.00    +0.108 C 
ENDBRANCH  16  17
ENDBRANCH  14  16
ENDBRANCH   1  14
TORSDOF 5
