REMARK  Name = ZINC00864008
REMARK  9 active torsions:
REMARK  status: ('A' for Active; 'I' for Inactive)
REMARK    1  A    between atoms: C_1  and  C_2
REMARK    2  A    between atoms: C_2  and  N_3
REMARK    3  A    between atoms: C_4  and  C_24
REMARK    4  A    between atoms: C_7  and  S_8
REMARK    5  A    between atoms: S_8  and  C_9
REMARK    6  A    between atoms: C_9  and  C_10
REMARK    7  A    between atoms: N_12  and  N_13
REMARK    8  A    between atoms: C_14  and  C_15
REMARK    9  A    between atoms: C_20  and  O_21
REMARK                            x       y       z     vdW  Elec       q    Type
REMARK                         _______ _______ _______ _____ _____    ______ ____
ROOT
ATOM      1  C   UNL     1       5.998  -0.507  -0.120  0.00  0.00    +0.242 C 
ATOM      2  O   UNL     1       5.810  -0.087   1.003  0.00  0.00    -0.273 OA
ATOM      3  N   UNL     1       7.252  -0.762  -0.543  0.00  0.00    -0.206 N 
ATOM      4  H   UNL     1       7.401  -1.097  -1.441  0.00  0.00    +0.177 HD
ENDROOT
BRANCH   3   5
ATOM      5  N   UNL     1       8.338  -0.543   0.313  0.00  0.00    -0.188 NA
ATOM      6  C   UNL     1       9.546  -0.788  -0.095  0.00  0.00    +0.142 C 
BRANCH   6   7
ATOM      7  C   UNL     1      10.689  -0.558   0.806  0.00  0.00    +0.038 A 
ATOM      8  C   UNL     1      11.991  -0.815   0.369  0.00  0.00    +0.028 A 
ATOM      9  C   UNL     1      13.057  -0.597   1.217  0.00  0.00    +0.020 A 
ATOM     10  C   UNL     1      12.842  -0.123   2.501  0.00  0.00    +0.034 A 
ATOM     11  C   UNL     1      11.559   0.136   2.945  0.00  0.00    +0.061 A 
ATOM     12  C   UNL     1      10.477  -0.073   2.103  0.00  0.00    +0.139 A 
ATOM     13 BR   UNL     1      11.279   0.783   4.699  0.00  0.00    -0.046 Br
ATOM     14 BR   UNL     1      14.818  -0.947   0.625  0.00  0.00    -0.050 Br
BRANCH  12  15
ATOM     15  O   UNL     1       9.216   0.186   2.537  0.00  0.00    -0.505 OA
ATOM     16  H   UNL     1       8.783  -0.567   2.961  0.00  0.00    +0.292 HD
ENDBRANCH  12  15
ENDBRANCH   6   7
ENDBRANCH   3   5
BRANCH   1  17
ATOM     17  C   UNL     1       4.829  -0.743  -1.041  0.00  0.00    +0.174 C 
BRANCH  17  18
ATOM     18  S   UNL     1       3.288  -0.309  -0.186  0.00  0.00    -0.077 S 
BRANCH  18  23
ATOM     19  N   UNL     1       0.689  -0.464  -1.208  0.00  0.00    -0.302 N 
ATOM     20  C   UNL     1       0.112  -0.840  -2.399  0.00  0.00    +0.165 A 
ATOM     21  N   UNL     1       1.085  -1.210  -3.199  0.00  0.00    -0.128 NA
ATOM     22  N   UNL     1       2.215  -1.092  -2.598  0.00  0.00    -0.122 NA
ATOM     23  C   UNL     1       2.033  -0.635  -1.379  0.00  0.00    +0.192 A 
BRANCH  20  24
ATOM     24  C   UNL     1      -1.331  -0.829  -2.718  0.00  0.00    +0.019 A 
ATOM     25  C   UNL     1      -2.211  -0.052  -1.962  0.00  0.00    +0.011 A 
ATOM     26  C   UNL     1      -3.557  -0.047  -2.265  0.00  0.00    +0.001 A 
ATOM     27  C   UNL     1      -4.035  -0.810  -3.316  0.00  0.00    +0.000 A 
ATOM     28  C   UNL     1      -3.169  -1.582  -4.069  0.00  0.00    +0.001 A 
ATOM     29  C   UNL     1      -1.820  -1.592  -3.780  0.00  0.00    +0.011 A 
ENDBRANCH  20  24
BRANCH  19  31
ATOM     30  C   UNL     1      -0.017   1.555  -0.021  0.00  0.00    +0.027 C 
ATOM     31  C   UNL     1       0.005   0.025  -0.008  0.00  0.00    +0.122 C 
ENDBRANCH  19  31
ENDBRANCH  18  23
ENDBRANCH  17  18
ENDBRANCH   1  17
TORSDOF 8
