REMARK  Name = ZINC46338038
REMARK  7 active torsions:
REMARK  status: ('A' for Active; 'I' for Inactive)
REMARK    1  A    between atoms: C_1  and  C_2
REMARK    2  A    between atoms: N_8  and  C_9
REMARK    3  A    between atoms: C_9  and  C_11
REMARK    4  A    between atoms: C_9  and  C_12
REMARK    5  A    between atoms: C_12  and  N_13
REMARK    6  A    between atoms: C_19  and  C_22
REMARK    7  A    between atoms: C_25  and  O_28
REMARK                            x       y       z     vdW  Elec       q    Type
REMARK                         _______ _______ _______ _____ _____    ______ ____
ROOT
ATOM      1  N   UNL     1      -0.781   1.937   0.764  0.00  0.00    -0.301 N 
ATOM      2  C   UNL     1      -1.054   3.210   0.417  0.00  0.00    +0.302 C 
ATOM      3  O   UNL     1      -0.599   4.129   1.071  0.00  0.00    -0.253 OA
ATOM      4  N   UNL     1      -1.831   3.465  -0.654  0.00  0.00    -0.282 N 
ATOM      5  C   UNL     1      -2.054   4.842  -1.128  0.00  0.00    +0.114 C 
ATOM      6  C   UNL     1      -1.491   4.950  -2.547  0.00  0.00    +0.054 C 
ATOM      7  C   UNL     1      -1.917   3.770  -3.370  0.00  0.00    -0.041 C 
ATOM      8  C   UNL     1      -2.348   2.637  -2.871  0.00  0.00    -0.004 C 
ATOM      9  C   UNL     1      -2.484   2.380  -1.400  0.00  0.00    +0.137 C 
ATOM     10  H   UNL     1      -1.083   1.206   0.203  0.00  0.00    +0.150 HD
ENDROOT
BRANCH   7  11
ATOM     11  C   UNL     1      -1.846   3.894  -4.841  0.00  0.00    -0.022 A 
ATOM     12  C   UNL     1      -0.609   4.041  -5.471  0.00  0.00    +0.012 A 
ATOM     13  C   UNL     1      -0.547   4.156  -6.844  0.00  0.00    +0.046 A 
ATOM     14  C   UNL     1      -1.712   4.126  -7.598  0.00  0.00    +0.117 A 
ATOM     15  C   UNL     1      -2.944   3.980  -6.975  0.00  0.00    +0.046 A 
ATOM     16  C   UNL     1      -3.014   3.858  -5.603  0.00  0.00    +0.012 A 
BRANCH  14  17
ATOM     17  O   UNL     1      -1.647   4.239  -8.951  0.00  0.00    -0.507 OA
ATOM     18  H   UNL     1      -1.560   3.394  -9.413  0.00  0.00    +0.292 HD
ENDBRANCH  14  17
ENDBRANCH   7  11
BRANCH   1  19
ATOM     19  C   UNL     1      -0.028   1.656   1.989  0.00  0.00    +0.090 C 
BRANCH  19  20
ATOM     20  C   UNL     1       0.042   0.144   2.210  0.00  0.00    -0.054 C 
ATOM     21  C   UNL     1       0.907  -0.153   3.437  0.00  0.00    -0.012 C 
BRANCH  20  28
ATOM     22  C   UNL     1      -0.826  -2.416   1.451  0.00  0.00    -0.013 C 
ATOM     23  C   UNL     1       0.611  -1.954   1.201  0.00  0.00    -0.071 C 
ATOM     24  C   UNL     1       1.150  -2.630  -0.062  0.00  0.00    -0.016 C 
ATOM     25  C   UNL     1       2.588  -2.165  -0.308  0.00  0.00    -0.003 C 
ATOM     26  C   UNL     1       2.610  -0.637  -0.412  0.00  0.00    -0.019 C 
ATOM     27  C   UNL     1       2.017  -0.036   0.864  0.00  0.00    -0.078 C 
ATOM     28  N   UNL     1       0.633  -0.497   1.028  0.00  0.00    +0.384 N 
ATOM     29  H   UNL     1       0.097  -0.248   0.210  0.00  0.00    -0.081 HD
ENDBRANCH  20  28
ENDBRANCH  19  20
ENDBRANCH   1  19
TORSDOF 5
