REMARK  Name = ZINC08964139
REMARK  7 active torsions:
REMARK  status: ('A' for Active; 'I' for Inactive)
REMARK    1  A    between atoms: C_1  and  N_2
REMARK    2  A    between atoms: C_9  and  C_11
REMARK    3  A    between atoms: C_11  and  C_13
REMARK    4  A    between atoms: C_11  and  N_26
REMARK    5  A    between atoms: C_13  and  N_14
REMARK    6  A    between atoms: C_15  and  C_17
REMARK    7  A    between atoms: N_19  and  C_20
REMARK                            x       y       z     vdW  Elec       q    Type
REMARK                         _______ _______ _______ _____ _____    ______ ____
ROOT
ATOM      1  C   UNL     1       0.408  -3.849   4.441  0.00  0.00    -0.020 C 
ENDROOT
BRANCH   1  10
ATOM      2  C   UNL     1      -0.305   1.261   0.117  0.00  0.00    +0.129 C 
ATOM      3  N   UNL     1      -0.348  -0.203   0.167  0.00  0.00    -0.332 N 
ATOM      4  C   UNL     1      -0.612  -1.075  -0.981  0.00  0.00    +0.109 C 
ATOM      5  C   UNL     1      -0.551  -2.506  -0.422  0.00  0.00    +0.056 C 
ATOM      6  C   UNL     1      -0.247  -2.327   1.048  0.00  0.00    -0.025 A 
ATOM      7  C   UNL     1      -0.138  -0.970   1.313  0.00  0.00    +0.033 A 
ATOM      8  C   UNL     1       0.148  -0.555   2.616  0.00  0.00    +0.023 A 
ATOM      9  C   UNL     1       0.323  -1.485   3.619  0.00  0.00    +0.004 A 
ATOM     10  C   UNL     1       0.216  -2.836   3.343  0.00  0.00    -0.059 A 
ATOM     11  C   UNL     1      -0.076  -3.254   2.057  0.00  0.00    +0.007 A 
ENDBRANCH   1  10
BRANCH   1  12
ATOM     12  N   UNL     1      -0.227  -3.362   5.673  0.00  0.00    +0.385 N 
ATOM     13  C   UNL     1      -1.703  -3.324   5.508  0.00  0.00    -0.078 C 
ATOM     14  C   UNL     1      -2.224  -3.357   6.966  0.00  0.00    -0.020 C 
ATOM     15  C   UNL     1      -1.234  -4.317   7.665  0.00  0.00    -0.020 C 
ATOM     16  C   UNL     1       0.029  -4.302   6.786  0.00  0.00    -0.078 C 
ATOM     17  H   UNL     1       0.122  -2.444   5.906  0.00  0.00    -0.081 HD
ENDBRANCH   1  12
BRANCH   1  18
ATOM     18  C   UNL     1       1.904  -4.057   4.687  0.00  0.00    +0.094 C 
BRANCH  18  19
ATOM     19  N   UNL     1       2.514  -4.663   3.501  0.00  0.00    -0.309 N 
ATOM     20  C   UNL     1       3.810  -5.030   3.523  0.00  0.00    +0.299 C 
ATOM     21  O   UNL     1       4.472  -4.860   4.526  0.00  0.00    -0.265 OA
ATOM     22  H   UNL     1       1.985  -4.799   2.699  0.00  0.00    +0.149 HD
BRANCH  20  23
ATOM     23  C   UNL     1       4.432  -5.648   2.313  0.00  0.00    +0.303 C 
ATOM     24  O   UNL     1       3.770  -5.818   1.310  0.00  0.00    -0.265 OA
ATOM     25  N   UNL     1       5.729  -6.015   2.336  0.00  0.00    -0.278 N 
ATOM     26  H   UNL     1       6.276  -5.815   3.111  0.00  0.00    +0.155 HD
BRANCH  25  27
ATOM     27  C   UNL     1       6.284  -6.684   1.242  0.00  0.00    +0.034 A 
ATOM     28  C   UNL     1       7.244  -7.668   1.442  0.00  0.00    +0.023 A 
ATOM     29  C   UNL     1       7.791  -8.328   0.358  0.00  0.00    +0.002 A 
ATOM     30  C   UNL     1       7.383  -8.010  -0.924  0.00  0.00    +0.000 A 
ATOM     31  C   UNL     1       6.428  -7.030  -1.127  0.00  0.00    +0.002 A 
ATOM     32  C   UNL     1       5.873  -6.371  -0.048  0.00  0.00    +0.023 A 
ENDBRANCH  25  27
ENDBRANCH  20  23
ENDBRANCH  18  19
ENDBRANCH   1  18
TORSDOF 6
