REMARK  Name = ZINC16805195
REMARK  7 active torsions:
REMARK  status: ('A' for Active; 'I' for Inactive)
REMARK    1  A    between atoms: C_1  and  C_2
REMARK    2  A    between atoms: C_6  and  N_8
REMARK    3  A    between atoms: C_12  and  S_14
REMARK    4  A    between atoms: S_14  and  C_15
REMARK    5  A    between atoms: C_15  and  C_16
REMARK    6  A    between atoms: C_25  and  S_27
REMARK    7  A    between atoms: S_27  and  N_30
REMARK                            x       y       z     vdW  Elec       q    Type
REMARK                         _______ _______ _______ _____ _____    ______ ____
ROOT
ATOM      1  C   UNL     1      -1.263   0.646   1.201  0.00  0.00    +0.230 C 
ATOM      2  O   UNL     1      -2.349   1.175   1.094  0.00  0.00    -0.274 OA
ATOM      3  N   UNL     1      -0.794   0.311   2.419  0.00  0.00    -0.270 N 
ATOM      4  C   UNL     1       0.496  -0.336   2.673  0.00  0.00    +0.118 C 
ATOM      5  C   UNL     1       0.570  -0.503   4.200  0.00  0.00    +0.056 C 
ATOM      6  C   UNL     1      -0.733   0.072   4.709  0.00  0.00    -0.023 A 
ATOM      7  C   UNL     1      -1.469   0.523   3.625  0.00  0.00    +0.040 A 
ATOM      8  C   UNL     1      -2.721   1.100   3.848  0.00  0.00    +0.026 A 
ATOM      9  C   UNL     1      -3.213   1.217   5.131  0.00  0.00    +0.030 A 
ATOM     10  C   UNL     1      -2.470   0.764   6.206  0.00  0.00    +0.105 A 
ATOM     11  C   UNL     1      -1.230   0.192   5.992  0.00  0.00    +0.034 A 
ENDROOT
BRANCH  10  12
ATOM     12  S   UNL     1      -3.103   0.917   7.843  0.00  0.00    +0.056 S 
ATOM     13  O   UNL     1      -1.980   0.913   8.714  0.00  0.00    -0.153 OA
ATOM     14  O   UNL     1      -4.044   1.981   7.818  0.00  0.00    -0.153 OA
BRANCH  12  15
ATOM     15  N   UNL     1      -3.958  -0.464   8.168  0.00  0.00    -0.204 NA
ATOM     16  H   UNL     1      -4.027  -1.161   7.497  0.00  0.00    +0.144 HD
ATOM     17  H   UNL     1      -4.389  -0.575   9.030  0.00  0.00    +0.144 HD
ENDBRANCH  12  15
ENDBRANCH  10  12
BRANCH   1  18
ATOM     18  C   UNL     1      -0.438   0.364  -0.028  0.00  0.00    +0.172 C 
BRANCH  18  19
ATOM     19  S   UNL     1      -1.336   0.927  -1.501  0.00  0.00    -0.088 S 
BRANCH  19  24
ATOM     20  N   UNL     1       1.585  -0.020  -6.419  0.00  0.00    -0.292 N 
ATOM     21  C   UNL     1       1.078   0.105  -5.130  0.00  0.00    +0.187 A 
ATOM     22  N   UNL     1       1.616  -0.257  -3.982  0.00  0.00    -0.125 NA
ATOM     23  N   UNL     1       0.937  -0.033  -2.807  0.00  0.00    -0.133 NA
ATOM     24  C   UNL     1      -0.255   0.532  -2.835  0.00  0.00    +0.160 A 
ATOM     25  S   UNL     1      -0.476   0.798  -4.588  0.00  0.00    -0.024 S 
ATOM     26  H   UNL     1       1.109   0.373  -7.168  0.00  0.00    +0.154 HD
BRANCH  20  32
ATOM     27  C   UNL     1       5.603  -0.772  -9.148  0.00  0.00    +0.044 C 
ATOM     28  C   UNL     1       4.747  -1.098  -7.952  0.00  0.00    -0.049 A 
ATOM     29  C   UNL     1       5.143  -2.084  -7.066  0.00  0.00    +0.003 A 
ATOM     30  C   UNL     1       4.361  -2.386  -5.967  0.00  0.00    +0.002 A 
ATOM     31  C   UNL     1       3.180  -1.703  -5.750  0.00  0.00    +0.023 A 
ATOM     32  C   UNL     1       2.779  -0.712  -6.636  0.00  0.00    +0.033 A 
ATOM     33  C   UNL     1       3.565  -0.415  -7.743  0.00  0.00    +0.026 A 
ENDBRANCH  20  32
ENDBRANCH  19  24
ENDBRANCH  18  19
ENDBRANCH   1  18
TORSDOF 6
