REMARK  Name = ZINC14546615
REMARK  4 active torsions:
REMARK  status: ('A' for Active; 'I' for Inactive)
REMARK    1  A    between atoms: C_1  and  O_2
REMARK    2  A    between atoms: O_2  and  C_3
REMARK    3  A    between atoms: C_6  and  N_27
REMARK    4  A    between atoms: C_10  and  C_19
REMARK                            x       y       z     vdW  Elec       q    Type
REMARK                         _______ _______ _______ _____ _____    ______ ____
ROOT
ATOM      1  C   UNL     1       3.285   2.796   0.167  0.00  0.00    +0.141 A 
ATOM      2  C   UNL     1       3.877   3.939  -0.334  0.00  0.00    +0.050 A 
ATOM      3  C   UNL     1       3.095   4.971  -0.821  0.00  0.00    +0.037 A 
ATOM      4  C   UNL     1       1.718   4.856  -0.797  0.00  0.00    +0.132 A 
ATOM      5  C   UNL     1       1.117   3.721  -0.291  0.00  0.00    +0.014 A 
ATOM      6  C   UNL     1       1.891   2.665   0.192  0.00  0.00    +0.076 A 
ATOM      7  N   UNL     1       1.364   1.475   0.697  0.00  0.00    -0.334 N 
ATOM      8  C   UNL     1      -0.102   1.397   0.810  0.00  0.00    +0.108 C 
ATOM      9  C   UNL     1      -0.677   2.074  -0.417  0.00  0.00    +0.029 C 
ATOM     10  C   UNL     1      -0.355   3.588  -0.219  0.00  0.00    +0.051 C 
ATOM     11  C   UNL     1      -1.264   4.253  -1.185  0.00  0.00    -0.023 C 
ATOM     12  C   UNL     1      -2.338   3.487  -1.350  0.00  0.00    -0.030 C 
ATOM     13  C   UNL     1      -2.201   2.211  -0.516  0.00  0.00    +0.033 C 
ATOM     14  H   UNL     1       1.731   0.677   0.202  0.00  0.00    +0.147 HD
ENDROOT
BRANCH   8  15
ATOM     15  C   UNL     1      -0.561   2.110   2.055  0.00  0.00    +0.010 A 
ATOM     16  C   UNL     1       0.328   2.889   2.774  0.00  0.00    +0.047 A 
ATOM     17  C   UNL     1      -0.095   3.547   3.915  0.00  0.00    +0.020 A 
ATOM     18  C   UNL     1      -1.403   3.418   4.343  0.00  0.00    +0.003 A 
ATOM     19  C   UNL     1      -2.290   2.636   3.628  0.00  0.00    +0.020 A 
ATOM     20  C   UNL     1      -1.870   1.982   2.484  0.00  0.00    +0.047 A 
ATOM     21 CL   UNL     1      -2.985   0.999   1.587  0.00  0.00    -0.083 Cl
ATOM     22 CL   UNL     1       1.973   3.045   2.241  0.00  0.00    -0.083 Cl
ENDBRANCH   8  15
BRANCH   4  23
ATOM     23  N   UNL     1       0.881   5.959  -1.319  0.00  0.00    +0.057 N 
ATOM     24  O   UNL     1       1.095   6.413  -2.429  0.00  0.00    -0.126 OA
ATOM     25  O   UNL     1      -0.022   6.413  -0.639  0.00  0.00    -0.126 OA
ENDBRANCH   4  23
BRANCH   1  27
ATOM     26  C   UNL     1       5.479   1.982   0.589  0.00  0.00    +0.277 C 
ATOM     27  O   UNL     1       4.064   1.788   0.642  0.00  0.00    -0.493 OA
ENDBRANCH   1  27
TORSDOF 3
