REMARK  Name = ZINC30945770
REMARK  5 active torsions:
REMARK  status: ('A' for Active; 'I' for Inactive)
REMARK    1  A    between atoms: C_6  and  C_7
REMARK    2  A    between atoms: C_7  and  N_8
REMARK    3  A    between atoms: C_12  and  C_15
REMARK    4  A    between atoms: N_17  and  C_18
REMARK    5  A    between atoms: C_20  and  N_25
REMARK                            x       y       z     vdW  Elec       q    Type
REMARK                         _______ _______ _______ _____ _____    ______ ____
ROOT
ATOM      1  N   UNL     1       0.698  -0.493   1.198  0.00  0.00    +0.383 N 
ATOM      2  C   UNL     1       2.097  -0.045   1.194  0.00  0.00    -0.078 C 
ATOM      3  C   UNL     1       2.144   1.484   1.235  0.00  0.00    -0.018 C 
ATOM      4  C   UNL     1       1.405   2.046   0.017  0.00  0.00    +0.009 C 
ATOM      5  C   UNL     1      -0.035   1.525   0.019  0.00  0.00    +0.059 C 
ATOM      6  C   UNL     1      -0.019  -0.005   0.013  0.00  0.00    -0.066 C 
ATOM      7  H   UNL     1       0.211  -0.063   2.085  0.00  0.00    -0.081 HD
ENDROOT
BRANCH   5   8
ATOM      8  C   UNL     1      -0.752   2.026  -1.208  0.00  0.00    +0.219 C 
ATOM      9  O   UNL     1      -1.206   1.237  -2.009  0.00  0.00    -0.275 OA
ATOM     10  N   UNL     1      -0.889   3.351  -1.415  0.00  0.00    -0.284 N 
ATOM     11  H   UNL     1      -0.543   4.065  -0.654  0.00  0.00    +0.155 HD
BRANCH  10  12
ATOM     12  C   UNL     1      -1.471   3.818  -2.599  0.00  0.00    +0.054 A 
ATOM     13  C   UNL     1      -2.498   3.101  -3.199  0.00  0.00    +0.057 A 
ATOM     14  C   UNL     1      -3.071   3.565  -4.367  0.00  0.00    +0.128 A 
ATOM     15  C   UNL     1      -2.623   4.741  -4.941  0.00  0.00    +0.034 A 
ATOM     16  C   UNL     1      -1.601   5.457  -4.346  0.00  0.00    +0.024 A 
ATOM     17  C   UNL     1      -1.026   5.002  -3.174  0.00  0.00    +0.062 A 
ATOM     18 CL   UNL     1       0.253   5.905  -2.425  0.00  0.00    -0.082 Cl
BRANCH  14  19
ATOM     19  N   UNL     1      -4.166   2.801  -5.007  0.00  0.00    +0.056 N 
ATOM     20  O   UNL     1      -4.561   1.765  -4.503  0.00  0.00    -0.126 OA
ATOM     21  O   UNL     1      -4.672   3.209  -6.037  0.00  0.00    -0.126 OA
ENDBRANCH  14  19
ENDBRANCH  10  12
ENDBRANCH   5   8
BRANCH   1  22
ATOM     22  C   UNL     1       0.614  -1.956   1.298  0.00  0.00    -0.043 C 
BRANCH  22  28
ATOM     23  C   UNL     1       2.482  -2.702   2.788  0.00  0.00    +0.003 A 
ATOM     24  C   UNL     1       2.968  -3.103   4.018  0.00  0.00    +0.015 A 
ATOM     25  C   UNL     1       2.110  -3.211   5.098  0.00  0.00    +0.018 A 
ATOM     26  C   UNL     1       0.767  -2.913   4.947  0.00  0.00    +0.015 A 
ATOM     27  C   UNL     1       0.284  -2.507   3.717  0.00  0.00    +0.003 A 
ATOM     28  C   UNL     1       1.142  -2.399   2.639  0.00  0.00    -0.064 A 
ATOM     29 BR   UNL     1       2.772  -3.767   6.780  0.00  0.00    -0.050 Br
ENDBRANCH  22  28
ENDBRANCH   1  22
TORSDOF 5
