REMARK  Name = ZINC33489172
REMARK  8 active torsions:
REMARK  status: ('A' for Active; 'I' for Inactive)
REMARK    1  A    between atoms: C_1  and  C_2
REMARK    2  A    between atoms: C_9  and  N_24
REMARK    3  A    between atoms: C_10  and  C_13
REMARK    4  A    between atoms: N_17  and  C_21
REMARK    5  A    between atoms: C_21  and  C_22
REMARK    6  A    between atoms: C_21  and  C_23
REMARK    7  A    between atoms: N_24  and  C_25
REMARK    8  A    between atoms: C_28  and  C_31
REMARK                            x       y       z     vdW  Elec       q    Type
REMARK                         _______ _______ _______ _____ _____    ______ ____
ROOT
ATOM      1  C   UNL     1      -5.555  -3.284   3.192  0.00  0.00    +0.047 C 
ATOM      2  C   UNL     1      -5.405  -4.774   3.030  0.00  0.00    -0.007 A 
ATOM      3  C   UNL     1      -6.445  -5.605   3.328  0.00  0.00    +0.008 A 
ATOM      4  C   UNL     1      -6.290  -6.989   3.173  0.00  0.00    +0.019 A 
ATOM      5  C   UNL     1      -5.117  -7.495   2.730  0.00  0.00    +0.096 A 
ATOM      6  N   UNL     1      -4.072  -6.673   2.429  0.00  0.00    -0.267 N 
ATOM      7  C   UNL     1      -4.192  -5.319   2.571  0.00  0.00    +0.145 A 
ATOM      8  N   UNL     1      -3.180  -4.499   2.287  0.00  0.00    -0.214 NA
ATOM      9  C   UNL     1      -2.018  -4.956   1.845  0.00  0.00    +0.134 A 
ATOM     10  C   UNL     1      -1.834  -6.349   1.679  0.00  0.00    +0.081 A 
ATOM     11  C   UNL     1      -2.914  -7.211   1.989  0.00  0.00    +0.267 A 
ATOM     12  O   UNL     1      -2.800  -8.418   1.860  0.00  0.00    -0.267 OA
ENDROOT
BRANCH  10  13
ATOM     13  C   UNL     1      -0.603  -6.868   1.214  0.00  0.00    +0.037 C 
ATOM     14  C   UNL     1       0.165  -7.643   2.036  0.00  0.00    +0.077 C 
ATOM     15  C   UNL     1      -0.010  -7.949   3.415  0.00  0.00    +0.259 C 
ATOM     16  O   UNL     1      -0.954  -7.501   4.042  0.00  0.00    -0.269 OA
ATOM     17  N   UNL     1       0.879  -8.736   3.996  0.00  0.00    -0.253 N 
ATOM     18  C   UNL     1       1.930  -9.228   3.302  0.00  0.00    +0.121 C 
ATOM     19  S   UNL     1       3.193 -10.248   3.845  0.00  0.00    -0.027 S 
ATOM     20  S   UNL     1       1.667  -8.542   1.674  0.00  0.00    -0.061 S 
BRANCH  17  21
ATOM     21  C   UNL     1       0.727  -9.076   5.413  0.00  0.00    +0.077 C 
ATOM     22  C   UNL     1       0.600 -10.593   5.563  0.00  0.00    +0.028 C 
ATOM     23  C   UNL     1       1.952  -8.587   6.188  0.00  0.00    +0.028 C 
ENDBRANCH  17  21
ENDBRANCH  10  13
BRANCH   9  24
ATOM     24  N   UNL     1      -0.993  -4.082   1.555  0.00  0.00    -0.326 N 
ATOM     25  H   UNL     1      -0.028  -4.467   1.193  0.00  0.00    +0.148 HD
BRANCH  24  26
ATOM     26  C   UNL     1      -1.188  -2.641   1.729  0.00  0.00    +0.072 C 
ATOM     27  C   UNL     1       0.166  -1.966   1.957  0.00  0.00    +0.022 C 
ATOM     28  C   UNL     1      -0.038  -0.461   2.139  0.00  0.00    +0.005 C 
ATOM     29  C   UNL     1      -0.692   0.120   0.884  0.00  0.00    -0.014 C 
ATOM     30  C   UNL     1      -2.047  -0.554   0.656  0.00  0.00    +0.005 C 
ATOM     31  C   UNL     1      -1.843  -2.060   0.474  0.00  0.00    +0.022 C 
ATOM     32  C   UNL     1      -0.896   1.625   1.066  0.00  0.00    +0.007 C 
ENDBRANCH  24  26
ENDBRANCH   9  24
TORSDOF 4
