REMARK  Name = ZINC65260109
REMARK  5 active torsions:
REMARK  status: ('A' for Active; 'I' for Inactive)
REMARK    1  A    between atoms: C_1  and  C_2
REMARK    2  A    between atoms: C_2  and  C_3
REMARK    3  A    between atoms: C_2  and  C_4
REMARK    4  A    between atoms: C_2  and  N_5
REMARK    5  A    between atoms: C_21  and  C_23
REMARK                            x       y       z     vdW  Elec       q    Type
REMARK                         _______ _______ _______ _____ _____    ______ ____
ROOT
ATOM      1  N   UNL     1       0.975   0.471  -1.867  0.00  0.00    -0.370 N 
ATOM      2  C   UNL     1       2.251   0.584  -2.045  0.00  0.00    +0.098 C 
ATOM      3  N   UNL     1       3.049   1.292  -1.165  0.00  0.00    -0.301 N 
ATOM      4  C   UNL     1       4.102   2.050  -1.704  0.00  0.00    +0.053 A 
ATOM      5  C   UNL     1       4.768   2.971  -0.910  0.00  0.00    +0.025 A 
ATOM      6  C   UNL     1       5.809   3.712  -1.437  0.00  0.00    +0.002 A 
ATOM      7  C   UNL     1       6.189   3.537  -2.755  0.00  0.00    +0.002 A 
ATOM      8  C   UNL     1       5.527   2.624  -3.555  0.00  0.00    +0.025 A 
ATOM      9  C   UNL     1       4.479   1.881  -3.035  0.00  0.00    +0.049 A 
ATOM     10  N   UNL     1       3.795   0.971  -3.856  0.00  0.00    -0.329 N 
ATOM     11  C   UNL     1       2.950  -0.058  -3.226  0.00  0.00    +0.102 C 
ATOM     12  C   UNL     1       1.912  -0.562  -4.226  0.00  0.00    +0.036 C 
ATOM     13  C   UNL     1       2.621  -1.177  -5.435  0.00  0.00    +0.021 C 
ATOM     14  C   UNL     1       3.473  -2.363  -4.971  0.00  0.00    +0.108 C 
ATOM     15  N   UNL     1       4.383  -1.908  -3.910  0.00  0.00    -0.295 N 
ATOM     16  C   UNL     1       3.816  -1.220  -2.741  0.00  0.00    +0.141 C 
ATOM     17  C   UNL     1       5.711  -2.116  -4.008  0.00  0.00    +0.247 C 
ATOM     18  O   UNL     1       6.159  -2.754  -4.940  0.00  0.00    -0.270 OA
ATOM     19  H   UNL     1       0.427   0.042  -2.542  0.00  0.00    +0.161 HD
ATOM     20  H   UNL     1       3.879   1.018  -4.821  0.00  0.00    +0.147 HD
ATOM     21  H   UNL     1       2.888   1.265  -0.209  0.00  0.00    +0.153 HD
ENDROOT
BRANCH  17  22
ATOM     22  C   UNL     1       6.622  -1.569  -2.981  0.00  0.00    +0.037 A 
ATOM     23  C   UNL     1       6.325  -1.723  -1.625  0.00  0.00    +0.013 A 
ATOM     24  C   UNL     1       7.180  -1.210  -0.672  0.00  0.00    +0.001 A 
ATOM     25  C   UNL     1       8.329  -0.543  -1.056  0.00  0.00    +0.000 A 
ATOM     26  C   UNL     1       8.630  -0.386  -2.398  0.00  0.00    +0.001 A 
ATOM     27  C   UNL     1       7.786  -0.900  -3.361  0.00  0.00    +0.013 A 
ENDBRANCH  17  22
BRANCH   1  29
ATOM     28  C   UNL     1       0.718   2.471  -0.482  0.00  0.00    +0.033 C 
ATOM     29  C   UNL     1       0.357   0.993  -0.645  0.00  0.00    +0.031 C 
ATOM     30  C   UNL     1       0.872   0.206   0.562  0.00  0.00    +0.033 C 
ATOM     31  C   UNL     1      -1.163   0.846  -0.739  0.00  0.00    +0.033 C 
ENDBRANCH   1  29
TORSDOF 2
