REMARK  Name = ZINC67186473
REMARK  7 active torsions:
REMARK  status: ('A' for Active; 'I' for Inactive)
REMARK    1  A    between atoms: C_1  and  C_2
REMARK    2  A    between atoms: C_2  and  C_3
REMARK    3  A    between atoms: C_2  and  C_4
REMARK    4  A    between atoms: C_2  and  C_5
REMARK    5  A    between atoms: C_11  and  N_13
REMARK    6  A    between atoms: N_13  and  C_14
REMARK    7  A    between atoms: C_14  and  C_15
REMARK                            x       y       z     vdW  Elec       q    Type
REMARK                         _______ _______ _______ _____ _____    ______ ____
ROOT
ATOM      1  N   UNL     1       2.229   1.237  -1.374  0.00  0.00    +0.384 N 
ATOM      2  H   UNL     1       1.893   1.592  -2.257  0.00  0.00    -0.085 HD
ATOM      3  H   UNL     1       1.689   1.640  -0.623  0.00  0.00    -0.085 HD
ENDROOT
BRANCH   1   9
ATOM      4  C   UNL     1       0.618  -0.600  -1.541  0.00  0.00    -0.020 C 
ATOM      5  C   UNL     1       0.473  -2.123  -1.514  0.00  0.00    +0.002 C 
ATOM      6  C   UNL     1       1.307  -2.735  -2.641  0.00  0.00    +0.000 C 
ATOM      7  C   UNL     1       2.777  -2.360  -2.449  0.00  0.00    -0.002 C 
ATOM      8  C   UNL     1       2.923  -0.837  -2.476  0.00  0.00    -0.015 C 
ATOM      9  C   UNL     1       2.089  -0.225  -1.349  0.00  0.00    -0.068 C 
BRANCH   4  11
ATOM     10  C   UNL     1      -0.605   1.444  -0.787  0.00  0.00    +0.011 C 
ATOM     11  C   UNL     1      -0.216   0.012  -0.413  0.00  0.00    -0.036 C 
ATOM     12  C   UNL     1       0.605   0.027   0.878  0.00  0.00    +0.011 C 
ATOM     13  C   UNL     1      -1.481  -0.822  -0.204  0.00  0.00    +0.011 C 
ENDBRANCH   4  11
ENDBRANCH   1   9
BRANCH   1  14
ATOM     14  C   UNL     1       3.644   1.597  -1.208  0.00  0.00    -0.043 C 
BRANCH  14  15
ATOM     15  C   UNL     1       3.787   3.097  -1.235  0.00  0.00    -0.028 A 
ATOM     16  C   UNL     1       3.996   3.767  -2.430  0.00  0.00    +0.117 A 
ATOM     17  N   UNL     1       4.118   5.084  -2.418  0.00  0.00    -0.223 NA
ATOM     18  C   UNL     1       4.042   5.761  -1.282  0.00  0.00    +0.218 A 
ATOM     19  N   UNL     1       3.843   5.151  -0.123  0.00  0.00    -0.223 NA
ATOM     20  C   UNL     1       3.707   3.837  -0.066  0.00  0.00    +0.117 A 
ATOM     21  N   UNL     1       4.174   7.139  -1.307  0.00  0.00    -0.295 N 
ATOM     22  C   UNL     1       4.390   7.857  -2.573  0.00  0.00    +0.136 C 
ATOM     23  C   UNL     1       3.371   8.999  -2.661  0.00  0.00    +0.179 C 
ATOM     24  O   UNL     1       3.438   9.783  -1.467  0.00  0.00    -0.377 OA
ATOM     25  C   UNL     1       3.097   9.067  -0.278  0.00  0.00    +0.179 C 
ATOM     26  C   UNL     1       4.096   7.929  -0.068  0.00  0.00    +0.136 C 
ENDBRANCH  14  15
ENDBRANCH   1  14
TORSDOF 4
