REMARK  Name = ZINC16186429
REMARK  8 active torsions:
REMARK  status: ('A' for Active; 'I' for Inactive)
REMARK    1  A    between atoms: C_1  and  N_2
REMARK    2  A    between atoms: N_2  and  C_3
REMARK    3  A    between atoms: N_2  and  C_4
REMARK    4  A    between atoms: C_7  and  N_10
REMARK    5  A    between atoms: C_12  and  C_23
REMARK    6  A    between atoms: N_14  and  C_17
REMARK    7  A    between atoms: C_28  and  O_29
REMARK    8  A    between atoms: O_29  and  C_30
REMARK                            x       y       z     vdW  Elec       q    Type
REMARK                         _______ _______ _______ _____ _____    ______ ____
ROOT
ATOM      1  N   UNL     1      -2.549   5.797   0.059  0.00  0.00    -0.240 NA
ATOM      2  C   UNL     1      -1.290   6.181   0.036  0.00  0.00    +0.156 C 
ATOM      3  C   UNL     1      -0.085   5.324   0.019  0.00  0.00    +0.124 C 
ATOM      4  N   UNL     1       0.955   6.114   0.003  0.00  0.00    -0.170 NA
ATOM      5  N   UNL     1       0.577   7.456  -0.001  0.00  0.00    -0.155 N 
ATOM      6  C   UNL     1      -0.766   7.567   0.021  0.00  0.00    +0.291 C 
ATOM      7  O   UNL     1      -1.417   8.595   0.029  0.00  0.00    -0.266 OA
ENDROOT
BRANCH   1  11
ATOM      8  C   UNL     1      -5.552   8.604   0.100  0.00  0.00    +0.029 A 
ATOM      9  C   UNL     1      -5.643   7.501  -0.749  0.00  0.00    +0.025 A 
ATOM     10  C   UNL     1      -4.650   6.567  -0.767  0.00  0.00    +0.029 A 
ATOM     11  C   UNL     1      -3.532   6.717   0.073  0.00  0.00    +0.065 A 
ATOM     12  C   UNL     1      -3.449   7.827   0.931  0.00  0.00    +0.029 A 
ATOM     13  C   UNL     1      -4.446   8.758   0.936  0.00  0.00    +0.025 A 
BRANCH   8  15
ATOM     14  C   UNL     1      -7.666   9.460  -0.849  0.00  0.00    +0.129 C 
ATOM     15  N   UNL     1      -6.566   9.551   0.115  0.00  0.00    -0.336 N 
ATOM     16  C   UNL     1      -6.537  10.641   1.092  0.00  0.00    +0.129 C 
ENDBRANCH   8  15
ENDBRANCH   1  11
BRANCH   5  17
ATOM     17  C   UNL     1       1.467   8.537  -0.021  0.00  0.00    +0.060 A 
ATOM     18  C   UNL     1       0.982   9.838  -0.024  0.00  0.00    +0.025 A 
ATOM     19  C   UNL     1       1.863  10.902  -0.038  0.00  0.00    +0.002 A 
ATOM     20  C   UNL     1       3.226  10.672  -0.061  0.00  0.00    +0.000 A 
ATOM     21  C   UNL     1       3.712   9.377  -0.064  0.00  0.00    +0.002 A 
ATOM     22  C   UNL     1       2.837   8.309  -0.044  0.00  0.00    +0.025 A 
ENDBRANCH   5  17
BRANCH   3  23
ATOM     23  C   UNL     1      -0.061   3.844   0.024  0.00  0.00    +0.046 A 
ATOM     24  C   UNL     1      -1.255   3.124   0.048  0.00  0.00    +0.014 A 
ATOM     25  C   UNL     1      -1.227   1.744   0.049  0.00  0.00    +0.001 A 
ATOM     26  C   UNL     1      -0.018   1.071   0.036  0.00  0.00    +0.004 A 
ATOM     27  C   UNL     1       1.172   1.774   0.012  0.00  0.00    +0.046 A 
ATOM     28  C   UNL     1       1.159   3.160   0.006  0.00  0.00    +0.129 A 
BRANCH  28  29
ATOM     29  O   UNL     1       2.328   3.852  -0.018  0.00  0.00    -0.494 OA
ATOM     30  C   UNL     1       3.535   3.087  -0.036  0.00  0.00    +0.277 C 
ENDBRANCH  28  29
ENDBRANCH   3  23
TORSDOF 5
