REMARK  Name = ZINC48271254
REMARK  8 active torsions:
REMARK  status: ('A' for Active; 'I' for Inactive)
REMARK    1  A    between atoms: C_6  and  C_7
REMARK    2  A    between atoms: C_7  and  N_8
REMARK    3  A    between atoms: N_8  and  C_9
REMARK    4  A    between atoms: C_9  and  C_10
REMARK    5  A    between atoms: C_10  and  C_12
REMARK    6  A    between atoms: C_10  and  O_21
REMARK    7  A    between atoms: C_12  and  O_13
REMARK    8  A    between atoms: O_13  and  C_14
REMARK                            x       y       z     vdW  Elec       q    Type
REMARK                         _______ _______ _______ _____ _____    ______ ____
ROOT
ATOM      1  C   UNL     1      -2.989  -1.770  -1.364  0.00  0.00    -0.047 C 
ENDROOT
BRANCH   1   2
ATOM      2  N   UNL     1      -1.727  -1.018  -1.372  0.00  0.00    +0.383 N 
ATOM      3  H   UNL     1      -1.864  -0.136  -1.842  0.00  0.00    -0.085 HD
ATOM      4  H   UNL     1      -1.021  -1.551  -1.857  0.00  0.00    -0.085 HD
BRANCH   2   5
ATOM      5  C   UNL     1      -1.293  -0.775   0.010  0.00  0.00    -0.047 C 
BRANCH   5  11
ATOM      6  C   UNL     1      -0.017   1.378   0.010  0.00  0.00    +0.003 A 
ATOM      7  C   UNL     1       1.171   2.086   0.002  0.00  0.00    +0.015 A 
ATOM      8  C   UNL     1       2.378   1.411  -0.013  0.00  0.00    +0.018 A 
ATOM      9  C   UNL     1       2.396   0.027  -0.021  0.00  0.00    +0.015 A 
ATOM     10  C   UNL     1       1.208  -0.679  -0.013  0.00  0.00    +0.003 A 
ATOM     11  C   UNL     1       0.002  -0.004   0.002  0.00  0.00    -0.064 A 
ATOM     12 BR   UNL     1       4.003   2.378  -0.024  0.00  0.00    -0.050 Br
ENDBRANCH   5  11
ENDBRANCH   2   5
ENDBRANCH   1   2
BRANCH   1  13
ATOM     13  C   UNL     1      -3.441  -2.023  -2.804  0.00  0.00    +0.135 C 
BRANCH  13  14
ATOM     14  O   UNL     1      -3.635  -0.773  -3.469  0.00  0.00    -0.390 OA
ATOM     15  H   UNL     1      -4.301  -0.207  -3.056  0.00  0.00    +0.210 HD
ENDBRANCH  13  14
BRANCH  13  16
ATOM     16  C   UNL     1      -4.755  -2.805  -2.795  0.00  0.00    +0.258 C 
BRANCH  16  17
ATOM     17  O   UNL     1      -5.118  -3.143  -4.136  0.00  0.00    -0.489 OA
BRANCH  17  18
ATOM     18  C   UNL     1      -6.269  -3.845  -4.306  0.00  0.00    +0.121 A 
ATOM     19  C   UNL     1      -7.037  -4.196  -3.206  0.00  0.00    +0.047 A 
ATOM     20  C   UNL     1      -8.207  -4.909  -3.381  0.00  0.00    +0.023 A 
ATOM     21  C   UNL     1      -8.613  -5.274  -4.652  0.00  0.00    +0.041 A 
ATOM     22  C   UNL     1      -7.848  -4.924  -5.751  0.00  0.00    +0.023 A 
ATOM     23  C   UNL     1      -6.681  -4.205  -5.581  0.00  0.00    +0.047 A 
ATOM     24 CL   UNL     1     -10.083  -6.170  -4.870  0.00  0.00    -0.084 Cl
ENDBRANCH  17  18
ENDBRANCH  16  17
ENDBRANCH  13  16
ENDBRANCH   1  13
TORSDOF 8
