REMARK  Name = ZINC47999948
REMARK  9 active torsions:
REMARK  status: ('A' for Active; 'I' for Inactive)
REMARK    1  A    between atoms: C_1  and  C_2
REMARK    2  A    between atoms: C_2  and  N_3
REMARK    3  A    between atoms: N_6  and  C_9
REMARK    4  A    between atoms: C_9  and  C_10
REMARK    5  A    between atoms: C_10  and  C_11
REMARK    6  A    between atoms: C_11  and  C_12
REMARK    7  A    between atoms: C_12  and  N_13
REMARK    8  A    between atoms: C_14  and  C_16
REMARK    9  A    between atoms: C_16  and  N_18
REMARK                            x       y       z     vdW  Elec       q    Type
REMARK                         _______ _______ _______ _____ _____    ______ ____
ROOT
ATOM      1  N   UNL     1      -7.530  -6.785  -1.391  0.00  0.00    -0.308 N 
ATOM      2  C   UNL     1      -7.729  -8.115  -1.481  0.00  0.00    +0.301 C 
ATOM      3  O   UNL     1      -6.779  -8.869  -1.534  0.00  0.00    -0.265 OA
ATOM      4  H   UNL     1      -8.289  -6.183  -1.349  0.00  0.00    +0.149 HD
ENDROOT
BRANCH   2   5
ATOM      5  C   UNL     1      -9.117  -8.661  -1.517  0.00  0.00    +0.324 C 
ATOM      6  O   UNL     1     -10.070  -7.905  -1.464  0.00  0.00    -0.263 OA
BRANCH   5   7
ATOM      7  N   UNL     1      -9.314  -9.975  -1.606  0.00  0.00    -0.148 NA
ATOM      8  C   UNL     1     -10.553 -10.462  -1.638  0.00  0.00    +0.164 A 
ATOM      9  N   UNL     1     -10.934 -11.762  -1.721  0.00  0.00    -0.335 N 
ATOM     10  C   UNL     1     -12.276 -12.085  -1.742  0.00  0.00    +0.055 A 
ATOM     11  C   UNL     1     -12.883 -13.347  -1.823  0.00  0.00    +0.027 A 
ATOM     12  C   UNL     1     -14.252 -13.466  -1.832  0.00  0.00    +0.002 A 
ATOM     13  C   UNL     1     -15.070 -12.350  -1.762  0.00  0.00    +0.001 A 
ATOM     14  C   UNL     1     -14.497 -11.093  -1.681  0.00  0.00    +0.017 A 
ATOM     15  C   UNL     1     -13.127 -10.972  -1.671  0.00  0.00    +0.039 A 
ATOM     16  S   UNL     1     -11.998  -9.607  -1.577  0.00  0.00    -0.052 S 
ATOM     17  H   UNL     1     -10.264 -12.463  -1.765  0.00  0.00    +0.168 HD
ENDBRANCH   5   7
ENDBRANCH   2   5
BRANCH   1  18
ATOM     18  C   UNL     1      -6.167  -6.249  -1.356  0.00  0.00    +0.104 C 
BRANCH  18  19
ATOM     19  C   UNL     1      -6.222  -4.724  -1.252  0.00  0.00    +0.020 C 
BRANCH  19  20
ATOM     20  C   UNL     1      -4.798  -4.164  -1.215  0.00  0.00    +0.017 C 
BRANCH  20  21
ATOM     21  C   UNL     1      -4.853  -2.639  -1.111  0.00  0.00    +0.084 C 
BRANCH  21  25
ATOM     22  N   UNL     1      -1.376  -0.512   0.012  0.00  0.00    +0.381 N 
ATOM     23  C   UNL     1      -2.050  -0.124  -1.234  0.00  0.00    -0.063 C 
ATOM     24  C   UNL     1      -3.492  -0.638  -1.215  0.00  0.00    +0.066 C 
ATOM     25  N   UNL     1      -3.486  -2.101  -1.076  0.00  0.00    -0.306 NA
ATOM     26  C   UNL     1      -2.792  -2.506   0.155  0.00  0.00    +0.066 C 
ATOM     27  C   UNL     1      -1.357  -1.977   0.125  0.00  0.00    -0.063 C 
ATOM     28  H   UNL     1      -1.873  -0.121   0.799  0.00  0.00    -0.082 HD
BRANCH  22  30
ATOM     29  C   UNL     1      -0.019   1.526   0.010  0.00  0.00    -0.017 C 
ATOM     30  C   UNL     1       0.002  -0.004   0.002  0.00  0.00    -0.082 C 
ENDBRANCH  22  30
ENDBRANCH  21  25
ENDBRANCH  20  21
ENDBRANCH  19  20
ENDBRANCH  18  19
ENDBRANCH   1  18
TORSDOF 8
