REMARK  Name = ZINC40621789
REMARK  5 active torsions:
REMARK  status: ('A' for Active; 'I' for Inactive)
REMARK    1  A    between atoms: C_3  and  N_11
REMARK    2  A    between atoms: C_6  and  C_7
REMARK    3  A    between atoms: C_13  and  N_29
REMARK    4  A    between atoms: C_14  and  N_18
REMARK    5  A    between atoms: N_18  and  C_19
REMARK                            x       y       z     vdW  Elec       q    Type
REMARK                         _______ _______ _______ _____ _____    ______ ____
ROOT
ATOM      1  N   UNL     1       3.583   2.123  -0.021  0.00  0.00    -0.297 N 
ATOM      2  C   UNL     1       4.792   1.447   0.068  0.00  0.00    +0.159 A 
ATOM      3  C   UNL     1       5.988   2.151   0.172  0.00  0.00    +0.205 A 
ATOM      4  C   UNL     1       7.173   1.427   0.259  0.00  0.00    +0.155 A 
ATOM      5  N   UNL     1       7.120   0.096   0.241  0.00  0.00    -0.218 NA
ATOM      6  C   UNL     1       5.967  -0.533   0.143  0.00  0.00    +0.225 A 
ATOM      7  N   UNL     1       4.823   0.116   0.063  0.00  0.00    -0.218 NA
ATOM      8  H   UNL     1       3.559   3.088   0.072  0.00  0.00    +0.154 HD
ENDROOT
BRANCH   1  11
ATOM      9  C   UNL     1       0.049   1.123   0.124  0.00  0.00    +0.014 A 
ATOM     10  C   UNL     1       1.215   1.827   0.348  0.00  0.00    +0.024 A 
ATOM     11  C   UNL     1       2.400   1.412  -0.246  0.00  0.00    +0.032 A 
ATOM     12  C   UNL     1       2.407   0.290  -1.064  0.00  0.00    +0.024 A 
ATOM     13  C   UNL     1       1.237  -0.409  -1.285  0.00  0.00    +0.014 A 
ATOM     14  C   UNL     1       0.059   0.006  -0.692  0.00  0.00    +0.055 A 
BRANCH  14  15
ATOM     15  C   UNL     1      -1.216  -0.759  -0.935  0.00  0.00    +0.417 C 
ATOM     16  F   UNL     1      -1.869  -0.235  -2.056  0.00  0.00    -0.166 F 
ATOM     17  F   UNL     1      -0.915  -2.107  -1.158  0.00  0.00    -0.166 F 
ATOM     18  F   UNL     1      -2.048  -0.646   0.184  0.00  0.00    -0.166 F 
ENDBRANCH  14  15
ENDBRANCH   1  11
BRANCH   3  19
ATOM     19  N   UNL     1       5.999   3.631   0.187  0.00  0.00    +0.063 N 
ATOM     20  O   UNL     1       5.920   4.225   1.237  0.00  0.00    -0.126 OA
ATOM     21  O   UNL     1       6.088   4.246  -0.850  0.00  0.00    -0.126 OA
ENDBRANCH   3  19
BRANCH   4  22
ATOM     22  N   UNL     1       8.390   2.081   0.363  0.00  0.00    -0.322 N 
ATOM     23  H   UNL     1       8.421   3.051   0.375  0.00  0.00    +0.148 HD
BRANCH  22  24
ATOM     24  C   UNL     1       9.632   1.308   0.455  0.00  0.00    +0.034 C 
ATOM     25  C   UNL     1       9.785   0.439  -0.795  0.00  0.00    +0.029 C 
ATOM     26  C   UNL     1      11.081  -0.368  -0.699  0.00  0.00    -0.008 C 
ATOM     27  C   UNL     1      12.271   0.588  -0.594  0.00  0.00    +0.007 C 
ATOM     28  C   UNL     1      12.118   1.458   0.655  0.00  0.00    -0.008 C 
ATOM     29  C   UNL     1      10.821   2.265   0.559  0.00  0.00    +0.029 C 
ATOM     30  C   UNL     1      12.071   0.564   1.896  0.00  0.00    +0.007 C 
ATOM     31  C   UNL     1      10.882  -0.393   1.791  0.00  0.00    -0.008 C 
ATOM     32  C   UNL     1      11.035  -1.262   0.542  0.00  0.00    +0.007 C 
ATOM     33  C   UNL     1       9.585   0.415   1.696  0.00  0.00    +0.029 C 
ENDBRANCH  22  24
ENDBRANCH   4  22
TORSDOF 5
