REMARK  Name = ZINC64347789
REMARK  4 active torsions:
REMARK  status: ('A' for Active; 'I' for Inactive)
REMARK    1  A    between atoms: C_1  and  C_2
REMARK    2  A    between atoms: C_3  and  C_21
REMARK    3  A    between atoms: C_7  and  N_8
REMARK    4  A    between atoms: C_9  and  C_11
REMARK                            x       y       z     vdW  Elec       q    Type
REMARK                         _______ _______ _______ _____ _____    ______ ____
ROOT
ATOM      1  N   UNL     1       0.032  -0.396   2.428  0.00  0.00    -0.264 N 
ATOM      2  C   UNL     1       0.054  -1.309   3.419  0.00  0.00    +0.285 C 
ATOM      3  O   UNL     1       0.067  -2.496   3.153  0.00  0.00    -0.266 OA
ATOM      4  H   UNL     1       0.021   0.550   2.640  0.00  0.00    +0.157 HD
ENDROOT
BRANCH   2   5
ATOM      5  C   UNL     1       0.062  -0.871   4.822  0.00  0.00    +0.191 A 
ATOM      6  C   UNL     1       0.090  -1.697   5.899  0.00  0.00    +0.063 A 
ATOM      7  C   UNL     1       0.088  -0.829   7.076  0.00  0.00    +0.022 A 
ATOM      8  C   UNL     1       0.108  -1.058   8.454  0.00  0.00    +0.012 A 
ATOM      9  C   UNL     1       0.099   0.002   9.317  0.00  0.00    +0.002 A 
ATOM     10  C   UNL     1       0.070   1.303   8.833  0.00  0.00    +0.019 A 
ATOM     11  C   UNL     1       0.050   1.550   7.476  0.00  0.00    +0.061 A 
ATOM     12  C   UNL     1       0.059   0.487   6.579  0.00  0.00    +0.150 A 
ATOM     13  O   UNL     1       0.050   0.414   5.234  0.00  0.00    -0.449 OA
ATOM     14 BR   UNL     1       0.010   3.329   6.838  0.00  0.00    -0.046 Br
ENDBRANCH   2   5
BRANCH   1  21
ATOM     15  C   UNL     1      -0.018   1.503   0.010  0.00  0.00    +0.049 C 
ATOM     16  C   UNL     1       0.002  -0.004   0.002  0.00  0.00    +0.012 A 
ATOM     17  C   UNL     1       0.008  -0.821  -1.132  0.00  0.00    +0.071 A 
ATOM     18  N   UNL     1       0.027  -2.070  -0.743  0.00  0.00    -0.177 NA
ATOM     19  N   UNL     1       0.033  -2.096   0.658  0.00  0.00    -0.263 N 
ATOM     20  H   UNL     1       0.047  -2.891   1.214  0.00  0.00    +0.190 HD
ATOM     21  C   UNL     1       0.024  -0.812   1.098  0.00  0.00    +0.124 A 
BRANCH  17  22
ATOM     22  C   UNL     1      -0.005  -0.343  -2.561  0.00  0.00    +0.040 C 
ATOM     23  C   UNL     1      -0.199  -1.395  -3.655  0.00  0.00    +0.010 C 
ATOM     24  C   UNL     1       1.172  -0.747  -3.452  0.00  0.00    +0.010 C 
ENDBRANCH  17  22
ENDBRANCH   1  21
TORSDOF 3
