REMARK  Name = ZINC66128377
REMARK  5 active torsions:
REMARK  status: ('A' for Active; 'I' for Inactive)
REMARK    1  A    between atoms: C_1  and  C_2
REMARK    2  A    between atoms: C_2  and  C_3
REMARK    3  A    between atoms: C_2  and  O_4
REMARK    4  A    between atoms: O_4  and  C_5
REMARK    5  A    between atoms: C_14  and  C_15
REMARK                            x       y       z     vdW  Elec       q    Type
REMARK                         _______ _______ _______ _____ _____    ______ ____
ROOT
ATOM      1  C   UNL     1       2.107  -0.199  -1.238  0.00  0.00    +0.128 A 
ATOM      2  C   UNL     1       2.765   0.055  -0.030  0.00  0.00    +0.046 A 
ATOM      3  C   UNL     1       4.040  -0.372   0.175  0.00  0.00    +0.012 A 
ATOM      4  C   UNL     1       4.709  -1.081  -0.838  0.00  0.00    -0.017 A 
ATOM      5  C   UNL     1       6.026  -1.537  -0.659  0.00  0.00    +0.008 A 
ATOM      6  C   UNL     1       6.644  -2.220  -1.661  0.00  0.00    +0.001 A 
ATOM      7  C   UNL     1       5.990  -2.475  -2.866  0.00  0.00    +0.001 A 
ATOM      8  C   UNL     1       4.715  -2.048  -3.075  0.00  0.00    +0.009 A 
ATOM      9  C   UNL     1       4.044  -1.340  -2.063  0.00  0.00    -0.008 A 
ATOM     10  C   UNL     1       2.726  -0.888  -2.241  0.00  0.00    +0.040 A 
ENDROOT
BRANCH  10  11
ATOM     11  C   UNL     1       2.001  -1.159  -3.534  0.00  0.00    +0.194 C 
ATOM     12  N   UNL     1       2.200  -2.561  -3.919  0.00  0.00    -0.322 N 
ATOM     13  C   UNL     1       1.486  -3.543  -3.242  0.00  0.00    +0.041 A 
ATOM     14  C   UNL     1       1.983  -4.824  -3.070  0.00  0.00    +0.024 A 
ATOM     15  C   UNL     1       1.233  -5.762  -2.386  0.00  0.00    +0.002 A 
ATOM     16  C   UNL     1      -0.011  -5.431  -1.871  0.00  0.00    +0.001 A 
ATOM     17  C   UNL     1      -0.521  -4.159  -2.034  0.00  0.00    +0.015 A 
ATOM     18  C   UNL     1       0.224  -3.205  -2.723  0.00  0.00    +0.058 A 
ATOM     19  C   UNL     1      -0.277  -1.834  -2.934  0.00  0.00    +0.247 C 
ATOM     20  O   UNL     1      -1.445  -1.568  -2.728  0.00  0.00    -0.270 OA
ATOM     21  N   UNL     1       0.576  -0.882  -3.357  0.00  0.00    -0.289 N 
ATOM     22  H   UNL     1       2.816  -2.798  -4.630  0.00  0.00    +0.148 HD
ATOM     23  H   UNL     1       0.235   0.006  -3.546  0.00  0.00    +0.151 HD
ENDBRANCH  10  11
BRANCH   1  24
ATOM     24  O   UNL     1       0.834   0.241  -1.413  0.00  0.00    -0.489 OA
BRANCH  24  26
ATOM     25  C   UNL     1       0.578   2.328  -0.220  0.00  0.00    +0.051 C 
ATOM     26  C   UNL     1       0.196   0.848  -0.287  0.00  0.00    +0.167 C 
ATOM     27  C   UNL     1      -1.322   0.718  -0.430  0.00  0.00    +0.051 C 
ENDBRANCH  24  26
ENDBRANCH   1  24
TORSDOF 3
