REMARK  Name = ZINC49659657
REMARK  7 active torsions:
REMARK  status: ('A' for Active; 'I' for Inactive)
REMARK    1  A    between atoms: C_1  and  C_2
REMARK    2  A    between atoms: C_2  and  C_25
REMARK    3  A    between atoms: C_5  and  S_12
REMARK    4  A    between atoms: S_12  and  N_15
REMARK    5  A    between atoms: N_15  and  C_16
REMARK    6  A    between atoms: C_16  and  C_17
REMARK    7  A    between atoms: C_17  and  C_18
REMARK                            x       y       z     vdW  Elec       q    Type
REMARK                         _______ _______ _______ _____ _____    ______ ____
ROOT
ATOM      1  S   UNL     1       1.314  -0.818  -5.151  0.00  0.00    +0.058 S 
ATOM      2  O   UNL     1       1.981  -1.922  -5.746  0.00  0.00    -0.153 OA
ATOM      3  O   UNL     1      -0.065  -0.551  -5.372  0.00  0.00    -0.153 OA
ENDROOT
BRANCH   1   8
ATOM      4  C   UNL     1      -0.019   1.526   0.010  0.00  0.00    +0.025 C 
ATOM      5  C   UNL     1       0.002  -0.004   0.002  0.00  0.00    +0.068 C 
ATOM      6  C   UNL     1       0.787  -0.516  -1.183  0.00  0.00    -0.010 A 
ATOM      7  C   UNL     1       0.621  -0.386  -2.544  0.00  0.00    +0.035 A 
ATOM      8  C   UNL     1       1.522  -0.981  -3.409  0.00  0.00    +0.106 A 
ATOM      9  C   UNL     1       2.587  -1.704  -2.903  0.00  0.00    +0.030 A 
ATOM     10  C   UNL     1       2.756  -1.837  -1.541  0.00  0.00    +0.025 A 
ATOM     11  C   UNL     1       1.853  -1.240  -0.663  0.00  0.00    +0.038 A 
ATOM     12  N   UNL     1       1.808  -1.229   0.732  0.00  0.00    -0.285 N 
ATOM     13  C   UNL     1       0.761  -0.531   1.202  0.00  0.00    +0.227 C 
ATOM     14  O   UNL     1       0.477  -0.355   2.368  0.00  0.00    -0.275 OA
ATOM     15  C   UNL     1      -1.424  -0.558  -0.016  0.00  0.00    +0.025 C 
ATOM     16  H   UNL     1       2.458  -1.675   1.297  0.00  0.00    +0.155 HD
ENDBRANCH   1   8
BRANCH   1  17
ATOM     17  N   UNL     1       2.139   0.540  -5.618  0.00  0.00    -0.190 NA
ATOM     18  H   UNL     1       1.656   1.302  -5.977  0.00  0.00    +0.148 HD
BRANCH  17  19
ATOM     19  C   UNL     1       3.597   0.592  -5.489  0.00  0.00    +0.110 C 
BRANCH  19  20
ATOM     20  C   UNL     1       4.141   1.761  -6.312  0.00  0.00    +0.052 C 
BRANCH  20  21
ATOM     21  C   UNL     1       5.641   1.815  -6.180  0.00  0.00    -0.046 A 
ATOM     22  C   UNL     1       6.219   2.555  -5.165  0.00  0.00    +0.005 A 
ATOM     23  C   UNL     1       7.595   2.604  -5.043  0.00  0.00    +0.020 A 
ATOM     24  C   UNL     1       8.394   1.912  -5.936  0.00  0.00    +0.041 A 
ATOM     25  C   UNL     1       7.815   1.171  -6.951  0.00  0.00    +0.020 A 
ATOM     26  C   UNL     1       6.439   1.119  -7.069  0.00  0.00    +0.005 A 
ATOM     27 CL   UNL     1      10.122   1.974  -5.783  0.00  0.00    -0.084 Cl
ENDBRANCH  20  21
ENDBRANCH  19  20
ENDBRANCH  17  19
ENDBRANCH   1  17
TORSDOF 5
