REMARK  Name = ZINC63766127
REMARK  7 active torsions:
REMARK  status: ('A' for Active; 'I' for Inactive)
REMARK    1  A    between atoms: C_1  and  C_2
REMARK    2  A    between atoms: C_6  and  S_8
REMARK    3  A    between atoms: S_8  and  N_11
REMARK    4  A    between atoms: N_11  and  C_12
REMARK    5  A    between atoms: C_12  and  C_13
REMARK    6  A    between atoms: N_15  and  C_16
REMARK    7  A    between atoms: C_19  and  C_23
REMARK                            x       y       z     vdW  Elec       q    Type
REMARK                         _______ _______ _______ _____ _____    ______ ____
ROOT
ATOM      1  N   UNL     1      -1.354  -3.825   2.811  0.00  0.00    -0.181 NA
ATOM      2  H   UNL     1      -2.003  -3.608   3.498  0.00  0.00    +0.149 HD
ENDROOT
BRANCH   1   3
ATOM      3  S   UNL     1       0.073  -2.990   2.725  0.00  0.00    +0.062 S 
ATOM      4  O   UNL     1       1.106  -3.961   2.626  0.00  0.00    -0.153 OA
ATOM      5  O   UNL     1       0.038  -2.019   3.761  0.00  0.00    -0.153 OA
BRANCH   3  11
ATOM      6  C   UNL     1       0.041   1.482   0.021  0.00  0.00    +0.044 C 
ATOM      7  C   UNL     1       0.052  -0.025   0.014  0.00  0.00    -0.048 A 
ATOM      8  C   UNL     1       0.058  -0.710  -1.187  0.00  0.00    +0.006 A 
ATOM      9  C   UNL     1       0.069  -2.092  -1.195  0.00  0.00    +0.040 A 
ATOM     10  C   UNL     1       0.073  -2.791   0.001  0.00  0.00    +0.150 A 
ATOM     11  C   UNL     1       0.068  -2.103   1.203  0.00  0.00    +0.140 A 
ATOM     12  C   UNL     1       0.062  -0.721   1.208  0.00  0.00    +0.034 A 
ATOM     13  F   UNL     1       0.084  -4.141  -0.005  0.00  0.00    -0.203 F 
ENDBRANCH   3  11
ENDBRANCH   1   3
BRANCH   1  14
ATOM     14  C   UNL     1      -1.638  -4.893   1.848  0.00  0.00    +0.201 C 
BRANCH  14  15
ATOM     15  C   UNL     1      -2.791  -5.725   2.346  0.00  0.00    +0.233 C 
ATOM     16  O   UNL     1      -3.324  -5.454   3.401  0.00  0.00    -0.274 OA
ATOM     17  N   UNL     1      -3.231  -6.771   1.618  0.00  0.00    -0.283 N 
ATOM     18  H   UNL     1      -2.859  -6.940   0.738  0.00  0.00    +0.155 HD
BRANCH  17  19
ATOM     19  C   UNL     1      -4.223  -7.614   2.132  0.00  0.00    +0.052 A 
ATOM     20  C   UNL     1      -4.397  -7.726   3.505  0.00  0.00    +0.025 A 
ATOM     21  C   UNL     1      -5.378  -8.558   4.010  0.00  0.00    +0.005 A 
ATOM     22  C   UNL     1      -6.186  -9.279   3.149  0.00  0.00    -0.049 A 
ATOM     23  C   UNL     1      -6.016  -9.169   1.782  0.00  0.00    +0.025 A 
ATOM     24  C   UNL     1      -5.040  -8.334   1.270  0.00  0.00    +0.062 A 
ATOM     25 CL   UNL     1      -4.832  -8.191  -0.448  0.00  0.00    -0.082 Cl
ATOM     26  C   UNL     1      -7.254 -10.186   3.704  0.00  0.00    +0.044 C 
ENDBRANCH  17  19
ENDBRANCH  14  15
ENDBRANCH   1  14
TORSDOF 5
