REMARK  Name = ZINC58549624
REMARK  12 active torsions:
REMARK  status: ('A' for Active; 'I' for Inactive)
REMARK    1  A    between atoms: C_1  and  C_2
REMARK    2  A    between atoms: C_6  and  O_9
REMARK    3  A    between atoms: C_7  and  C_8
REMARK    4  A    between atoms: O_9  and  C_10
REMARK    5  A    between atoms: C_10  and  C_12
REMARK    6  A    between atoms: C_10  and  C_13
REMARK    7  A    between atoms: N_15  and  N_16
REMARK    8  A    between atoms: C_17  and  C_19
REMARK    9  A    between atoms: C_24  and  O_25
REMARK   10  A    between atoms: O_25  and  C_26
REMARK   11  A    between atoms: C_26  and  C_27
REMARK   12  A    between atoms: C_33  and  C_36
REMARK                            x       y       z     vdW  Elec       q    Type
REMARK                         _______ _______ _______ _____ _____    ______ ____
ROOT
ATOM      1  N   UNL     1       1.280  -6.725   4.739  0.00  0.00    -0.230 N 
ATOM      2  C   UNL     1       1.399  -8.064   4.835  0.00  0.00    +0.264 C 
ATOM      3  O   UNL     1       1.004  -8.776   3.932  0.00  0.00    -0.269 OA
ATOM      4  H   UNL     1       1.597  -6.157   5.459  0.00  0.00    +0.173 HD
ENDROOT
BRANCH   2   5
ATOM      5  C   UNL     1       2.010  -8.666   6.035  0.00  0.00    +0.080 A 
ATOM      6  C   UNL     1       2.462  -7.853   7.077  0.00  0.00    +0.017 A 
ATOM      7  C   UNL     1       3.031  -8.421   8.195  0.00  0.00    +0.001 A 
ATOM      8  C   UNL     1       3.159  -9.798   8.292  0.00  0.00    +0.004 A 
ATOM      9  C   UNL     1       2.718 -10.613   7.269  0.00  0.00    +0.046 A 
ATOM     10  C   UNL     1       2.136 -10.058   6.139  0.00  0.00    +0.133 A 
BRANCH  10  11
ATOM     11  O   UNL     1       1.696 -10.859   5.136  0.00  0.00    -0.485 OA
BRANCH  11  12
ATOM     12  C   UNL     1       1.858 -12.268   5.312  0.00  0.00    +0.286 C 
BRANCH  12  13
ATOM     13  C   UNL     1       1.315 -12.991   4.106  0.00  0.00    +0.097 A 
ATOM     14  C   UNL     1       0.766 -12.407   3.019  0.00  0.00    +0.119 A 
ATOM     15  N   UNL     1       0.405 -13.410   2.161  0.00  0.00    -0.306 N 
ATOM     16  C   UNL     1      -0.184 -13.404   0.930  0.00  0.00    +0.093 A 
ATOM     17  C   UNL     1      -0.436 -14.561   0.283  0.00  0.00    +0.018 A 
ATOM     18  C   UNL     1      -0.093 -15.790   0.870  0.00  0.00    +0.008 A 
ATOM     19  C   UNL     1       0.494 -15.810   2.097  0.00  0.00    -0.008 A 
ATOM     20  C   UNL     1       0.751 -14.593   2.759  0.00  0.00    +0.141 A 
ATOM     21  N   UNL     1       1.304 -14.314   3.931  0.00  0.00    -0.229 NA
ATOM     22  C   UNL     1       0.867 -17.121   2.741  0.00  0.00    +0.047 C 
ENDBRANCH  12  13
ENDBRANCH  11  12
ENDBRANCH  10  11
ENDBRANCH   2   5
BRANCH   1  25
ATOM     23  C   UNL     1       0.582  -4.814   3.503  0.00  0.00    +0.270 C 
ATOM     24  O   UNL     1       0.977  -4.104   4.403  0.00  0.00    -0.270 OA
ATOM     25  N   UNL     1       0.701  -6.153   3.599  0.00  0.00    -0.231 N 
ATOM     26  H   UNL     1       0.385  -6.721   2.879  0.00  0.00    +0.173 HD
BRANCH  23  27
ATOM     27  C   UNL     1      -0.043  -4.199   2.277  0.00  0.00    +0.257 C 
ATOM     28  C   UNL     1      -1.514  -4.611   2.192  0.00  0.00    +0.062 C 
BRANCH  27  29
ATOM     29  O   UNL     1       0.050  -2.776   2.358  0.00  0.00    -0.480 OA
BRANCH  29  35
ATOM     30  C   UNL     1       0.438   1.473  -0.013  0.00  0.00    +0.044 C 
ATOM     31  C   UNL     1       0.221  -0.018  -0.009  0.00  0.00    -0.044 A 
ATOM     32  C   UNL     1       0.006  -0.688  -1.200  0.00  0.00    +0.004 A 
ATOM     33  C   UNL     1      -0.194  -2.056  -1.200  0.00  0.00    +0.004 A 
ATOM     34  C   UNL     1      -0.179  -2.757  -0.009  0.00  0.00    +0.046 A 
ATOM     35  C   UNL     1       0.036  -2.088   1.186  0.00  0.00    +0.125 A 
ATOM     36  C   UNL     1       0.242  -0.716   1.183  0.00  0.00    -0.006 A 
ATOM     37  C   UNL     1       0.482   0.014   2.479  0.00  0.00    +0.048 C 
ENDBRANCH  29  35
ENDBRANCH  27  29
ENDBRANCH  23  27
ENDBRANCH   1  25
TORSDOF 8
