REMARK  Name = ZINC43743400
REMARK  11 active torsions:
REMARK  status: ('A' for Active; 'I' for Inactive)
REMARK    1  A    between atoms: C_1  and  C_2
REMARK    2  A    between atoms: C_13  and  O_15
REMARK    3  A    between atoms: N_21  and  O_22
REMARK    4  A    between atoms: O_22  and  C_23
REMARK    5  A    between atoms: C_23  and  C_24
REMARK    6  A    between atoms: N_26  and  C_27
REMARK    7  A    between atoms: C_27  and  C_28
REMARK    8  A    between atoms: C_28  and  C_29
REMARK    9  A    between atoms: C_29  and  C_30
REMARK   10  A    between atoms: C_30  and  C_31
REMARK   11  A    between atoms: C_36  and  C_37
REMARK                            x       y       z     vdW  Elec       q    Type
REMARK                         _______ _______ _______ _____ _____    ______ ____
ROOT
ATOM      1  C   UNL     1      -0.019   1.526   0.010  0.00  0.00    +0.014 C 
ATOM      2  C   UNL     1       0.002  -0.004   0.002  0.00  0.00    -0.003 C 
ATOM      3  C   UNL     1       0.763  -0.501  -1.212  0.00  0.00    +0.010 C 
ATOM      4  C   UNL     1       2.145   0.170  -1.186  0.00  0.00    +0.005 C 
ATOM      5  C   UNL     1       2.894  -0.129   0.109  0.00  0.00    +0.002 C 
ATOM      6  C   UNL     1       2.067   0.248   1.346  0.00  0.00    -0.003 C 
ATOM      7  C   UNL     1       0.751  -0.527   1.257  0.00  0.00    +0.001 C 
ATOM      8  C   UNL     1      -0.262  -0.234   2.369  0.00  0.00    +0.007 C 
ATOM      9  C   UNL     1      -1.615  -0.639   1.722  0.00  0.00    +0.032 C 
ATOM     10  C   UNL     1      -1.413  -0.541   0.189  0.00  0.00    +0.121 C 
ATOM     11  C   UNL     1       2.835  -0.167   2.605  0.00  0.00    +0.008 C 
ATOM     12  C   UNL     1       4.122   0.655   2.704  0.00  0.00    +0.031 C 
ATOM     13  C   UNL     1       4.912   0.482   1.419  0.00  0.00    -0.062 C 
ATOM     14  C   UNL     1       6.202   0.185   1.524  0.00  0.00    +0.026 C 
ATOM     15  C   UNL     1       7.021   0.023   0.310  0.00  0.00    +0.080 C 
ATOM     16  N   UNL     1       8.131  -0.646   0.319  0.00  0.00    -0.089 NA
ATOM     17  C   UNL     1       6.494   0.680  -0.951  0.00  0.00    +0.059 C 
ATOM     18  C   UNL     1       5.030   0.270  -1.101  0.00  0.00    +0.017 C 
ATOM     19  C   UNL     1       4.206   0.666   0.126  0.00  0.00    -0.007 C 
ATOM     20  C   UNL     1       3.859   2.151  -0.006  0.00  0.00    +0.016 C 
ENDROOT
BRANCH  10  21
ATOM     21  O   UNL     1      -2.364   0.361  -0.378  0.00  0.00    -0.391 OA
ATOM     22  H   UNL     1      -3.283   0.072  -0.289  0.00  0.00    +0.210 HD
ENDBRANCH  10  21
BRANCH  16  23
ATOM     23  O   UNL     1       8.888  -0.777  -0.871  0.00  0.00    -0.384 OA
BRANCH  23  24
ATOM     24  C   UNL     1      10.087  -1.539  -0.716  0.00  0.00    +0.358 C 
BRANCH  24  25
ATOM     25  C   UNL     1      10.809  -1.614  -2.036  0.00  0.00    +0.253 C 
ATOM     26  O   UNL     1      10.343  -1.069  -3.014  0.00  0.00    -0.272 OA
ATOM     27  N   UNL     1      11.973  -2.287  -2.131  0.00  0.00    -0.312 N 
ATOM     28  H   UNL     1      12.346  -2.723  -1.349  0.00  0.00    +0.149 HD
BRANCH  27  29
ATOM     29  C   UNL     1      12.675  -2.360  -3.414  0.00  0.00    +0.104 C 
BRANCH  29  30
ATOM     30  C   UNL     1      13.959  -3.175  -3.248  0.00  0.00    +0.019 C 
BRANCH  30  31
ATOM     31  C   UNL     1      14.692  -3.251  -4.589  0.00  0.00    +0.013 C 
BRANCH  31  32
ATOM     32  C   UNL     1      15.976  -4.067  -4.423  0.00  0.00    +0.125 C 
BRANCH  32  33
ATOM     33  C   UNL     1      16.698  -4.142  -5.743  0.00  0.00    +0.356 C 
ATOM     34  O   UNL     1      16.229  -3.594  -6.726  0.00  0.00    -0.246 OA
ATOM     35  O   UNL     1      17.751  -4.751  -5.829  0.00  0.00    -0.246 OA
ENDBRANCH  32  33
ENDBRANCH  31  32
ENDBRANCH  30  31
ENDBRANCH  29  30
ENDBRANCH  27  29
ENDBRANCH  24  25
ENDBRANCH  23  24
ENDBRANCH  16  23
TORSDOF 9
