REMARK  Name = ZINC58848588
REMARK  7 active torsions:
REMARK  status: ('A' for Active; 'I' for Inactive)
REMARK    1  A    between atoms: C_1  and  C_2
REMARK    2  A    between atoms: C_2  and  O_3
REMARK    3  A    between atoms: O_3  and  C_4
REMARK    4  A    between atoms: C_7  and  N_10
REMARK    5  A    between atoms: N_10  and  S_11
REMARK    6  A    between atoms: S_11  and  C_14
REMARK    7  A    between atoms: C_27  and  C_30
REMARK                            x       y       z     vdW  Elec       q    Type
REMARK                         _______ _______ _______ _____ _____    ______ ____
ROOT
ATOM      1  C   UNL     1      -4.714  -6.034   0.364  0.00  0.00    +0.109 A 
ATOM      2  C   UNL     1      -5.190  -4.788   0.733  0.00  0.00    +0.030 A 
ATOM      3  C   UNL     1      -6.407  -4.351   0.254  0.00  0.00    +0.025 A 
ATOM      4  C   UNL     1      -7.153  -5.157  -0.600  0.00  0.00    +0.031 A 
ATOM      5  C   UNL     1      -6.672  -6.400  -0.981  0.00  0.00    -0.018 A 
ATOM      6  C   UNL     1      -5.448  -6.832  -0.490  0.00  0.00    +0.034 A 
ATOM      7  C   UNL     1      -7.423  -7.277  -1.925  0.00  0.00    +0.049 C 
ATOM      8  C   UNL     1      -8.111  -8.416  -1.217  0.00  0.00    -0.023 C 
ATOM      9  C   UNL     1      -9.263  -8.673  -1.785  0.00  0.00    -0.030 C 
ATOM     10  C   UNL     1      -9.511  -7.739  -2.949  0.00  0.00    +0.033 C 
ATOM     11  C   UNL     1      -8.533  -6.568  -2.700  0.00  0.00    +0.029 C 
ATOM     12  C   UNL     1      -9.258  -5.509  -1.895  0.00  0.00    +0.105 C 
ATOM     13  N   UNL     1      -8.386  -4.711  -1.060  0.00  0.00    -0.336 N 
ATOM     14  H   UNL     1      -8.687  -3.829  -0.788  0.00  0.00    +0.147 HD
ENDROOT
BRANCH  12  15
ATOM     15  C   UNL     1     -10.299  -6.186  -1.041  0.00  0.00    -0.026 A 
ATOM     16  C   UNL     1      -9.930  -6.794   0.145  0.00  0.00    +0.007 A 
ATOM     17  C   UNL     1     -10.883  -7.416   0.929  0.00  0.00    +0.022 A 
ATOM     18  C   UNL     1     -12.207  -7.429   0.528  0.00  0.00    +0.059 A 
ATOM     19  C   UNL     1     -12.577  -6.820  -0.658  0.00  0.00    +0.060 A 
ATOM     20  C   UNL     1     -11.622  -6.194  -1.440  0.00  0.00    +0.027 A 
ATOM     21 CL   UNL     1     -14.238  -6.836  -1.163  0.00  0.00    -0.082 Cl
ATOM     22 CL   UNL     1     -13.405  -8.210   1.513  0.00  0.00    -0.082 Cl
ENDBRANCH  12  15
BRANCH   1  23
ATOM     23  S   UNL     1      -3.164  -6.600   0.982  0.00  0.00    +0.072 S 
ATOM     24  O   UNL     1      -3.147  -8.010   0.805  0.00  0.00    -0.150 OA
ATOM     25  O   UNL     1      -2.985  -5.990   2.252  0.00  0.00    -0.150 OA
BRANCH  23  26
ATOM     26  N   UNL     1      -1.988  -5.985  -0.009  0.00  0.00    -0.216 N 
ATOM     27  H   UNL     1      -1.316  -5.385   0.350  0.00  0.00    +0.174 HD
BRANCH  26  31
ATOM     28  C   UNL     1      -1.915  -7.017  -4.047  0.00  0.00    +0.121 A 
ATOM     29  C   UNL     1      -1.762  -5.691  -3.667  0.00  0.00    +0.047 A 
ATOM     30  C   UNL     1      -1.787  -5.349  -2.330  0.00  0.00    +0.028 A 
ATOM     31  C   UNL     1      -1.964  -6.332  -1.365  0.00  0.00    +0.048 A 
ATOM     32  C   UNL     1      -2.116  -7.658  -1.746  0.00  0.00    +0.028 A 
ATOM     33  C   UNL     1      -2.098  -7.998  -3.084  0.00  0.00    +0.047 A 
BRANCH  28  34
ATOM     34  O   UNL     1      -1.891  -7.353  -5.365  0.00  0.00    -0.492 OA
BRANCH  34  36
ATOM     35  C   UNL     1      -1.700  -6.860  -7.723  0.00  0.00    +0.048 C 
ATOM     36  C   UNL     1      -1.698  -6.292  -6.302  0.00  0.00    +0.225 C 
ENDBRANCH  34  36
ENDBRANCH  28  34
ENDBRANCH  26  31
ENDBRANCH  23  26
ENDBRANCH   1  23
TORSDOF 6
