REMARK  Name = ZINC35541881
REMARK  5 active torsions:
REMARK  status: ('A' for Active; 'I' for Inactive)
REMARK    1  A    between atoms: C_1  and  C_2
REMARK    2  A    between atoms: C_2  and  N_3
REMARK    3  A    between atoms: N_3  and  C_4
REMARK    4  A    between atoms: C_4  and  C_6
REMARK    5  A    between atoms: C_4  and  C_14
REMARK                            x       y       z     vdW  Elec       q    Type
REMARK                         _______ _______ _______ _____ _____    ______ ____
ROOT
ATOM      1  C   UNL     1      -1.356  -1.981   0.004  0.00  0.00    -0.009 C 
ENDROOT
BRANCH   1   2
ATOM      2  C   UNL     1      -0.737  -2.482   1.284  0.00  0.00    -0.054 A 
ATOM      3  C   UNL     1      -1.031  -1.862   2.483  0.00  0.00    +0.022 A 
ATOM      4  C   UNL     1      -0.463  -2.321   3.658  0.00  0.00    +0.043 A 
ATOM      5  C   UNL     1       0.401  -3.402   3.632  0.00  0.00    +0.040 A 
ATOM      6  C   UNL     1       0.695  -4.023   2.431  0.00  0.00    +0.043 A 
ATOM      7  C   UNL     1       0.121  -3.566   1.258  0.00  0.00    +0.022 A 
ATOM      8 CL   UNL     1       1.779  -5.378   2.397  0.00  0.00    -0.083 Cl
ATOM      9 CL   UNL     1      -0.832  -1.541   5.164  0.00  0.00    -0.083 Cl
ENDBRANCH   1   2
BRANCH   1  10
ATOM     10  C   UNL     1      -2.766  -2.502  -0.109  0.00  0.00    -0.042 A 
ATOM     11  C   UNL     1      -3.832  -1.686   0.219  0.00  0.00    +0.018 A 
ATOM     12  C   UNL     1      -5.126  -2.164   0.115  0.00  0.00    +0.018 A 
ATOM     13  C   UNL     1      -5.353  -3.459  -0.317  0.00  0.00    +0.016 A 
ATOM     14  C   UNL     1      -4.286  -4.275  -0.645  0.00  0.00    +0.016 A 
ATOM     15  C   UNL     1      -2.992  -3.795  -0.546  0.00  0.00    +0.020 A 
ATOM     16 BR   UNL     1      -1.534  -4.908  -1.002  0.00  0.00    -0.050 Br
ATOM     17 BR   UNL     1      -6.585  -1.049   0.564  0.00  0.00    -0.050 Br
ENDBRANCH   1  10
BRANCH   1  18
ATOM     18  N   UNL     1      -1.376  -0.512   0.012  0.00  0.00    +0.386 N 
ATOM     19  H   UNL     1      -1.848  -0.187   0.843  0.00  0.00    -0.085 HD
ATOM     20  H   UNL     1      -1.864  -0.178  -0.805  0.00  0.00    -0.085 HD
BRANCH  18  22
ATOM     21  C   UNL     1      -0.019   1.526   0.010  0.00  0.00    -0.017 C 
ATOM     22  C   UNL     1       0.002  -0.004   0.002  0.00  0.00    -0.085 C 
ENDBRANCH  18  22
ENDBRANCH   1  18
TORSDOF 4
