REMARK  Name = ZINC14994602
REMARK  4 active torsions:
REMARK  status: ('A' for Active; 'I' for Inactive)
REMARK    1  A    between atoms: N_8  and  C_20
REMARK    2  A    between atoms: C_10  and  C_13
REMARK    3  A    between atoms: C_20  and  C_21
REMARK    4  A    between atoms: C_26  and  N_29
REMARK                            x       y       z     vdW  Elec       q    Type
REMARK                         _______ _______ _______ _____ _____    ______ ____
ROOT
ATOM      1  C   UNL     1       1.020  -3.797   1.419  0.00  0.00    +0.181 C 
ENDROOT
BRANCH   1   9
ATOM      2  C   UNL     1      -0.638   1.586   0.302  0.00  0.00    +0.001 A 
ATOM      3  C   UNL     1       0.502   2.367   0.254  0.00  0.00    +0.004 A 
ATOM      4  C   UNL     1       1.745   1.775   0.133  0.00  0.00    +0.046 A 
ATOM      5  C   UNL     1       1.843   0.393   0.056  0.00  0.00    +0.126 A 
ATOM      6  C   UNL     1       0.700  -0.382   0.088  0.00  0.00    +0.008 A 
ATOM      7  C   UNL     1      -0.540   0.208   0.221  0.00  0.00    +0.008 A 
ATOM      8  C   UNL     1       0.816  -1.887  -0.053  0.00  0.00    +0.124 C 
ATOM      9  N   UNL     1       1.470  -2.425   1.145  0.00  0.00    -0.286 NA
ATOM     10  C   UNL     1       2.926  -2.357   1.067  0.00  0.00    +0.134 C 
ATOM     11  C   UNL     1       3.472  -0.947   1.119  0.00  0.00    +0.220 C 
ATOM     12  O   UNL     1       3.064  -0.202  -0.036  0.00  0.00    -0.483 OA
BRANCH  11  13
ATOM     13  C   UNL     1       4.977  -0.998   1.169  0.00  0.00    +0.029 A 
ATOM     14  C   UNL     1       5.712  -0.884   0.004  0.00  0.00    +0.010 A 
ATOM     15  C   UNL     1       7.092  -0.931   0.049  0.00  0.00    +0.001 A 
ATOM     16  C   UNL     1       7.740  -1.092   1.260  0.00  0.00    +0.003 A 
ATOM     17  C   UNL     1       7.008  -1.206   2.426  0.00  0.00    +0.039 A 
ATOM     18  C   UNL     1       5.624  -1.153   2.382  0.00  0.00    +0.130 A 
ATOM     19  F   UNL     1       4.907  -1.260   3.522  0.00  0.00    -0.205 F 
ENDBRANCH  11  13
ENDBRANCH   1   9
BRANCH   1  20
ATOM     20  C   UNL     1      -0.442  -3.783   1.783  0.00  0.00    +0.230 C 
ATOM     21  O   UNL     1      -1.050  -2.734   1.812  0.00  0.00    -0.274 OA
ATOM     22  N   UNL     1      -1.074  -4.936   2.077  0.00  0.00    -0.301 N 
ATOM     23  C   UNL     1      -0.350  -6.214   2.052  0.00  0.00    +0.106 C 
ATOM     24  C   UNL     1      -1.104  -7.191   1.145  0.00  0.00    +0.004 C 
ATOM     25  C   UNL     1      -2.557  -7.301   1.615  0.00  0.00    -0.066 C 
ATOM     26  C   UNL     1      -3.231  -5.930   1.517  0.00  0.00    +0.004 C 
ATOM     27  C   UNL     1      -2.499  -4.939   2.434  0.00  0.00    +0.106 C 
BRANCH  25  28
ATOM     28  N   UNL     1      -3.275  -8.262   0.767  0.00  0.00    +0.383 N 
ATOM     29  C   UNL     1      -2.793  -9.598   1.079  0.00  0.00    -0.069 C 
ATOM     30  C   UNL     1      -3.675 -10.663   0.422  0.00  0.00    +0.077 C 
ATOM     31  C   UNL     1      -3.189 -10.872  -0.999  0.00  0.00    +0.211 C 
ATOM     32  O   UNL     1      -2.638 -11.908  -1.306  0.00  0.00    -0.276 OA
ATOM     33  N   UNL     1      -3.369  -9.913  -1.910  0.00  0.00    -0.317 N 
ATOM     34  C   UNL     1      -4.043  -8.657  -1.536  0.00  0.00    +0.085 C 
ATOM     35  C   UNL     1      -3.112  -7.860  -0.620  0.00  0.00    -0.059 C 
ATOM     36  H   UNL     1      -3.056 -10.042  -2.819  0.00  0.00    +0.149 HD
ATOM     37  H   UNL     1      -4.256  -8.217   0.999  0.00  0.00    -0.081 HD
ENDBRANCH  25  28
ENDBRANCH   1  20
TORSDOF 4
