REMARK  Name = ZINC55803511
REMARK  6 active torsions:
REMARK  status: ('A' for Active; 'I' for Inactive)
REMARK    1  A    between atoms: C_1  and  C_2
REMARK    2  A    between atoms: C_2  and  C_4
REMARK    3  A    between atoms: C_2  and  N_10
REMARK    4  A    between atoms: C_14  and  C_15
REMARK    5  A    between atoms: C_24  and  C_25
REMARK    6  A    between atoms: C_24  and  C_27
REMARK                            x       y       z     vdW  Elec       q    Type
REMARK                         _______ _______ _______ _____ _____    ______ ____
ROOT
ATOM      1  N   UNL     1      -1.623  -0.119   0.226  0.00  0.00    -0.293 N 
ATOM      2  C   UNL     1      -2.113   0.350  -0.909  0.00  0.00    +0.267 A 
ATOM      3  O   UNL     1      -1.680   1.367  -1.418  0.00  0.00    -0.266 OA
ATOM      4  C   UNL     1      -3.210  -0.418  -1.530  0.00  0.00    +0.079 A 
ATOM      5  C   UNL     1      -3.891  -0.173  -2.679  0.00  0.00    +0.028 C 
ATOM      6  S   UNL     1      -3.399  -1.757  -0.362  0.00  0.00    -0.064 S 
ATOM      7  C   UNL     1      -2.119  -1.270   0.783  0.00  0.00    +0.112 A 
ATOM      8  C   UNL     1      -1.721  -1.906   1.961  0.00  0.00    +0.158 C 
ENDROOT
BRANCH   5   9
ATOM      9  C   UNL     1      -3.448   0.898  -3.581  0.00  0.00    -0.024 A 
ATOM     10  C   UNL     1      -2.083   1.153  -3.754  0.00  0.00    +0.009 A 
ATOM     11  C   UNL     1      -1.675   2.159  -4.603  0.00  0.00    +0.020 A 
ATOM     12  C   UNL     1      -2.612   2.918  -5.284  0.00  0.00    +0.041 A 
ATOM     13  C   UNL     1      -3.966   2.672  -5.119  0.00  0.00    +0.020 A 
ATOM     14  C   UNL     1      -4.389   1.666  -4.278  0.00  0.00    +0.009 A 
ATOM     15 CL   UNL     1      -2.089   4.184  -6.351  0.00  0.00    -0.084 Cl
ENDBRANCH   5   9
BRANCH   1  17
ATOM     16  C   UNL     1      -0.808   2.101   0.851  0.00  0.00    +0.036 C 
ATOM     17  C   UNL     1      -0.533   0.596   0.894  0.00  0.00    +0.118 C 
BRANCH  17  18
ATOM     18  C   UNL     1       0.767   0.304   0.188  0.00  0.00    -0.025 A 
ATOM     19  C   UNL     1       0.771   0.031  -1.167  0.00  0.00    +0.005 A 
ATOM     20  C   UNL     1       1.963  -0.238  -1.814  0.00  0.00    +0.000 A 
ATOM     21  C   UNL     1       3.150  -0.233  -1.106  0.00  0.00    +0.000 A 
ATOM     22  C   UNL     1       3.146   0.041   0.249  0.00  0.00    +0.000 A 
ATOM     23  C   UNL     1       1.954   0.314   0.895  0.00  0.00    +0.005 A 
ENDBRANCH  17  18
ENDBRANCH   1  17
BRANCH   8  24
ATOM     24  C   UNL     1      -2.477  -3.011   2.469  0.00  0.00    +0.113 C 
ATOM     25  N   UNL     1      -3.076  -3.888   2.873  0.00  0.00    -0.190 NA
ENDBRANCH   8  24
BRANCH   8  26
ATOM     26  C   UNL     1      -0.556  -1.453   2.661  0.00  0.00    +0.113 C 
ATOM     27  N   UNL     1       0.367  -1.094   3.216  0.00  0.00    -0.190 NA
ENDBRANCH   8  26
TORSDOF 5
