REMARK  Name = ZINC47536151
REMARK  7 active torsions:
REMARK  status: ('A' for Active; 'I' for Inactive)
REMARK    1  A    between atoms: C_1  and  C_2
REMARK    2  A    between atoms: C_2  and  C_4
REMARK    3  A    between atoms: C_2  and  N_16
REMARK    4  A    between atoms: C_17  and  C_19
REMARK    5  A    between atoms: C_22  and  S_25
REMARK    6  A    between atoms: S_25  and  N_28
REMARK    7  A    between atoms: N_28  and  C_29
REMARK                            x       y       z     vdW  Elec       q    Type
REMARK                         _______ _______ _______ _____ _____    ______ ____
ROOT
ATOM      1  N   UNL     1      -1.372  -0.511   0.012  0.00  0.00    -0.305 N 
ATOM      2  C   UNL     1      -2.051  -0.643  -1.145  0.00  0.00    +0.245 C 
ATOM      3  O   UNL     1      -1.522  -0.341  -2.197  0.00  0.00    -0.270 OA
ATOM      4  H   UNL     1      -1.794  -0.752   0.852  0.00  0.00    +0.150 HD
ENDROOT
BRANCH   2   5
ATOM      5  C   UNL     1      -3.438  -1.155  -1.134  0.00  0.00    +0.037 A 
ATOM      6  C   UNL     1      -4.050  -1.497   0.073  0.00  0.00    +0.015 A 
ATOM      7  C   UNL     1      -5.344  -1.973   0.076  0.00  0.00    +0.029 A 
ATOM      8  C   UNL     1      -6.036  -2.112  -1.114  0.00  0.00    +0.105 A 
ATOM      9  C   UNL     1      -5.435  -1.775  -2.314  0.00  0.00    +0.029 A 
ATOM     10  C   UNL     1      -4.143  -1.292  -2.331  0.00  0.00    +0.015 A 
BRANCH   8  11
ATOM     11  S   UNL     1      -7.689  -2.722  -1.102  0.00  0.00    +0.058 S 
ATOM     12  O   UNL     1      -7.928  -3.275  -2.389  0.00  0.00    -0.153 OA
ATOM     13  O   UNL     1      -7.833  -3.481   0.091  0.00  0.00    -0.153 OA
BRANCH  11  14
ATOM     14  N   UNL     1      -8.693  -1.413  -0.955  0.00  0.00    -0.193 NA
ATOM     15  C   UNL     1      -8.754  -0.414  -2.024  0.00  0.00    +0.127 C 
ATOM     16  H   UNL     1      -9.240  -1.308  -0.161  0.00  0.00    +0.148 HD
ENDBRANCH  11  14
ENDBRANCH   8  11
ENDBRANCH   2   5
BRANCH   1  18
ATOM     17  C   UNL     1      -0.019   1.526   0.010  0.00  0.00    +0.033 C 
ATOM     18  C   UNL     1       0.002  -0.004   0.002  0.00  0.00    +0.100 C 
BRANCH  18  19
ATOM     19  C   UNL     1       0.731  -0.503   1.223  0.00  0.00    -0.025 A 
ATOM     20  C   UNL     1       0.077  -0.557   2.442  0.00  0.00    +0.007 A 
ATOM     21  C   UNL     1       0.737  -1.013   3.566  0.00  0.00    +0.028 A 
ATOM     22  C   UNL     1       2.059  -1.419   3.474  0.00  0.00    +0.067 A 
ATOM     23  C   UNL     1       2.719  -1.364   2.244  0.00  0.00    +0.067 A 
ATOM     24  C   UNL     1       2.047  -0.910   1.120  0.00  0.00    +0.033 A 
ATOM     25  N   UNL     1       4.014  -1.829   2.461  0.00  0.00    -0.306 N 
ATOM     26  H   UNL     1       4.709  -1.906   1.789  0.00  0.00    +0.170 HD
ATOM     27  C   UNL     1       4.137  -2.151   3.763  0.00  0.00    +0.325 A 
ATOM     28  O   UNL     1       5.145  -2.589   4.284  0.00  0.00    -0.247 OA
ATOM     29  N   UNL     1       2.974  -1.915   4.400  0.00  0.00    -0.306 N 
ATOM     30  H   UNL     1       2.803  -2.064   5.343  0.00  0.00    +0.170 HD
ENDBRANCH  18  19
ENDBRANCH   1  18
TORSDOF 5
