REMARK  Name = ZINC17086038
REMARK  10 active torsions:
REMARK  status: ('A' for Active; 'I' for Inactive)
REMARK    1  A    between atoms: C_1  and  C_2
REMARK    2  A    between atoms: C_2  and  C_3
REMARK    3  A    between atoms: C_2  and  C_4
REMARK    4  A    between atoms: C_2  and  C_5
REMARK    5  A    between atoms: C_17  and  C_20
REMARK    6  A    between atoms: C_23  and  O_26
REMARK    7  A    between atoms: O_26  and  C_27
REMARK    8  A    between atoms: C_27  and  C_29
REMARK    9  A    between atoms: C_32  and  O_35
REMARK   10  A    between atoms: O_35  and  C_36
REMARK                            x       y       z     vdW  Elec       q    Type
REMARK                         _______ _______ _______ _____ _____    ______ ____
ROOT
ATOM      1  C   UNL     1      -4.099   1.301   6.914  0.00  0.00    -0.000 C 
ATOM      2  C   UNL     1      -2.782   0.591   6.585  0.00  0.00    +0.009 C 
ATOM      3  C   UNL     1      -2.879  -0.073   5.211  0.00  0.00    +0.037 C 
ATOM      4  C   UNL     1      -3.342   0.964   4.194  0.00  0.00    -0.023 A 
ATOM      5  C   UNL     1      -3.943   2.106   4.595  0.00  0.00    -0.004 A 
ATOM      6  S   UNL     1      -4.299   2.986   3.096  0.00  0.00    -0.078 S 
ATOM      7  C   UNL     1      -3.667   1.863   1.970  0.00  0.00    +0.080 A 
ATOM      8  C   UNL     1      -3.177   0.811   2.757  0.00  0.00    +0.068 A 
ATOM      9  C   UNL     1      -2.544  -0.332   2.059  0.00  0.00    +0.248 C 
ATOM     10  O   UNL     1      -2.196  -1.330   2.662  0.00  0.00    -0.270 OA
ATOM     11  N   UNL     1      -2.371  -0.221   0.725  0.00  0.00    -0.289 N 
ATOM     12  C   UNL     1      -2.544   1.029  -0.008  0.00  0.00    +0.190 C 
ATOM     13  N   UNL     1      -3.594   1.866   0.601  0.00  0.00    -0.316 N 
ATOM     14  C   UNL     1      -4.241   2.527   6.000  0.00  0.00    +0.046 C 
ATOM     15  H   UNL     1      -2.084  -1.138   0.189  0.00  0.00    +0.151 HD
ATOM     16  H   UNL     1      -4.269   2.453  -0.039  0.00  0.00    +0.149 HD
ENDROOT
BRANCH  12  17
ATOM     17  C   UNL     1      -1.242   1.788  -0.003  0.00  0.00    -0.009 A 
ATOM     18  C   UNL     1      -0.044   1.104   0.083  0.00  0.00    +0.010 A 
ATOM     19  C   UNL     1       1.151   1.797   0.082  0.00  0.00    +0.047 A 
ATOM     20  C   UNL     1       1.147   3.182   0.001  0.00  0.00    +0.132 A 
ATOM     21  C   UNL     1      -0.056   3.867  -0.080  0.00  0.00    +0.047 A 
ATOM     22  C   UNL     1      -1.248   3.169  -0.079  0.00  0.00    +0.010 A 
BRANCH  20  23
ATOM     23  O   UNL     1       2.322   3.867  -0.000  0.00  0.00    -0.422 OA
BRANCH  23  24
ATOM     24  C   UNL     1       2.597   4.611   1.089  0.00  0.00    +0.344 C 
ATOM     25  O   UNL     1       1.864   4.566   2.057  0.00  0.00    -0.245 OA
BRANCH  24  26
ATOM     26  C   UNL     1       3.789   5.479   1.107  0.00  0.00    +0.060 A 
ATOM     27  C   UNL     1       4.637   5.528  -0.003  0.00  0.00    +0.018 A 
ATOM     28  C   UNL     1       5.746   6.344   0.016  0.00  0.00    +0.046 A 
ATOM     29  C   UNL     1       6.028   7.111   1.140  0.00  0.00    +0.120 A 
ATOM     30  C   UNL     1       5.190   7.061   2.248  0.00  0.00    +0.046 A 
ATOM     31  C   UNL     1       4.076   6.252   2.236  0.00  0.00    +0.018 A 
BRANCH  29  32
ATOM     32  O   UNL     1       7.125   7.910   1.157  0.00  0.00    -0.495 OA
ATOM     33  C   UNL     1       7.942   7.913  -0.015  0.00  0.00    +0.277 C 
ENDBRANCH  29  32
ENDBRANCH  24  26
ENDBRANCH  23  24
ENDBRANCH  20  23
ENDBRANCH  12  17
BRANCH   1  35
ATOM     34  C   UNL     1      -5.397   2.473   8.697  0.00  0.00    +0.011 C 
ATOM     35  C   UNL     1      -4.088   1.749   8.377  0.00  0.00    -0.035 C 
ATOM     36  C   UNL     1      -3.947   0.525   9.284  0.00  0.00    +0.011 C 
ATOM     37  C   UNL     1      -2.910   2.697   8.611  0.00  0.00    +0.011 C 
ENDBRANCH   1  35
TORSDOF 6
