REMARK  Name = ZINC39227178
REMARK  7 active torsions:
REMARK  status: ('A' for Active; 'I' for Inactive)
REMARK    1  A    between atoms: C_1  and  O_2
REMARK    2  A    between atoms: O_2  and  C_3
REMARK    3  A    between atoms: C_9  and  O_32
REMARK    4  A    between atoms: N_19  and  C_22
REMARK    5  A    between atoms: C_22  and  C_23
REMARK    6  A    between atoms: C_26  and  C_29
REMARK    7  A    between atoms: O_32  and  C_33
REMARK                            x       y       z     vdW  Elec       q    Type
REMARK                         _______ _______ _______ _____ _____    ______ ____
ROOT
ATOM      1  C   UNL     1      -1.198  -0.636   0.010  0.00  0.00    +0.145 A 
ATOM      2  C   UNL     1      -1.814  -0.967   1.219  0.00  0.00    +0.066 A 
ATOM      3  C   UNL     1      -1.456  -0.786   2.632  0.00  0.00    +0.053 A 
ATOM      4  C   UNL     1      -2.461  -1.316   3.341  0.00  0.00    +0.196 A 
ATOM      5  O   UNL     1      -3.403  -1.806   2.516  0.00  0.00    -0.459 OA
ATOM      6  C   UNL     1      -3.057  -1.622   1.226  0.00  0.00    +0.183 A 
ATOM      7  C   UNL     1      -3.678  -1.948   0.020  0.00  0.00    +0.206 A 
ATOM      8  C   UNL     1      -3.077  -1.629  -1.185  0.00  0.00    +0.180 A 
ATOM      9  C   UNL     1      -1.835  -0.960  -1.193  0.00  0.00    +0.105 A 
ATOM     10  C   UNL     1      -1.223  -0.606  -2.479  0.00  0.00    +0.174 C 
ATOM     11  O   UNL     1      -0.274   0.148  -2.548  0.00  0.00    -0.292 OA
ATOM     12  C   UNL     1      -1.837  -1.230  -3.719  0.00  0.00    +0.127 C 
ATOM     13  C   UNL     1      -3.360  -1.219  -3.527  0.00  0.00    +0.114 C 
ATOM     14  O   UNL     1      -3.690  -1.960  -2.349  0.00  0.00    -0.481 OA
ATOM     15  C   UNL     1      -4.029  -1.863  -4.743  0.00  0.00    +0.030 C 
ATOM     16  C   UNL     1      -5.549  -1.771  -4.591  0.00  0.00    -0.074 C 
ATOM     17  N   UNL     1      -5.950  -0.362  -4.495  0.00  0.00    +0.383 N 
ATOM     18  C   UNL     1      -5.370   0.240  -3.288  0.00  0.00    -0.074 C 
ATOM     19  C   UNL     1      -3.843   0.227  -3.391  0.00  0.00    +0.030 C 
ATOM     20  H   UNL     1      -5.622   0.136  -5.309  0.00  0.00    -0.081 HD
ENDROOT
BRANCH   1  22
ATOM     21  C   UNL     1      -0.017   1.425   0.010  0.00  0.00    +0.277 C 
ATOM     22  O   UNL     1       0.002  -0.004   0.002  0.00  0.00    -0.494 OA
ENDBRANCH   1  22
BRANCH   7  23
ATOM     23  O   UNL     1      -4.882  -2.585   0.029  0.00  0.00    -0.488 OA
ATOM     24  C   UNL     1      -6.051  -1.763   0.035  0.00  0.00    +0.277 C 
ENDBRANCH   7  23
BRANCH  17  25
ATOM     25  C   UNL     1      -7.415  -0.276  -4.428  0.00  0.00    -0.043 C 
BRANCH  25  26
ATOM     26  C   UNL     1      -7.834   1.172  -4.453  0.00  0.00    -0.064 A 
ATOM     27  C   UNL     1      -7.963   1.872  -3.267  0.00  0.00    +0.002 A 
ATOM     28  C   UNL     1      -8.346   3.197  -3.283  0.00  0.00    +0.013 A 
ATOM     29  C   UNL     1      -8.604   3.832  -4.499  0.00  0.00    +0.037 A 
ATOM     30  C   UNL     1      -8.472   3.119  -5.692  0.00  0.00    +0.013 A 
ATOM     31  C   UNL     1      -8.082   1.796  -5.662  0.00  0.00    +0.002 A 
BRANCH  29  32
ATOM     32  C   UNL     1      -9.015   5.251  -4.524  0.00  0.00    +0.242 C 
ATOM     33  O   UNL     1      -9.130   5.869  -3.483  0.00  0.00    -0.270 OA
ATOM     34  N   UNL     1      -9.263   5.861  -5.700  0.00  0.00    -0.325 N 
ATOM     35  H   UNL     1      -9.172   5.368  -6.530  0.00  0.00    +0.145 HD
ATOM     36  H   UNL     1      -9.533   6.792  -5.716  0.00  0.00    +0.145 HD
ENDBRANCH  29  32
ENDBRANCH  25  26
ENDBRANCH  17  25
TORSDOF 5
