REMARK  Name = ZINC36379000
REMARK  9 active torsions:
REMARK  status: ('A' for Active; 'I' for Inactive)
REMARK    1  A    between atoms: C_1  and  C_2
REMARK    2  A    between atoms: C_7  and  O_23
REMARK    3  A    between atoms: C_9  and  C_22
REMARK    4  A    between atoms: C_10  and  C_21
REMARK    5  A    between atoms: C_14  and  O_20
REMARK    6  A    between atoms: O_23  and  C_24
REMARK    7  A    between atoms: C_24  and  C_26
REMARK    8  A    between atoms: C_26  and  C_27
REMARK    9  A    between atoms: C_26  and  C_28
REMARK                            x       y       z     vdW  Elec       q    Type
REMARK                         _______ _______ _______ _____ _____    ______ ____
ROOT
ATOM      1  C   UNL     1      -1.924   0.357   0.219  0.00  0.00    +0.047 C 
ATOM      2  C   UNL     1      -1.646  -1.087   0.551  0.00  0.00    -0.005 A 
ATOM      3  C   UNL     1      -2.045  -2.171  -0.162  0.00  0.00    +0.199 A 
ATOM      4  O   UNL     1      -1.608  -3.284   0.448  0.00  0.00    -0.459 OA
ATOM      5  C   UNL     1      -0.921  -2.946   1.547  0.00  0.00    +0.177 A 
ATOM      6  C   UNL     1      -0.927  -1.560   1.640  0.00  0.00    +0.045 A 
ATOM      7  C   UNL     1      -0.256  -0.814   2.763  0.00  0.00    +0.217 C 
ATOM      8  C   UNL     1      -0.196  -1.746   3.980  0.00  0.00    +0.024 C 
ATOM      9  C   UNL     1       0.581  -1.057   5.104  0.00  0.00    -0.003 C 
ATOM     10  C   UNL     1       0.621  -1.972   6.330  0.00  0.00    +0.006 C 
ATOM     11  C   UNL     1       1.312  -3.287   5.963  0.00  0.00    +0.032 C 
ATOM     12  C   UNL     1       0.534  -3.975   4.840  0.00  0.00    +0.126 C 
ATOM     13  C   UNL     1       0.492  -3.060   3.614  0.00  0.00    +0.102 C 
ATOM     14  C   UNL     1      -0.268  -3.755   2.506  0.00  0.00    +0.204 C 
ATOM     15  O   UNL     1      -0.306  -4.967   2.434  0.00  0.00    -0.288 OA
ATOM     16  C   UNL     1      -0.110   0.258   5.471  0.00  0.00    +0.008 C 
ATOM     17  C   UNL     1      -1.617  -2.037   4.466  0.00  0.00    +0.016 C 
ENDROOT
BRANCH  12  18
ATOM     18  O   UNL     1       1.180  -5.203   4.496  0.00  0.00    -0.391 OA
ATOM     19  H   UNL     1       1.242  -5.832   5.228  0.00  0.00    +0.210 HD
ENDBRANCH  12  18
BRANCH   7  20
ATOM     20  O   UNL     1      -1.011   0.356   3.085  0.00  0.00    -0.456 OA
BRANCH  20  21
ATOM     21  C   UNL     1      -0.553   1.526   2.611  0.00  0.00    +0.310 C 
ATOM     22  O   UNL     1       0.455   1.555   1.946  0.00  0.00    -0.251 OA
BRANCH  21  23
ATOM     23  C   UNL     1      -1.296   2.802   2.910  0.00  0.00    +0.092 C 
ATOM     24  C   UNL     1      -0.569   3.980   2.259  0.00  0.00    +0.019 C 
ATOM     25  C   UNL     1      -2.717   2.708   2.351  0.00  0.00    +0.019 C 
ENDBRANCH  21  23
ENDBRANCH  20  21
ENDBRANCH   7  20
TORSDOF 4
