REMARK  Name = ZINC14159340
REMARK  6 active torsions:
REMARK  status: ('A' for Active; 'I' for Inactive)
REMARK    1  A    between atoms: C_1  and  C_2
REMARK    2  A    between atoms: C_4  and  C_32
REMARK    3  A    between atoms: N_10  and  C_11
REMARK    4  A    between atoms: C_11  and  N_13
REMARK    5  A    between atoms: N_13  and  C_14
REMARK    6  A    between atoms: N_21  and  C_22
REMARK                            x       y       z     vdW  Elec       q    Type
REMARK                         _______ _______ _______ _____ _____    ______ ____
ROOT
ATOM      1  C   UNL     1      -2.459  -1.897  -2.177  0.00  0.00    +0.066 C 
ATOM      2  C   UNL     1      -1.093  -1.472  -1.703  0.00  0.00    +0.044 A 
ATOM      3  C   UNL     1       0.041  -2.133  -2.148  0.00  0.00    +0.046 A 
ATOM      4  C   UNL     1       1.278  -1.709  -1.688  0.00  0.00    +0.044 A 
ATOM      5  N   UNL     1       1.339  -0.693  -0.843  0.00  0.00    -0.217 NA
ATOM      6  C   UNL     1       0.235  -0.083  -0.438  0.00  0.00    +0.231 A 
ATOM      7  N   UNL     1      -0.962  -0.466  -0.854  0.00  0.00    -0.217 NA
ATOM      8  N   UNL     1       0.336   0.980   0.449  0.00  0.00    -0.297 N 
ATOM      9  C   UNL     1      -0.795   1.618   0.885  0.00  0.00    +0.200 C 
ATOM     10  N   UNL     1      -0.695   2.721   1.607  0.00  0.00    -0.159 NA
ATOM     11  N   UNL     1      -2.026   1.114   0.573  0.00  0.00    -0.326 N 
ATOM     12  C   UNL     1       2.539  -2.397  -2.144  0.00  0.00    +0.066 C 
ATOM     13  H   UNL     1       1.207   1.269   0.764  0.00  0.00    +0.172 HD
ATOM     14  H   UNL     1      -2.102   0.245   0.149  0.00  0.00    +0.169 HD
ENDROOT
BRANCH  11  15
ATOM     15  C   UNL     1      -3.178   1.852   0.866  0.00  0.00    +0.061 A 
ATOM     16  C   UNL     1      -4.333   1.207   1.265  0.00  0.00    +0.037 A 
ATOM     17  C   UNL     1      -5.464   1.993   1.548  0.00  0.00    +0.002 A 
ATOM     18  C   UNL     1      -6.674   1.409   1.959  0.00  0.00    +0.010 A 
ATOM     19  C   UNL     1      -7.748   2.203   2.225  0.00  0.00    +0.001 A 
ATOM     20  C   UNL     1      -7.663   3.588   2.094  0.00  0.00    +0.002 A 
ATOM     21  C   UNL     1      -6.508   4.186   1.698  0.00  0.00    +0.028 A 
ATOM     22  C   UNL     1      -5.376   3.401   1.415  0.00  0.00    +0.071 A 
ATOM     23  N   UNL     1      -4.229   3.966   1.023  0.00  0.00    -0.253 NA
ATOM     24  C   UNL     1      -3.165   3.248   0.761  0.00  0.00    +0.137 A 
ENDBRANCH  11  15
BRANCH  10  25
ATOM     25  C   UNL     1       0.512   3.180   1.966  0.00  0.00    +0.161 C 
ATOM     26  S   UNL     1       1.610   3.726   0.772  0.00  0.00    -0.016 S 
BRANCH  25  27
ATOM     27  N   UNL     1       0.861   3.212   3.268  0.00  0.00    -0.295 N 
ATOM     28  H   UNL     1       1.510   2.578   3.611  0.00  0.00    +0.154 HD
BRANCH  27  29
ATOM     29  C   UNL     1       0.288   4.160   4.123  0.00  0.00    +0.033 A 
ATOM     30  C   UNL     1      -0.696   5.018   3.650  0.00  0.00    +0.026 A 
ATOM     31  C   UNL     1      -1.266   5.948   4.498  0.00  0.00    +0.040 A 
ATOM     32  C   UNL     1      -0.846   6.034   5.815  0.00  0.00    +0.124 A 
ATOM     33  C   UNL     1       0.140   5.184   6.286  0.00  0.00    +0.040 A 
ATOM     34  C   UNL     1       0.707   4.247   5.444  0.00  0.00    +0.026 A 
ATOM     35  F   UNL     1      -1.400   6.949   6.640  0.00  0.00    -0.205 F 
ENDBRANCH  27  29
ENDBRANCH  25  27
ENDBRANCH  10  25
TORSDOF 4
