REMARK  Name = ZINC35701019
REMARK  14 active torsions:
REMARK  status: ('A' for Active; 'I' for Inactive)
REMARK    1  A    between atoms: C_1  and  C_2
REMARK    2  A    between atoms: C_3  and  C_31
REMARK    3  A    between atoms: C_4  and  C_23
REMARK    4  A    between atoms: C_7  and  C_12
REMARK    5  A    between atoms: C_13  and  N_15
REMARK    6  A    between atoms: N_15  and  C_16
REMARK    7  A    between atoms: C_16  and  C_17
REMARK    8  A    between atoms: C_28  and  O_29
REMARK    9  A    between atoms: O_29  and  C_30
REMARK   10  A    between atoms: C_31  and  O_33
REMARK   11  A    between atoms: O_33  and  C_34
REMARK   12  A    between atoms: C_34  and  C_35
REMARK   13  A    between atoms: C_35  and  O_36
REMARK   14  A    between atoms: O_36  and  C_37
REMARK                            x       y       z     vdW  Elec       q    Type
REMARK                         _______ _______ _______ _____ _____    ______ ____
ROOT
ATOM      1  C   UNL     1      -0.193   2.023   0.817  0.00  0.00    +0.066 C 
ATOM      2  C   UNL     1      -0.200   0.518   0.735  0.00  0.00    +0.053 C 
ATOM      3  C   UNL     1      -1.383  -0.151   0.492  0.00  0.00    +0.083 C 
ATOM      4  C   UNL     1      -1.338  -1.661   0.419  0.00  0.00    +0.153 C 
ATOM      5  N   UNL     1      -0.014  -2.308   0.617  0.00  0.00    -0.267 N 
ATOM      6  C   UNL     1       0.262  -3.661   0.592  0.00  0.00    +0.048 C 
ATOM      7  C   UNL     1       1.542  -4.044   0.795  0.00  0.00    +0.072 C 
ATOM      8  S   UNL     1       2.363  -2.479   1.024  0.00  0.00    -0.060 S 
ATOM      9  C   UNL     1       1.037  -1.465   0.846  0.00  0.00    +0.166 C 
ATOM     10  N   UNL     1       0.930  -0.153   0.892  0.00  0.00    -0.230 NA
ENDROOT
BRANCH   4  11
ATOM     11  C   UNL     1      -2.280  -2.204   1.463  0.00  0.00    +0.020 A 
ATOM     12  C   UNL     1      -3.490  -2.753   1.084  0.00  0.00    +0.009 A 
ATOM     13  C   UNL     1      -4.354  -3.251   2.041  0.00  0.00    +0.001 A 
ATOM     14  C   UNL     1      -4.010  -3.202   3.379  0.00  0.00    +0.004 A 
ATOM     15  C   UNL     1      -2.801  -2.655   3.763  0.00  0.00    +0.046 A 
ATOM     16  C   UNL     1      -1.930  -2.159   2.804  0.00  0.00    +0.125 A 
BRANCH  16  17
ATOM     17  O   UNL     1      -0.737  -1.625   3.179  0.00  0.00    -0.495 OA
ATOM     18  C   UNL     1      -0.396  -1.708   4.564  0.00  0.00    +0.277 C 
ENDBRANCH  16  17
ENDBRANCH   4  11
BRANCH   6  19
ATOM     19  C   UNL     1      -0.799  -4.650   0.353  0.00  0.00    +0.091 C 
ATOM     20  C   UNL     1      -0.532  -5.965   0.464  0.00  0.00    +0.239 C 
ATOM     21  O   UNL     1       0.739  -6.381   0.688  0.00  0.00    -0.271 OA
BRANCH  20  22
ATOM     22  N   UNL     1      -1.554  -6.891   0.350  0.00  0.00    -0.308 N 
ATOM     23  H   UNL     1      -2.450  -6.600   0.118  0.00  0.00    +0.149 HD
BRANCH  22  24
ATOM     24  C   UNL     1      -1.284  -8.313   0.580  0.00  0.00    +0.140 C 
BRANCH  24  25
ATOM     25  C   UNL     1      -2.522  -9.116   0.277  0.00  0.00    -0.027 A 
ATOM     26  C   UNL     1      -3.461  -9.373   1.264  0.00  0.00    +0.025 A 
ATOM     27  C   UNL     1      -4.585 -10.112   0.949  0.00  0.00    +0.111 A 
ATOM     28  N   UNL     1      -4.769 -10.572  -0.274  0.00  0.00    -0.263 NA
ATOM     29  C   UNL     1      -3.898 -10.347  -1.238  0.00  0.00    +0.111 A 
ATOM     30  C   UNL     1      -2.753  -9.610  -0.998  0.00  0.00    +0.025 A 
ENDBRANCH  24  25
ENDBRANCH  22  24
ENDBRANCH  20  22
ENDBRANCH   6  19
BRANCH   3  31
ATOM     31  C   UNL     1      -2.586   0.546   0.319  0.00  0.00    +0.339 C 
ATOM     32  O   UNL     1      -2.621   1.752   0.488  0.00  0.00    -0.245 OA
BRANCH  31  33
ATOM     33  O   UNL     1      -3.707  -0.120  -0.035  0.00  0.00    -0.459 OA
BRANCH  33  34
ATOM     34  C   UNL     1      -4.870   0.666  -0.307  0.00  0.00    +0.260 C 
BRANCH  34  35
ATOM     35  C   UNL     1      -6.060  -0.258  -0.569  0.00  0.00    +0.200 C 
BRANCH  35  36
ATOM     36  O   UNL     1      -6.377  -0.978   0.624  0.00  0.00    -0.380 OA
ATOM     37  C   UNL     1      -7.549  -1.789   0.520  0.00  0.00    +0.194 C 
ENDBRANCH  35  36
ENDBRANCH  34  35
ENDBRANCH  33  34
ENDBRANCH  31  33
ENDBRANCH   3  31
TORSDOF 11
