REMARK  Name = ZINC05488739
REMARK  6 active torsions:
REMARK  status: ('A' for Active; 'I' for Inactive)
REMARK    1  A    between atoms: C_4  and  C_7
REMARK    2  A    between atoms: C_7  and  C_8
REMARK    3  A    between atoms: C_7  and  C_20
REMARK    4  A    between atoms: C_7  and  O_27
REMARK    5  A    between atoms: C_9  and  C_10
REMARK    6  A    between atoms: C_10  and  N_11
REMARK                            x       y       z     vdW  Elec       q    Type
REMARK                         _______ _______ _______ _____ _____    ______ ____
ROOT
ATOM      1  C   UNL     1      -5.062   3.587  -3.815  0.00  0.00    +0.178 C 
ENDROOT
BRANCH   1   2
ATOM      2  C   UNL     1      -4.307   2.299  -4.018  0.00  0.00    +0.001 A 
ATOM      3  C   UNL     1      -4.902   1.092  -3.703  0.00  0.00    +0.009 A 
ATOM      4  C   UNL     1      -4.212  -0.090  -3.894  0.00  0.00    +0.020 A 
ATOM      5  C   UNL     1      -2.921  -0.064  -4.392  0.00  0.00    +0.041 A 
ATOM      6  C   UNL     1      -2.324   1.145  -4.702  0.00  0.00    +0.020 A 
ATOM      7  C   UNL     1      -3.017   2.326  -4.515  0.00  0.00    +0.009 A 
ATOM      8 CL   UNL     1      -2.051  -1.548  -4.627  0.00  0.00    -0.084 Cl
ENDBRANCH   1   2
BRANCH   1  12
ATOM      9  C   UNL     1      -8.237   3.842  -6.662  0.00  0.00    +0.000 A 
ATOM     10  C   UNL     1      -8.314   2.937  -5.620  0.00  0.00    +0.000 A 
ATOM     11  C   UNL     1      -7.287   2.854  -4.699  0.00  0.00    +0.008 A 
ATOM     12  C   UNL     1      -6.182   3.677  -4.819  0.00  0.00    +0.001 A 
ATOM     13  C   UNL     1      -6.108   4.586  -5.858  0.00  0.00    +0.008 A 
ATOM     14  C   UNL     1      -7.133   4.665  -6.782  0.00  0.00    +0.000 A 
ENDBRANCH   1  12
BRANCH   1  15
ATOM     15  C   UNL     1      -5.621   3.619  -2.453  0.00  0.00    -0.056 C 
ATOM     16  C   UNL     1      -6.066   3.644  -1.367  0.00  0.00    -0.075 C 
BRANCH  16  17
ATOM     17  C   UNL     1      -6.625   3.675  -0.006  0.00  0.00    +0.234 C 
BRANCH  17  18
ATOM     18  N   UNL     1      -5.536   3.588   0.971  0.00  0.00    -0.232 N 
ATOM     19  C   UNL     1      -5.005   2.441   1.511  0.00  0.00    +0.090 A 
ATOM     20  C   UNL     1      -5.268   1.085   1.348  0.00  0.00    +0.029 A 
ATOM     21  C   UNL     1      -4.546   0.163   2.053  0.00  0.00    +0.002 A 
ATOM     22  C   UNL     1      -3.543   0.568   2.925  0.00  0.00    +0.002 A 
ATOM     23  C   UNL     1      -3.262   1.892   3.098  0.00  0.00    +0.032 A 
ATOM     24  C   UNL     1      -3.992   2.857   2.391  0.00  0.00    +0.113 A 
ATOM     25  N   UNL     1      -3.945   4.204   2.354  0.00  0.00    -0.129 NA
ATOM     26  N   UNL     1      -4.830   4.659   1.539  0.00  0.00    -0.064 NA
ENDBRANCH  17  18
ENDBRANCH  16  17
ENDBRANCH   1  15
BRANCH   1  27
ATOM     27  O   UNL     1      -4.175   4.693  -3.991  0.00  0.00    -0.369 OA
ATOM     28  H   UNL     1      -3.428   4.700  -3.377  0.00  0.00    +0.212 HD
ENDBRANCH   1  27
TORSDOF 6
