REMARK  Name = ZINC28352875
REMARK  5 active torsions:
REMARK  status: ('A' for Active; 'I' for Inactive)
REMARK    1  A    between atoms: C_1  and  C_2
REMARK    2  A    between atoms: C_5  and  C_8
REMARK    3  A    between atoms: C_8  and  C_23
REMARK    4  A    between atoms: N_9  and  N_10
REMARK    5  A    between atoms: C_11  and  C_16
REMARK                            x       y       z     vdW  Elec       q    Type
REMARK                         _______ _______ _______ _____ _____    ______ ____
ROOT
ATOM      1  N   UNL     1      -0.021   0.060  -2.334  0.00  0.00    -0.188 N 
ATOM      2  C   UNL     1      -1.131   0.461  -3.046  0.00  0.00    +0.184 A 
ATOM      3  N   UNL     1      -0.697   1.094  -4.112  0.00  0.00    -0.152 NA
ATOM      4  N   UNL     1       0.588   1.110  -4.122  0.00  0.00    -0.253 N 
ATOM      5  C   UNL     1       1.057   0.492  -3.060  0.00  0.00    +0.197 A 
ATOM      6  S   UNL     1       2.754   0.264  -2.647  0.00  0.00    -0.010 S 
ATOM      7  H   UNL     1       1.126   1.597  -4.948  0.00  0.00    +0.191 HD
ENDROOT
BRANCH   2   8
ATOM      8  C   UNL     1      -2.543   0.226  -2.678  0.00  0.00    +0.022 A 
ATOM      9  C   UNL     1      -3.561   0.943  -3.310  0.00  0.00    +0.012 A 
ATOM     10  C   UNL     1      -4.877   0.720  -2.962  0.00  0.00    +0.002 A 
ATOM     11  C   UNL     1      -5.190  -0.213  -1.990  0.00  0.00    +0.020 A 
ATOM     12  C   UNL     1      -4.186  -0.929  -1.359  0.00  0.00    +0.042 A 
ATOM     13  C   UNL     1      -2.865  -0.718  -1.702  0.00  0.00    +0.031 A 
ATOM     14 CL   UNL     1      -4.589  -2.097  -0.141  0.00  0.00    -0.084 Cl
ENDBRANCH   2   8
BRANCH   1  16
ATOM     15  C   UNL     1       0.002  -0.004   0.002  0.00  0.00    +0.066 C 
ATOM     16  N   UNL     1       0.000  -0.647  -1.125  0.00  0.00    -0.167 NA
ATOM     17  C   UNL     1      -0.018   1.503   0.010  0.00  0.00    +0.068 C 
BRANCH  15  22
ATOM     18  C   UNL     1       0.090  -2.906   4.967  0.00  0.00    +0.044 C 
ATOM     19  C   UNL     1       0.067  -2.146   3.666  0.00  0.00    -0.050 A 
ATOM     20  C   UNL     1       0.064  -2.834   2.466  0.00  0.00    +0.004 A 
ATOM     21  C   UNL     1       0.043  -2.145   1.271  0.00  0.00    +0.010 A 
ATOM     22  C   UNL     1       0.024  -0.748   1.275  0.00  0.00    -0.002 A 
ATOM     23  C   UNL     1       0.032  -0.060   2.490  0.00  0.00    +0.010 A 
ATOM     24  C   UNL     1       0.048  -0.762   3.677  0.00  0.00    +0.004 A 
ENDBRANCH  15  22
ENDBRANCH   1  16
TORSDOF 3
