REMARK  Name = ZINC52224888
REMARK  3 active torsions:
REMARK  status: ('A' for Active; 'I' for Inactive)
REMARK    1  A    between atoms: C_5  and  N_7
REMARK    2  A    between atoms: C_9  and  C_12
REMARK    3  A    between atoms: C_12  and  C_13
REMARK                            x       y       z     vdW  Elec       q    Type
REMARK                         _______ _______ _______ _____ _____    ______ ____
ROOT
ATOM      1  C   UNL     1      -0.017   1.377   0.010  0.00  0.00    +0.002 A 
ATOM      2  C   UNL     1       1.171   2.080   0.002  0.00  0.00    +0.004 A 
ATOM      3  C   UNL     1       2.389   1.413  -0.011  0.00  0.00    -0.042 A 
ATOM      4  C   UNL     1       2.414   0.037  -0.014  0.00  0.00    -0.019 A 
ATOM      5  C   UNL     1       1.215  -0.674  -0.010  0.00  0.00    +0.070 A 
ATOM      6  C   UNL     1       0.002  -0.004   0.002  0.00  0.00    +0.028 A 
ATOM      7  C   UNL     1       3.698  -0.751  -0.011  0.00  0.00    +0.037 C 
ATOM      8  C   UNL     1       4.869   0.128  -0.444  0.00  0.00    +0.005 C 
ATOM      9  C   UNL     1       4.850   1.409   0.398  0.00  0.00    +0.005 C 
ATOM     10  C   UNL     1       3.644   2.246  -0.026  0.00  0.00    +0.035 C 
ENDROOT
BRANCH   5  11
ATOM     11  N   UNL     1       1.236  -2.076  -0.019  0.00  0.00    -0.220 N 
ATOM     12  C   UNL     1       0.146  -2.892  -0.023  0.00  0.00    +0.139 A 
ATOM     13  C   UNL     1       0.626  -4.158  -0.032  0.00  0.00    +0.084 A 
ATOM     14  N   UNL     1       1.960  -4.059  -0.034  0.00  0.00    -0.134 NA
ATOM     15  N   UNL     1       2.290  -2.816  -0.032  0.00  0.00    -0.061 NA
BRANCH  13  16
ATOM     16  C   UNL     1      -0.183  -5.429  -0.039  0.00  0.00    +0.070 C 
BRANCH  16  17
ATOM     17  C   UNL     1       0.238  -6.296  -1.227  0.00  0.00    +0.086 C 
ATOM     18 BR   UNL     1      -0.818  -7.954  -1.236  0.00  0.00    -0.091 Br
ENDBRANCH  16  17
ENDBRANCH  13  16
ENDBRANCH   5  11
TORSDOF 3
