REMARK  Name = ZINC22472958
REMARK  7 active torsions:
REMARK  status: ('A' for Active; 'I' for Inactive)
REMARK    1  A    between atoms: C_1  and  N_2
REMARK    2  A    between atoms: N_2  and  C_3
REMARK    3  A    between atoms: C_3  and  C_4
REMARK    4  A    between atoms: C_4  and  C_5
REMARK    5  A    between atoms: C_5  and  N_6
REMARK    6  A    between atoms: C_9  and  O_10
REMARK    7  A    between atoms: C_18  and  C_20
REMARK                            x       y       z     vdW  Elec       q    Type
REMARK                         _______ _______ _______ _____ _____    ______ ____
ROOT
ATOM      1  C   UNL     1      -3.705   2.770   0.028  0.00  0.00    +0.040 C 
ENDROOT
BRANCH   1   2
ATOM      2  C   UNL     1      -4.931   1.864  -0.100  0.00  0.00    +0.109 C 
BRANCH   2   4
ATOM      3  C   UNL     1      -6.825   3.313  -0.967  0.00  0.00    +0.132 C 
ATOM      4  N   UNL     1      -6.144   2.647   0.146  0.00  0.00    -0.299 N 
ATOM      5  C   UNL     1      -6.635   2.755   1.397  0.00  0.00    +0.265 C 
ATOM      6  O   UNL     1      -6.016   2.291   2.334  0.00  0.00    -0.268 OA
BRANCH   5   7
ATOM      7  C   UNL     1      -7.929   3.439   1.630  0.00  0.00    +0.126 A 
ATOM      8  C   UNL     1      -8.360   3.661   2.946  0.00  0.00    +0.033 A 
ATOM      9  C   UNL     1      -9.547   4.295   3.174  0.00  0.00    +0.012 A 
ATOM     10  C   UNL     1     -10.311   4.698   2.062  0.00  0.00    +0.000 A 
ATOM     11  C   UNL     1     -11.545   5.349   2.223  0.00  0.00    +0.010 A 
ATOM     12  C   UNL     1     -12.256   5.724   1.125  0.00  0.00    +0.001 A 
ATOM     13  C   UNL     1     -11.777   5.471  -0.160  0.00  0.00    +0.002 A 
ATOM     14  C   UNL     1     -10.587   4.842  -0.354  0.00  0.00    +0.028 A 
ATOM     15  C   UNL     1      -9.821   4.439   0.756  0.00  0.00    +0.072 A 
ATOM     16  N   UNL     1      -8.652   3.820   0.594  0.00  0.00    -0.242 NA
ENDBRANCH   5   7
ENDBRANCH   2   4
ENDBRANCH   1   2
BRANCH   1  17
ATOM     17  C   UNL     1      -2.438   1.952  -0.230  0.00  0.00    +0.114 C 
BRANCH  17  18
ATOM     18  N   UNL     1      -1.263   2.819  -0.107  0.00  0.00    -0.384 N 
ATOM     19  C   UNL     1      -0.001   2.301  -0.298  0.00  0.00    +0.053 A 
ATOM     20  C   UNL     1       0.180   0.976  -0.603  0.00  0.00    +0.113 A 
ATOM     21  C   UNL     1       1.475   0.480  -0.796  0.00  0.00    +0.286 A 
ATOM     22  O   UNL     1       2.559   1.266  -0.692  0.00  0.00    -0.425 OA
ATOM     23  C   UNL     1       2.458   2.579  -0.394  0.00  0.00    +0.141 A 
ATOM     24  C   UNL     1       1.194   3.153  -0.186  0.00  0.00    +0.041 A 
ATOM     25  C   UNL     1       1.085   4.510   0.121  0.00  0.00    +0.013 A 
ATOM     26  C   UNL     1       2.224   5.280   0.218  0.00  0.00    +0.001 A 
ATOM     27  C   UNL     1       3.472   4.713   0.011  0.00  0.00    +0.004 A 
ATOM     28  C   UNL     1       3.593   3.372  -0.292  0.00  0.00    +0.047 A 
ATOM     29  H   UNL     1      -1.389   3.884   0.137  0.00  0.00    +0.160 HD
BRANCH  21  30
ATOM     30  O   UNL     1       1.623  -0.700  -1.067  0.00  0.00    -0.480 OA
ATOM     31  H   UNL     1       2.633  -1.106  -1.222  0.00  0.00    +0.295 HD
ENDBRANCH  21  30
ENDBRANCH  17  18
ENDBRANCH   1  17
TORSDOF 6
