REMARK  Name = ZINC36206616
REMARK  11 active torsions:
REMARK  status: ('A' for Active; 'I' for Inactive)
REMARK    1  A    between atoms: C_1  and  N_2
REMARK    2  A    between atoms: N_2  and  C_3
REMARK    3  A    between atoms: N_2  and  C_23
REMARK    4  A    between atoms: C_3  and  C_4
REMARK    5  A    between atoms: C_10  and  C_15
REMARK    6  A    between atoms: C_20  and  O_21
REMARK    7  A    between atoms: O_21  and  C_22
REMARK    8  A    between atoms: C_23  and  C_24
REMARK    9  A    between atoms: C_24  and  C_26
REMARK   10  A    between atoms: C_24  and  O_33
REMARK   11  A    between atoms: C_26  and  C_27
REMARK                            x       y       z     vdW  Elec       q    Type
REMARK                         _______ _______ _______ _____ _____    ______ ____
ROOT
ATOM      1  C   UNL     1       2.163  -0.073  -0.979  0.00  0.00    +0.094 A 
ATOM      2  N   UNL     1       3.018  -0.448  -1.965  0.00  0.00    -0.312 N 
ATOM      3  H   UNL     1       2.690  -0.997  -2.695  0.00  0.00    +0.170 HD
ATOM      4  C   UNL     1       4.310  -0.074  -1.951  0.00  0.00    +0.260 A 
ATOM      5  O   UNL     1       5.064  -0.419  -2.844  0.00  0.00    -0.267 OA
ATOM      6  C   UNL     1       4.786   0.737  -0.872  0.00  0.00    +0.080 A 
ATOM      7  C   UNL     1       6.124   1.265  -0.634  0.00  0.00    +0.007 A 
ATOM      8  C   UNL     1       6.340   2.018   0.471  0.00  0.00    +0.056 A 
ATOM      9  S   UNL     1       4.743   2.061   1.261  0.00  0.00    -0.076 S 
ATOM     10  C   UNL     1       3.831   1.075   0.101  0.00  0.00    +0.116 A 
ATOM     11  N   UNL     1       2.566   0.671   0.016  0.00  0.00    -0.229 NA
ENDROOT
BRANCH   7  12
ATOM     12  C   UNL     1       7.227   0.982  -1.583  0.00  0.00    +0.025 A 
ATOM     13  C   UNL     1       8.318   0.215  -1.179  0.00  0.00    +0.012 A 
ATOM     14  C   UNL     1       9.342  -0.045  -2.067  0.00  0.00    +0.001 A 
ATOM     15  C   UNL     1       9.290   0.452  -3.358  0.00  0.00    +0.004 A 
ATOM     16  C   UNL     1       8.211   1.213  -3.768  0.00  0.00    +0.046 A 
ATOM     17  C   UNL     1       7.174   1.478  -2.889  0.00  0.00    +0.128 A 
BRANCH  17  18
ATOM     18  O   UNL     1       6.111   2.221  -3.294  0.00  0.00    -0.495 OA
ATOM     19  C   UNL     1       6.125   2.695  -4.642  0.00  0.00    +0.277 C 
ENDBRANCH  17  18
ENDBRANCH   7  12
BRANCH   1  20
ATOM     20  C   UNL     1       0.724  -0.516  -1.038  0.00  0.00    -0.004 C 
BRANCH  20  22
ATOM     21  C   UNL     1      -0.041   1.482   0.048  0.00  0.00    -0.095 C 
ATOM     22  N   UNL     1       0.001   0.016   0.125  0.00  0.00    +0.384 N 
ATOM     23  H   UNL     1       0.474  -0.263   0.972  0.00  0.00    -0.082 HD
BRANCH  22  24
ATOM     24  C   UNL     1      -1.370  -0.513   0.133  0.00  0.00    -0.047 C 
BRANCH  24  25
ATOM     25  C   UNL     1      -1.332  -2.023   0.375  0.00  0.00    +0.102 C 
BRANCH  25  26
ATOM     26  O   UNL     1      -0.816  -2.284   1.681  0.00  0.00    -0.393 OA
ATOM     27  H   UNL     1      -1.337  -1.894   2.396  0.00  0.00    +0.210 HD
ENDBRANCH  25  26
BRANCH  25  28
ATOM     28  C   UNL     1      -2.748  -2.593   0.263  0.00  0.00    +0.064 C 
BRANCH  28  29
ATOM     29  C   UNL     1      -2.696  -4.095   0.379  0.00  0.00    -0.045 A 
ATOM     30  C   UNL     1      -2.538  -4.870  -0.754  0.00  0.00    +0.004 A 
ATOM     31  C   UNL     1      -2.490  -6.248  -0.648  0.00  0.00    +0.000 A 
ATOM     32  C   UNL     1      -2.600  -6.849   0.592  0.00  0.00    +0.000 A 
ATOM     33  C   UNL     1      -2.757  -6.074   1.725  0.00  0.00    +0.000 A 
ATOM     34  C   UNL     1      -2.800  -4.696   1.619  0.00  0.00    +0.004 A 
ENDBRANCH  28  29
ENDBRANCH  25  28
ENDBRANCH  24  25
ENDBRANCH  22  24
ENDBRANCH  20  22
ENDBRANCH   1  20
TORSDOF 9
