REMARK  Name = ZINC04911932
REMARK  8 active torsions:
REMARK  status: ('A' for Active; 'I' for Inactive)
REMARK    1  A    between atoms: C_1  and  C_2
REMARK    2  A    between atoms: C_2  and  C_3
REMARK    3  A    between atoms: C_6  and  C_9
REMARK    4  A    between atoms: C_14  and  C_29
REMARK    5  A    between atoms: C_15  and  C_18
REMARK    6  A    between atoms: C_18  and  O_20
REMARK    7  A    between atoms: O_20  and  C_21
REMARK    8  A    between atoms: C_26  and  C_28
REMARK                            x       y       z     vdW  Elec       q    Type
REMARK                         _______ _______ _______ _____ _____    ______ ____
ROOT
ATOM      1  C   UNL     1      -0.533  -3.233  -7.709  0.00  0.00    +0.032 C 
ATOM      2  C   UNL     1      -0.975  -3.142  -6.245  0.00  0.00    +0.062 C 
ATOM      3  C   UNL     1      -0.317  -1.947  -5.601  0.00  0.00    +0.028 A 
ATOM      4  C   UNL     1       0.832  -1.347  -6.116  0.00  0.00    +0.042 A 
ATOM      5  C   UNL     1       1.158  -0.270  -5.284  0.00  0.00    -0.008 A 
ATOM      6  C   UNL     1       0.220  -0.246  -4.289  0.00  0.00    +0.128 A 
ATOM      7  N   UNL     1      -0.674  -1.279  -4.505  0.00  0.00    -0.352 N 
ATOM      8  H   UNL     1      -1.440  -1.484  -3.946  0.00  0.00    +0.166 HD
ATOM      9  C   UNL     1       2.319   0.677  -5.450  0.00  0.00    +0.047 C 
ATOM     10  C   UNL     1       1.488  -1.853  -7.332  0.00  0.00    +0.166 C 
ATOM     11  O   UNL     1       2.360  -1.234  -7.906  0.00  0.00    -0.292 OA
ATOM     12  C   UNL     1       0.995  -3.208  -7.816  0.00  0.00    +0.088 C 
ENDROOT
BRANCH   1  16
ATOM     13  C   UNL     1      -2.000  -6.873  -9.397  0.00  0.00    -0.048 A 
ATOM     14  C   UNL     1      -2.377  -5.658  -9.939  0.00  0.00    +0.004 A 
ATOM     15  C   UNL     1      -1.902  -4.480  -9.393  0.00  0.00    +0.004 A 
ATOM     16  C   UNL     1      -1.051  -4.517  -8.304  0.00  0.00    -0.043 A 
ATOM     17  C   UNL     1      -0.670  -5.732  -7.765  0.00  0.00    +0.004 A 
ATOM     18  C   UNL     1      -1.148  -6.909  -8.309  0.00  0.00    +0.004 A 
BRANCH  13  20
ATOM     19  C   UNL     1      -1.558  -8.636 -11.084  0.00  0.00    +0.009 C 
ATOM     20  C   UNL     1      -2.517  -8.156  -9.992  0.00  0.00    +0.032 C 
ENDBRANCH  13  20
ENDBRANCH   1  16
BRANCH   6  21
ATOM     21  C   UNL     1       0.166   0.717  -3.184  0.00  0.00    +0.356 C 
ATOM     22  O   UNL     1       1.010   1.588  -3.095  0.00  0.00    -0.243 OA
BRANCH  21  23
ATOM     23  O   UNL     1      -0.819   0.636  -2.266  0.00  0.00    -0.457 OA
BRANCH  23  24
ATOM     24  C   UNL     1      -0.809   1.622  -1.200  0.00  0.00    +0.180 C 
ATOM     25  C   UNL     1      -0.013   1.086   0.008  0.00  0.00    +0.045 C 
ATOM     26  C   UNL     1      -0.789   1.611   1.242  0.00  0.00    +0.004 C 
ATOM     27  C   UNL     1      -2.268   1.485   0.789  0.00  0.00    +0.007 C 
ATOM     28  C   UNL     1      -2.243   1.875  -0.703  0.00  0.00    +0.027 C 
ATOM     29  C   UNL     1      -3.230   1.010  -1.488  0.00  0.00    +0.011 C 
ENDBRANCH  23  24
ENDBRANCH  21  23
ENDBRANCH   6  21
TORSDOF 5
