REMARK  Name = ZINC07716119
REMARK  4 active torsions:
REMARK  status: ('A' for Active; 'I' for Inactive)
REMARK    1  A    between atoms: C_3  and  C_8
REMARK    2  A    between atoms: C_5  and  O_7
REMARK    3  A    between atoms: C_9  and  C_10
REMARK    4  A    between atoms: C_10  and  C_12
REMARK                            x       y       z     vdW  Elec       q    Type
REMARK                         _______ _______ _______ _____ _____    ______ ____
ROOT
ATOM      1  C   UNL     1      -1.280   7.439   0.053  0.00  0.00    +0.221 C 
ATOM      2  O   UNL     1      -0.235   8.066   0.047  0.00  0.00    -0.284 OA
ENDROOT
BRANCH   1   3
ATOM      3  C   UNL     1      -2.565   8.153   0.069  0.00  0.00    +0.176 A 
ATOM      4  C   UNL     1      -2.709   9.505   0.083  0.00  0.00    +0.061 A 
ATOM      5  C   UNL     1      -4.149   9.759   0.091  0.00  0.00    +0.022 A 
ATOM      6  C   UNL     1      -4.934  10.915   0.104  0.00  0.00    +0.027 A 
ATOM      7  C   UNL     1      -6.297  10.807   0.116  0.00  0.00    +0.019 A 
ATOM      8  C   UNL     1      -6.904   9.558   0.116  0.00  0.00    +0.019 A 
ATOM      9  C   UNL     1      -6.147   8.407   0.103  0.00  0.00    +0.048 A 
ATOM     10  C   UNL     1      -4.760   8.490   0.091  0.00  0.00    +0.136 A 
ATOM     11  O   UNL     1      -3.780   7.566   0.077  0.00  0.00    -0.452 OA
ATOM     12 BR   UNL     1      -7.362  12.370   0.133  0.00  0.00    -0.050 Br
ENDBRANCH   1   3
BRANCH   1  14
ATOM     13  C   UNL     1      -0.076   5.320   0.030  0.00  0.00    +0.012 C 
ATOM     14  C   UNL     1      -1.256   5.976   0.045  0.00  0.00    +0.055 C 
BRANCH  13  17
ATOM     15  C   UNL     1      -1.221   1.748   0.017  0.00  0.00    +0.004 A 
ATOM     16  C   UNL     1      -1.249   3.127   0.030  0.00  0.00    +0.008 A 
ATOM     17  C   UNL     1      -0.051   3.849   0.022  0.00  0.00    -0.021 A 
ATOM     18  C   UNL     1       1.169   3.167   0.007  0.00  0.00    +0.053 A 
ATOM     19  C   UNL     1       1.183   1.784   0.000  0.00  0.00    +0.117 A 
ATOM     20  C   UNL     1      -0.013   1.076   0.008  0.00  0.00    +0.045 A 
BRANCH  19  21
ATOM     21  O   UNL     1       2.367   1.116  -0.014  0.00  0.00    -0.507 OA
ATOM     22  H   UNL     1       2.701   0.927  -0.901  0.00  0.00    +0.292 HD
ENDBRANCH  19  21
ENDBRANCH  13  17
ENDBRANCH   1  14
TORSDOF 4
