REMARK  Name = ZINC09505496
REMARK  9 active torsions:
REMARK  status: ('A' for Active; 'I' for Inactive)
REMARK    1  A    between atoms: C_1  and  N_56
REMARK    2  A    between atoms: C_2  and  N_56
REMARK    3  A    between atoms: C_3  and  C_4
REMARK    4  A    between atoms: C_3  and  N_56
REMARK    5  A    between atoms: C_4  and  N_5
REMARK    6  A    between atoms: C_11  and  N_15
REMARK    7  A    between atoms: C_18  and  C_20
REMARK    8  A    between atoms: N_25  and  S_26
REMARK    9  A    between atoms: S_26  and  C_29
REMARK                            x       y       z     vdW  Elec       q    Type
REMARK                         _______ _______ _______ _____ _____    ______ ____
ROOT
ATOM      1  N   UNL     1      -0.438   3.372   1.036  0.00  0.00    -0.251 N 
ATOM      2  C   UNL     1      -1.275   4.146   0.248  0.00  0.00    +0.168 A 
ATOM      3  N   UNL     1      -2.225   3.760  -0.570  0.00  0.00    -0.224 NA
ATOM      4  C   UNL     1      -2.970   4.634  -1.282  0.00  0.00    +0.080 A 
ATOM      5  C   UNL     1      -4.016   4.352  -2.191  0.00  0.00    +0.031 A 
ATOM      6  C   UNL     1      -4.675   5.365  -2.836  0.00  0.00    +0.035 A 
ATOM      7  C   UNL     1      -4.345   6.696  -2.623  0.00  0.00    +0.127 A 
ATOM      8  C   UNL     1      -3.327   7.008  -1.740  0.00  0.00    +0.050 A 
ATOM      9  C   UNL     1      -2.661   6.000  -1.090  0.00  0.00    +0.043 A 
ATOM     10  S   UNL     1      -1.340   5.926   0.095  0.00  0.00    -0.052 S 
ATOM     11  C   UNL     1       0.574   3.949   1.714  0.00  0.00    +0.240 C 
ATOM     12  O   UNL     1       1.244   3.289   2.480  0.00  0.00    -0.273 OA
ENDROOT
BRANCH  11  13
ATOM     13  C   UNL     1       0.873   5.413   1.519  0.00  0.00    +0.166 C 
ATOM     14  C   UNL     1      -0.007   6.258   2.463  0.00  0.00    +0.031 C 
ATOM     15  C   UNL     1       0.942   6.530   3.666  0.00  0.00    +0.019 C 
ATOM     16  C   UNL     1       2.311   6.675   2.955  0.00  0.00    +0.110 C 
ATOM     17  N   UNL     1       2.276   5.686   1.863  0.00  0.00    -0.164 NA
BRANCH  17  18
ATOM     18  S   UNL     1       3.599   4.998   1.142  0.00  0.00    +0.068 S 
ATOM     19  O   UNL     1       4.661   5.077   2.082  0.00  0.00    -0.152 OA
ATOM     20  O   UNL     1       3.163   3.764   0.587  0.00  0.00    -0.152 OA
BRANCH  18  21
ATOM     21  C   UNL     1       4.048   6.029  -0.214  0.00  0.00    +0.143 A 
ATOM     22  C   UNL     1       4.895   7.087  -0.238  0.00  0.00    +0.036 A 
ATOM     23  C   UNL     1       5.102   7.753  -1.431  0.00  0.00    +0.010 A 
ATOM     24  C   UNL     1       4.443   7.336  -2.540  0.00  0.00    +0.047 A 
ATOM     25  S   UNL     1       3.500   5.956  -1.912  0.00  0.00    -0.077 S 
ENDBRANCH  18  21
ENDBRANCH  17  18
ENDBRANCH  11  13
BRANCH   7  26
ATOM     26  N   UNL     1      -5.074   7.771  -3.333  0.00  0.00    +0.056 N 
ATOM     27  O   UNL     1      -5.970   7.488  -4.109  0.00  0.00    -0.126 OA
ATOM     28  O   UNL     1      -4.779   8.937  -3.142  0.00  0.00    -0.126 OA
ENDBRANCH   7  26
BRANCH   1  29
ATOM     29  C   UNL     1      -0.654   1.926   1.132  0.00  0.00    +0.097 C 
BRANCH  29  30
ATOM     30  C   UNL     1       0.231   1.209   0.110  0.00  0.00    -0.060 C 
BRANCH  30  33
ATOM     31  C   UNL     1      -1.247  -0.703  -0.039  0.00  0.00    -0.097 C 
ATOM     32  C   UNL     1       1.114  -0.959  -0.507  0.00  0.00    -0.097 C 
ATOM     33  N   UNL     1       0.114  -0.249   0.318  0.00  0.00    +0.377 N 
ATOM     34  H   UNL     1       0.287  -0.460   1.308  0.00  0.00    -0.083 HD
ENDBRANCH  30  33
ENDBRANCH  29  30
ENDBRANCH   1  29
TORSDOF 7
