REMARK  Name = ZINC64890158
REMARK  6 active torsions:
REMARK  status: ('A' for Active; 'I' for Inactive)
REMARK    1  A    between atoms: C_1  and  C_2
REMARK    2  A    between atoms: C_2  and  C_3
REMARK    3  A    between atoms: C_10  and  S_15
REMARK    4  A    between atoms: S_15  and  N_18
REMARK    5  A    between atoms: C_24  and  C_26
REMARK    6  A    between atoms: C_29  and  C_32
REMARK                            x       y       z     vdW  Elec       q    Type
REMARK                         _______ _______ _______ _____ _____    ______ ____
ROOT
ATOM      1  S   UNL     1      -6.061  -3.659   4.162  0.00  0.00    +0.061 S 
ATOM      2  O   UNL     1      -7.027  -2.659   4.455  0.00  0.00    -0.153 OA
ATOM      3  O   UNL     1      -6.376  -4.826   3.415  0.00  0.00    -0.153 OA
ENDROOT
BRANCH   1  10
ATOM      4  C   UNL     1      -1.253  -1.495   0.078  0.00  0.00    +0.259 C 
ATOM      5  C   UNL     1      -1.192  -3.000   0.142  0.00  0.00    +0.258 C 
ATOM      6  O   UNL     1      -0.383  -3.606  -0.528  0.00  0.00    -0.271 OA
ATOM      7  N   UNL     1      -2.042  -3.671   0.948  0.00  0.00    -0.279 N 
ATOM      8  C   UNL     1      -2.882  -2.950   1.807  0.00  0.00    +0.078 A 
ATOM      9  C   UNL     1      -3.917  -3.583   2.476  0.00  0.00    +0.055 A 
ATOM     10  C   UNL     1      -4.745  -2.855   3.310  0.00  0.00    +0.107 A 
ATOM     11  C   UNL     1      -4.544  -1.497   3.477  0.00  0.00    +0.032 A 
ATOM     12  C   UNL     1      -3.510  -0.860   2.816  0.00  0.00    +0.049 A 
ATOM     13  C   UNL     1      -2.673  -1.584   1.984  0.00  0.00    +0.143 A 
ATOM     14  O   UNL     1      -1.634  -0.975   1.353  0.00  0.00    -0.478 OA
ATOM     15  H   UNL     1      -2.071  -4.640   0.932  0.00  0.00    +0.155 HD
BRANCH   4  17
ATOM     16  C   UNL     1      -2.254   0.450  -1.129  0.00  0.00    +0.008 C 
ATOM     17  C   UNL     1      -2.282  -1.071  -0.972  0.00  0.00    +0.051 C 
ENDBRANCH   4  17
ENDBRANCH   1  10
BRANCH   1  18
ATOM     18  N   UNL     1      -5.459  -4.176   5.616  0.00  0.00    -0.174 NA
ATOM     19  C   UNL     1      -4.851  -5.508   5.743  0.00  0.00    +0.128 C 
ATOM     20  C   UNL     1      -3.435  -5.348   6.310  0.00  0.00    +0.125 C 
ATOM     21  N   UNL     1      -3.499  -4.482   7.496  0.00  0.00    -0.295 N 
ATOM     22  C   UNL     1      -4.107  -3.151   7.369  0.00  0.00    +0.125 C 
ATOM     23  C   UNL     1      -5.519  -3.308   6.801  0.00  0.00    +0.128 C 
ATOM     24  C   UNL     1      -3.010  -4.903   8.679  0.00  0.00    +0.247 C 
ATOM     25  O   UNL     1      -3.005  -4.154   9.636  0.00  0.00    -0.270 OA
BRANCH  24  26
ATOM     26  C   UNL     1      -2.477  -6.276   8.813  0.00  0.00    +0.037 A 
ATOM     27  C   UNL     1      -1.527  -6.751   7.907  0.00  0.00    +0.013 A 
ATOM     28  C   UNL     1      -1.034  -8.033   8.038  0.00  0.00    +0.004 A 
ATOM     29  C   UNL     1      -1.480  -8.847   9.064  0.00  0.00    -0.050 A 
ATOM     30  C   UNL     1      -2.422  -8.383   9.965  0.00  0.00    +0.004 A 
ATOM     31  C   UNL     1      -2.918  -7.101   9.849  0.00  0.00    +0.013 A 
ATOM     32  C   UNL     1      -0.938 -10.246   9.200  0.00  0.00    +0.044 C 
ENDBRANCH  24  26
ENDBRANCH   1  18
TORSDOF 4
