REMARK  Name = ZINC27527965
REMARK  9 active torsions:
REMARK  status: ('A' for Active; 'I' for Inactive)
REMARK    1  A    between atoms: C_1  and  N_2
REMARK    2  A    between atoms: N_2  and  C_3
REMARK    3  A    between atoms: N_2  and  C_33
REMARK    4  A    between atoms: C_3  and  C_4
REMARK    5  A    between atoms: C_4  and  C_6
REMARK    6  A    between atoms: C_4  and  O_32
REMARK    7  A    between atoms: C_6  and  N_7
REMARK    8  A    between atoms: C_18  and  C_26
REMARK    9  A    between atoms: C_19  and  C_20
REMARK                            x       y       z     vdW  Elec       q    Type
REMARK                         _______ _______ _______ _____ _____    ______ ____
ROOT
ATOM      1  N   UNL     1      -1.871  -2.012  -0.801  0.00  0.00    -0.336 N 
ATOM      2  C   UNL     1      -1.999  -1.164   0.272  0.00  0.00    +0.058 A 
ATOM      3  C   UNL     1      -1.128  -0.812   1.328  0.00  0.00    +0.006 A 
ATOM      4  C   UNL     1       0.157  -1.366   1.422  0.00  0.00    +0.010 A 
ATOM      5  C   UNL     1       0.973  -1.007   2.453  0.00  0.00    +0.001 A 
ATOM      6  C   UNL     1       0.549  -0.095   3.415  0.00  0.00    +0.001 A 
ATOM      7  C   UNL     1      -0.693   0.462   3.353  0.00  0.00    +0.008 A 
ATOM      8  C   UNL     1      -1.561   0.115   2.306  0.00  0.00    -0.016 A 
ATOM      9  C   UNL     1      -2.854   0.673   2.222  0.00  0.00    +0.009 A 
ATOM     10  C   UNL     1      -3.680   0.333   1.204  0.00  0.00    +0.011 A 
ATOM     11  C   UNL     1      -3.271  -0.586   0.220  0.00  0.00    +0.009 A 
ATOM     12  C   UNL     1      -3.928  -1.141  -0.972  0.00  0.00    +0.015 A 
ATOM     13  C   UNL     1      -3.020  -2.005  -1.550  0.00  0.00    +0.058 A 
ENDROOT
BRANCH  13  14
ATOM     14  C   UNL     1      -3.249  -2.794  -2.777  0.00  0.00    -0.001 A 
ATOM     15  C   UNL     1      -4.355  -3.641  -2.871  0.00  0.00    +0.010 A 
ATOM     16  C   UNL     1      -4.565  -4.371  -4.022  0.00  0.00    +0.001 A 
ATOM     17  C   UNL     1      -3.678  -4.273  -5.079  0.00  0.00    +0.000 A 
ATOM     18  C   UNL     1      -2.576  -3.439  -4.992  0.00  0.00    +0.001 A 
ATOM     19  C   UNL     1      -2.357  -2.700  -3.848  0.00  0.00    +0.010 A 
ENDBRANCH  13  14
BRANCH  12  20
ATOM     20  C   UNL     1      -5.293  -0.834  -1.455  0.00  0.00    -0.015 A 
ATOM     21  C   UNL     1      -6.404  -1.206  -0.699  0.00  0.00    +0.008 A 
ATOM     22  C   UNL     1      -7.674  -0.913  -1.153  0.00  0.00    +0.001 A 
ATOM     23  C   UNL     1      -7.846  -0.261  -2.361  0.00  0.00    +0.000 A 
ATOM     24  C   UNL     1      -6.748   0.106  -3.119  0.00  0.00    +0.001 A 
ATOM     25  C   UNL     1      -5.473  -0.177  -2.673  0.00  0.00    +0.008 A 
ENDBRANCH  12  20
BRANCH   1  26
ATOM     26  C   UNL     1      -0.679  -2.810  -1.101  0.00  0.00    +0.151 C 
BRANCH  26  27
ATOM     27  C   UNL     1      -0.718  -4.108  -0.292  0.00  0.00    +0.118 C 
BRANCH  27  28
ATOM     28  O   UNL     1      -1.823  -4.904  -0.722  0.00  0.00    -0.392 OA
ATOM     29  H   UNL     1      -2.848  -4.512  -0.642  0.00  0.00    +0.210 HD
ENDBRANCH  27  28
BRANCH  27  30
ATOM     30  C   UNL     1       0.584  -4.883  -0.510  0.00  0.00    -0.045 C 
BRANCH  30  32
ATOM     31  C   UNL     1       1.581  -7.066  -0.191  0.00  0.00    -0.096 C 
ATOM     32  N   UNL     1       0.549  -6.127   0.269  0.00  0.00    +0.381 N 
ATOM     33  H   UNL     1      -0.432  -6.599   0.109  0.00  0.00    -0.082 HD
BRANCH  32  34
ATOM     34  C   UNL     1       0.689  -5.854   1.706  0.00  0.00    -0.069 C 
ATOM     35  C   UNL     1       2.075  -5.265   1.980  0.00  0.00    -0.015 C 
ATOM     36  C   UNL     1       2.221  -4.980   3.476  0.00  0.00    -0.002 C 
ATOM     37  C   UNL     1       2.055  -6.282   4.262  0.00  0.00    -0.000 C 
ATOM     38  C   UNL     1       0.670  -6.870   3.988  0.00  0.00    -0.002 C 
ATOM     39  C   UNL     1       0.524  -7.156   2.492  0.00  0.00    -0.015 C 
ENDBRANCH  32  34
ENDBRANCH  30  32
ENDBRANCH  27  30
ENDBRANCH  26  27
ENDBRANCH   1  26
TORSDOF 8
