REMARK  Name = ZINC40008520
REMARK  17 active torsions:
REMARK  status: ('A' for Active; 'I' for Inactive)
REMARK    1  A    between atoms: C_1  and  C_2
REMARK    2  A    between atoms: C_2  and  C_3
REMARK    3  A    between atoms: C_3  and  C_4
REMARK    4  A    between atoms: C_4  and  N_5
REMARK    5  A    between atoms: N_5  and  C_6
REMARK    6  A    between atoms: N_5  and  C_10
REMARK    7  A    between atoms: C_6  and  C_7
REMARK    8  A    between atoms: C_7  and  C_8
REMARK    9  A    between atoms: C_8  and  C_9
REMARK   10  A    between atoms: C_10  and  C_11
REMARK   11  A    between atoms: C_11  and  C_12
REMARK   12  A    between atoms: C_12  and  N_13
REMARK   13  A    between atoms: C_14  and  C_30
REMARK   14  A    between atoms: C_21  and  C_29
REMARK   15  A    between atoms: C_33  and  O_36
REMARK   16  A    between atoms: O_36  and  C_37
REMARK   17  A    between atoms: C_37  and  C_38
REMARK                            x       y       z     vdW  Elec       q    Type
REMARK                         _______ _______ _______ _____ _____    ______ ____
ROOT
ATOM      1  N   UNL     1      -5.701  -6.706   0.108  0.00  0.00    -0.284 N 
ATOM      2  C   UNL     1      -6.669  -6.853   1.208  0.00  0.00    +0.144 C 
ATOM      3  C   UNL     1      -7.911  -7.404   0.587  0.00  0.00    +0.072 A 
ATOM      4  C   UNL     1      -9.205  -7.768   1.174  0.00  0.00    +0.199 A 
ATOM      5  O   UNL     1      -9.518  -7.495   2.319  0.00  0.00    -0.287 OA
ATOM      6  C   UNL     1     -10.096  -8.499   0.239  0.00  0.00    +0.065 A 
ATOM      7  C   UNL     1     -11.274  -9.087   0.700  0.00  0.00    +0.018 A 
ATOM      8  C   UNL     1     -12.082  -9.762  -0.173  0.00  0.00    -0.050 A 
ATOM      9  C   UNL     1     -11.732  -9.863  -1.512  0.00  0.00    +0.007 A 
ATOM     10  C   UNL     1     -10.575  -9.288  -1.985  0.00  0.00    +0.047 A 
ATOM     11  C   UNL     1      -9.735  -8.592  -1.115  0.00  0.00    +0.139 A 
ATOM     12  O   UNL     1      -8.607  -8.027  -1.602  0.00  0.00    -0.450 OA
ATOM     13  C   UNL     1      -7.676  -7.553  -0.750  0.00  0.00    +0.199 A 
ATOM     14  C   UNL     1      -6.299  -7.112  -1.030  0.00  0.00    +0.283 C 
ATOM     15  O   UNL     1      -5.777  -7.116  -2.127  0.00  0.00    -0.267 OA
ATOM     16  C   UNL     1     -13.355 -10.398   0.322  0.00  0.00    +0.044 C 
ENDROOT
BRANCH   2  17
ATOM     17  C   UNL     1      -6.950  -5.512   1.835  0.00  0.00    -0.022 A 
ATOM     18  C   UNL     1      -7.085  -4.391   1.037  0.00  0.00    +0.009 A 
ATOM     19  C   UNL     1      -7.342  -3.160   1.610  0.00  0.00    +0.046 A 
ATOM     20  C   UNL     1      -7.467  -3.050   2.987  0.00  0.00    +0.121 A 
ATOM     21  C   UNL     1      -7.332  -4.176   3.786  0.00  0.00    +0.046 A 
ATOM     22  C   UNL     1      -7.080  -5.405   3.208  0.00  0.00    +0.009 A 
BRANCH  20  23
ATOM     23  O   UNL     1      -7.720  -1.840   3.553  0.00  0.00    -0.483 OA
BRANCH  23  24
ATOM     24  C   UNL     1      -7.835  -1.802   4.976  0.00  0.00    +0.324 C 
BRANCH  24  25
ATOM     25  C   UNL     1      -8.114  -0.388   5.420  0.00  0.00    +0.248 C 
ATOM     26  O   UNL     1      -8.205   0.498   4.597  0.00  0.00    -0.272 OA
ATOM     27  N   UNL     1      -8.263  -0.110   6.730  0.00  0.00    -0.327 N 
ATOM     28  H   UNL     1      -8.190  -0.819   7.388  0.00  0.00    +0.145 HD
ATOM     29  H   UNL     1      -8.442   0.800   7.015  0.00  0.00    +0.145 HD
ENDBRANCH  24  25
ENDBRANCH  23  24
ENDBRANCH  20  23
ENDBRANCH   2  17
BRANCH   1  30
ATOM     30  C   UNL     1      -4.332  -6.201   0.229  0.00  0.00    +0.107 C 
BRANCH  30  31
ATOM     31  C   UNL     1      -4.329  -4.683   0.040  0.00  0.00    +0.000 C 
BRANCH  31  32
ATOM     32  C   UNL     1      -2.899  -4.155   0.166  0.00  0.00    -0.077 C 
BRANCH  32  33
ATOM     33  N   UNL     1      -2.878  -2.718  -0.137  0.00  0.00    +0.380 N 
ATOM     34  H   UNL     1      -3.289  -2.560  -1.045  0.00  0.00    -0.082 HD
BRANCH  33  35
ATOM     35  C   UNL     1      -3.648  -1.991   0.881  0.00  0.00    -0.079 C 
BRANCH  35  36
ATOM     36  C   UNL     1      -3.732  -0.512   0.499  0.00  0.00    -0.019 C 
BRANCH  36  38
ATOM     37  C   UNL     1      -4.618   1.723   1.177  0.00  0.00    +0.004 C 
ATOM     38  C   UNL     1      -4.534   0.244   1.560  0.00  0.00    -0.005 C 
ENDBRANCH  36  38
ENDBRANCH  35  36
ENDBRANCH  33  35
BRANCH  33  39
ATOM     39  C   UNL     1      -1.490  -2.237  -0.137  0.00  0.00    -0.079 C 
BRANCH  39  40
ATOM     40  C   UNL     1      -0.729  -2.877  -1.300  0.00  0.00    -0.019 C 
BRANCH  40  41
ATOM     41  C   UNL     1       0.736  -2.435  -1.255  0.00  0.00    -0.005 C 
ATOM     42  C   UNL     1       1.497  -3.075  -2.417  0.00  0.00    +0.004 C 
ENDBRANCH  40  41
ENDBRANCH  39  40
ENDBRANCH  33  39
ENDBRANCH  32  33
ENDBRANCH  31  32
ENDBRANCH  30  31
ENDBRANCH   1  30
TORSDOF 14
