REMARK  Name = ZINC19960076
REMARK  4 active torsions:
REMARK  status: ('A' for Active; 'I' for Inactive)
REMARK    1  A    between atoms: C_1  and  S_2
REMARK    2  A    between atoms: S_2  and  C_3
REMARK    3  A    between atoms: C_8  and  C_24
REMARK    4  A    between atoms: C_14  and  C_19
REMARK                            x       y       z     vdW  Elec       q    Type
REMARK                         _______ _______ _______ _____ _____    ______ ____
ROOT
ATOM      1  C   UNL     1      -1.702  -0.454   0.016  0.00  0.00    +0.210 A 
ATOM      2  N   UNL     1      -2.733   0.404   0.025  0.00  0.00    -0.187 NA
ATOM      3  C   UNL     1      -3.854  -0.264   0.036  0.00  0.00    +0.219 A 
ATOM      4  N   UNL     1      -3.558  -1.587   0.029  0.00  0.00    -0.219 N 
ATOM      5  N   UNL     1      -2.167  -1.684   0.014  0.00  0.00    -0.141 NA
ATOM      6  C   UNL     1      -4.570  -2.636   0.028  0.00  0.00    +0.182 C 
ATOM      7  C   UNL     1      -5.921  -2.052   0.378  0.00  0.00    +0.041 C 
ATOM      8  C   UNL     1      -6.152  -0.721   0.367  0.00  0.00    +0.020 C 
ATOM      9  N   UNL     1      -5.165   0.183   0.054  0.00  0.00    -0.287 N 
ATOM     10  C   UNL     1      -7.518  -0.169   0.697  0.00  0.00    +0.063 C 
ATOM     11  C   UNL     1      -8.211  -1.083   1.711  0.00  0.00    +0.068 C 
ATOM     12  C   UNL     1      -8.315  -2.485   1.103  0.00  0.00    +0.091 C 
ATOM     13  C   UNL     1      -6.940  -2.958   0.723  0.00  0.00    +0.164 C 
ATOM     14  O   UNL     1      -6.703  -4.150   0.714  0.00  0.00    -0.292 OA
ATOM     15  H   UNL     1      -5.381   1.107  -0.148  0.00  0.00    +0.155 HD
ENDROOT
BRANCH  11  16
ATOM     16  C   UNL     1      -9.590  -0.554   2.011  0.00  0.00    +0.109 A 
ATOM     17  C   UNL     1     -10.039  -0.170   3.220  0.00  0.00    +0.045 A 
ATOM     18  C   UNL     1     -11.376   0.253   3.044  0.00  0.00    +0.041 A 
ATOM     19  C   UNL     1     -11.665   0.102   1.739  0.00  0.00    +0.195 A 
ATOM     20  O   UNL     1     -10.577  -0.382   1.117  0.00  0.00    -0.468 OA
ENDBRANCH  11  16
BRANCH   6  21
ATOM     21  C   UNL     1      -4.638  -3.264  -1.340  0.00  0.00    +0.019 A 
ATOM     22  C   UNL     1      -4.431  -4.554  -1.699  0.00  0.00    +0.013 A 
ATOM     23  C   UNL     1      -4.550  -4.908  -3.030  0.00  0.00    +0.008 A 
ATOM     24  C   UNL     1      -4.871  -3.954  -3.937  0.00  0.00    +0.045 A 
ATOM     25  S   UNL     1      -5.022  -2.502  -2.909  0.00  0.00    -0.099 S 
ENDBRANCH   6  21
BRANCH   1  27
ATOM     26  C   UNL     1      -0.022   1.810   0.012  0.00  0.00    +0.093 C 
ATOM     27  S   UNL     1       0.002  -0.004   0.002  0.00  0.00    -0.088 S 
ENDBRANCH   1  27
TORSDOF 3
