REMARK  Name = ZINC39411806
REMARK  5 active torsions:
REMARK  status: ('A' for Active; 'I' for Inactive)
REMARK    1  A    between atoms: C_1  and  C_2
REMARK    2  A    between atoms: C_5  and  N_8
REMARK    3  A    between atoms: C_9  and  C_11
REMARK    4  A    between atoms: C_11  and  N_12
REMARK    5  A    between atoms: C_16  and  C_17
REMARK                            x       y       z     vdW  Elec       q    Type
REMARK                         _______ _______ _______ _____ _____    ______ ____
ROOT
ATOM      1  N   UNL     1       0.420  -6.845   2.495  0.00  0.00    -0.219 N 
ATOM      2  C   UNL     1       1.617  -6.956   3.047  0.00  0.00    +0.261 C 
ATOM      3  O   UNL     1       2.630  -6.657   2.445  0.00  0.00    -0.269 OA
ATOM      4  C   UNL     1       1.656  -7.464   4.442  0.00  0.00    +0.080 C 
ATOM      5  C   UNL     1       2.738  -7.684   5.268  0.00  0.00    +0.026 C 
ATOM      6  S   UNL     1      -0.086  -7.712   4.756  0.00  0.00    -0.026 S 
ATOM      7  C   UNL     1      -0.701  -7.171   3.170  0.00  0.00    +0.286 C 
ATOM      8  O   UNL     1      -1.854  -7.114   2.788  0.00  0.00    -0.262 OA
ENDROOT
BRANCH   5   9
ATOM      9  C   UNL     1       2.542  -8.174   6.563  0.00  0.00    -0.018 C 
ATOM     10  C   UNL     1       3.519  -8.443   7.519  0.00  0.00    +0.003 A 
ATOM     11  C   UNL     1       4.925  -8.323   7.508  0.00  0.00    +0.010 A 
ATOM     12  C   UNL     1       5.639  -8.668   8.609  0.00  0.00    +0.001 A 
ATOM     13  C   UNL     1       5.017  -9.143   9.768  0.00  0.00    +0.002 A 
ATOM     14  C   UNL     1       3.673  -9.284   9.852  0.00  0.00    +0.026 A 
ATOM     15  C   UNL     1       2.856  -8.944   8.738  0.00  0.00    +0.043 A 
ATOM     16  N   UNL     1       1.554  -8.989   8.569  0.00  0.00    -0.380 N 
ATOM     17  C   UNL     1       1.224  -8.516   7.221  0.00  0.00    +0.149 C 
ATOM     18  H   UNL     1       0.912  -9.284   9.233  0.00  0.00    +0.160 HD
ENDBRANCH   5   9
BRANCH   1  19
ATOM     19  C   UNL     1       0.309  -6.349   1.121  0.00  0.00    +0.213 C 
BRANCH  19  21
ATOM     20  N   UNL     1       0.059  -4.170  -0.021  0.00  0.00    -0.284 N 
ATOM     21  C   UNL     1       0.175  -4.848   1.138  0.00  0.00    +0.235 C 
ATOM     22  O   UNL     1       0.173  -4.251   2.193  0.00  0.00    -0.274 OA
ATOM     23  H   UNL     1      -0.017  -4.651  -0.860  0.00  0.00    +0.155 HD
BRANCH  20  28
ATOM     24  C   UNL     1       0.008   1.503   0.007  0.00  0.00    +0.044 C 
ATOM     25  C   UNL     1       0.022  -0.004  -0.001  0.00  0.00    -0.050 A 
ATOM     26  C   UNL     1       0.777  -0.692   0.931  0.00  0.00    +0.005 A 
ATOM     27  C   UNL     1       0.791  -2.073   0.927  0.00  0.00    +0.023 A 
ATOM     28  C   UNL     1       0.046  -2.771  -0.014  0.00  0.00    +0.033 A 
ATOM     29  C   UNL     1      -0.712  -2.077  -0.948  0.00  0.00    +0.023 A 
ATOM     30  C   UNL     1      -0.726  -0.696  -0.936  0.00  0.00    +0.005 A 
ENDBRANCH  20  28
ENDBRANCH  19  21
ENDBRANCH   1  19
TORSDOF 4
