REMARK  Name = ZINC12909054
REMARK  4 active torsions:
REMARK  status: ('A' for Active; 'I' for Inactive)
REMARK    1  A    between atoms: C_1  and  C_2
REMARK    2  A    between atoms: C_4  and  C_25
REMARK    3  A    between atoms: C_6  and  C_8
REMARK    4  A    between atoms: C_8  and  N_9
REMARK                            x       y       z     vdW  Elec       q    Type
REMARK                         _______ _______ _______ _____ _____    ______ ____
ROOT
ATOM      1  N   UNL     1       2.903   0.816  -1.402  0.00  0.00    -0.220 N 
ATOM      2  C   UNL     1       3.662   1.670  -2.120  0.00  0.00    +0.252 C 
ATOM      3  O   UNL     1       4.114   2.734  -1.755  0.00  0.00    -0.272 OA
ATOM      4  C   UNL     1       3.830   1.020  -3.474  0.00  0.00    +0.144 C 
ATOM      5  C   UNL     1       5.304   0.744  -3.752  0.00  0.00    +0.081 C 
ATOM      6  C   UNL     1       5.984   2.072  -4.111  0.00  0.00    +0.232 C 
ATOM      7  O   UNL     1       5.406   2.564  -5.320  0.00  0.00    -0.492 OA
ATOM      8  C   UNL     1       4.051   2.615  -5.407  0.00  0.00    +0.126 A 
ATOM      9  C   UNL     1       3.240   1.890  -4.548  0.00  0.00    +0.027 A 
ATOM     10  C   UNL     1       1.864   1.965  -4.676  0.00  0.00    +0.010 A 
ATOM     11  C   UNL     1       1.296   2.760  -5.652  0.00  0.00    +0.001 A 
ATOM     12  C   UNL     1       2.102   3.487  -6.508  0.00  0.00    +0.004 A 
ATOM     13  C   UNL     1       3.475   3.415  -6.388  0.00  0.00    +0.046 A 
ATOM     14  N   UNL     1       3.082  -0.238  -3.361  0.00  0.00    -0.281 N 
ATOM     15  C   UNL     1       2.580  -0.272  -2.112  0.00  0.00    +0.310 C 
ATOM     16  O   UNL     1       1.906  -1.186  -1.679  0.00  0.00    -0.252 OA
ATOM     17  H   UNL     1       2.974  -0.913  -4.049  0.00  0.00    +0.152 HD
ENDROOT
BRANCH   1  18
ATOM     18  C   UNL     1       2.490   1.048  -0.016  0.00  0.00    +0.153 C 
BRANCH  18  24
ATOM     19  C   UNL     1      -0.070   5.347   0.030  0.00  0.00    +0.044 C 
ATOM     20  C   UNL     1      -0.050   3.840   0.022  0.00  0.00    -0.050 A 
ATOM     21  C   UNL     1      -1.238   3.133   0.029  0.00  0.00    +0.006 A 
ATOM     22  C   UNL     1      -1.219   1.751   0.017  0.00  0.00    -0.050 A 
ATOM     23  C   UNL     1      -0.013   1.076   0.008  0.00  0.00    +0.008 A 
ATOM     24  C   UNL     1       1.175   1.783   0.000  0.00  0.00    -0.029 A 
ATOM     25  C   UNL     1       1.156   3.165   0.008  0.00  0.00    +0.008 A 
ATOM     26  C   UNL     1      -2.514   0.980   0.019  0.00  0.00    +0.044 C 
ENDBRANCH  18  24
ENDBRANCH   1  18
TORSDOF 2
