REMARK  Name = ZINC14456709
REMARK  6 active torsions:
REMARK  status: ('A' for Active; 'I' for Inactive)
REMARK    1  A    between atoms: C_1  and  C_2
REMARK    2  A    between atoms: C_5  and  C_7
REMARK    3  A    between atoms: C_18  and  O_23
REMARK    4  A    between atoms: O_23  and  C_24
REMARK    5  A    between atoms: C_24  and  C_25
REMARK    6  A    between atoms: C_24  and  C_26
REMARK                            x       y       z     vdW  Elec       q    Type
REMARK                         _______ _______ _______ _____ _____    ______ ____
ROOT
ATOM      1  C   UNL     1      -5.142  -1.557   4.631  0.00  0.00    +0.111 C 
ATOM      2  C   UNL     1      -5.365  -0.056   4.572  0.00  0.00    +0.029 C 
ATOM      3  C   UNL     1      -5.988   0.627   5.798  0.00  0.00    +0.033 C 
ATOM      4  C   UNL     1      -5.387   2.031   5.707  0.00  0.00    -0.030 C 
ATOM      5  C   UNL     1      -4.253   1.988   5.041  0.00  0.00    -0.023 C 
ATOM      6  C   UNL     1      -3.946   0.579   4.685  0.00  0.00    +0.049 C 
ATOM      7  C   UNL     1      -3.193   0.227   3.462  0.00  0.00    -0.016 A 
ATOM      8  C   UNL     1      -2.277   1.081   2.887  0.00  0.00    +0.051 A 
ATOM      9  C   UNL     1      -1.582   0.699   1.750  0.00  0.00    +0.121 A 
ATOM     10  C   UNL     1      -1.811  -0.548   1.187  0.00  0.00    +0.047 A 
ATOM     11  C   UNL     1      -2.724  -1.409   1.761  0.00  0.00    +0.027 A 
ATOM     12  C   UNL     1      -3.431  -1.030   2.896  0.00  0.00    +0.032 A 
ATOM     13  N   UNL     1      -4.381  -1.895   3.409  0.00  0.00    -0.336 N 
ATOM     14  H   UNL     1      -4.534  -2.747   2.972  0.00  0.00    +0.147 HD
ENDROOT
BRANCH   1  19
ATOM     15  C   UNL     1      -1.361  -2.626   8.711  0.00  0.00    +0.051 C 
ATOM     16  C   UNL     1      -2.545  -2.427   7.800  0.00  0.00    -0.013 A 
ATOM     17  C   UNL     1      -3.857  -2.669   8.040  0.00  0.00    +0.011 A 
ATOM     18  C   UNL     1      -4.779  -2.408   7.045  0.00  0.00    +0.013 A 
ATOM     19  C   UNL     1      -4.345  -1.917   5.858  0.00  0.00    +0.010 A 
ATOM     20  S   UNL     1      -2.582  -1.817   6.123  0.00  0.00    -0.097 S 
ENDBRANCH   1  19
BRANCH   9  21
ATOM     21  O   UNL     1      -0.682   1.547   1.184  0.00  0.00    -0.489 OA
BRANCH  21  22
ATOM     22  C   UNL     1      -0.588   2.859   1.740  0.00  0.00    +0.167 C 
ATOM     23  C   UNL     1      -0.055   3.826   0.681  0.00  0.00    +0.051 C 
ATOM     24  C   UNL     1       0.365   2.839   2.937  0.00  0.00    +0.051 C 
ENDBRANCH  21  22
ENDBRANCH   9  21
TORSDOF 3
