REMARK  Name = ZINC36788803
REMARK  10 active torsions:
REMARK  status: ('A' for Active; 'I' for Inactive)
REMARK    1  A    between atoms: C_1  and  C_2
REMARK    2  A    between atoms: C_2  and  C_3
REMARK    3  A    between atoms: C_3  and  C_4
REMARK    4  A    between atoms: C_3  and  N_6
REMARK    5  A    between atoms: C_4  and  C_5
REMARK    6  A    between atoms: N_6  and  C_7
REMARK    7  A    between atoms: N_6  and  C_8
REMARK    8  A    between atoms: C_8  and  C_10
REMARK    9  A    between atoms: C_8  and  C_12
REMARK   10  A    between atoms: C_10  and  N_11
REMARK                            x       y       z     vdW  Elec       q    Type
REMARK                         _______ _______ _______ _____ _____    ______ ____
ROOT
ATOM      1  C   UNL     1       1.901   1.237   0.997  0.00  0.00    -0.055 C 
ENDROOT
BRANCH   1   2
ATOM      2  C   UNL     1       3.151   2.024   0.699  0.00  0.00    -0.058 A 
ATOM      3  C   UNL     1       3.371   3.234   1.330  0.00  0.00    +0.051 A 
ATOM      4  C   UNL     1       4.520   3.961   1.058  0.00  0.00    +0.164 A 
ATOM      5  C   UNL     1       5.452   3.468   0.152  0.00  0.00    +0.180 A 
ATOM      6  C   UNL     1       5.225   2.253  -0.479  0.00  0.00    +0.086 A 
ATOM      7  C   UNL     1       4.078   1.532  -0.200  0.00  0.00    +0.026 A 
ATOM      8 CL   UNL     1       6.383   1.636  -1.614  0.00  0.00    -0.080 Cl
ATOM      9  O   UNL     1       6.591   4.161  -0.123  0.00  0.00    -0.483 OA
ATOM     10  C   UNL     1       6.606   5.545   0.245  0.00  0.00    +0.270 C 
ATOM     11  C   UNL     1       6.056   5.670   1.672  0.00  0.00    +0.270 C 
ATOM     12  O   UNL     1       4.721   5.153   1.684  0.00  0.00    -0.485 OA
ENDBRANCH   1   2
BRANCH   1  13
ATOM     13  N   UNL     1       2.259  -0.005   1.695  0.00  0.00    +0.383 N 
ATOM     14  C   UNL     1       3.652  -0.356   1.387  0.00  0.00    -0.095 C 
ATOM     15  H   UNL     1       1.649  -0.750   1.391  0.00  0.00    -0.081 HD
BRANCH  13  16
ATOM     16  C   UNL     1       2.111   0.187   3.144  0.00  0.00    -0.069 C 
BRANCH  16  18
ATOM     17  C   UNL     1       4.121   1.667   3.258  0.00  0.00    +0.002 C 
ATOM     18  C   UNL     1       2.618   1.579   3.528  0.00  0.00    -0.019 C 
ENDBRANCH  16  18
BRANCH  16  19
ATOM     19  C   UNL     1       0.636   0.057   3.528  0.00  0.00    -0.019 C 
ATOM     20  C   UNL     1       0.136  -1.343   3.166  0.00  0.00    +0.002 C 
ENDBRANCH  16  19
ENDBRANCH  13  16
ENDBRANCH   1  13
BRANCH   1  21
ATOM     21  C   UNL     1       1.187   0.898  -0.313  0.00  0.00    -0.098 C 
BRANCH  21  22
ATOM     22  N   UNL     1      -0.024   0.118  -0.023  0.00  0.00    +0.377 N 
ATOM     23  H   UNL     1      -0.455  -0.168  -0.890  0.00  0.00    -0.090 HD
ATOM     24  H   UNL     1       0.223  -0.699   0.514  0.00  0.00    -0.090 HD
ATOM     25  H   UNL     1      -0.671   0.684   0.504  0.00  0.00    -0.090 HD
ENDBRANCH  21  22
ENDBRANCH   1  21
TORSDOF 7
