REMARK  Name = ZINC06281571
REMARK  9 active torsions:
REMARK  status: ('A' for Active; 'I' for Inactive)
REMARK    1  A    between atoms: C_1  and  C_2
REMARK    2  A    between atoms: C_9  and  C_14
REMARK    3  A    between atoms: C_14  and  C_16
REMARK    4  A    between atoms: C_14  and  N_69
REMARK    5  A    between atoms: N_20  and  C_21
REMARK    6  A    between atoms: C_27  and  C_28
REMARK    7  A    between atoms: C_27  and  N_69
REMARK    8  A    between atoms: C_34  and  C_35
REMARK    9  A    between atoms: C_34  and  N_69
REMARK                            x       y       z     vdW  Elec       q    Type
REMARK                         _______ _______ _______ _____ _____    ______ ____
ROOT
ATOM      1  C   UNL     1      -0.118   0.860   0.329  0.00  0.00    +0.040 C 
ENDROOT
BRANCH   1  10
ATOM      2  C   UNL     1       1.631  -3.950  -5.095  0.00  0.00    +0.044 C 
ATOM      3  C   UNL     1       1.987  -2.788  -4.204  0.00  0.00    -0.050 A 
ATOM      4  C   UNL     1       3.234  -2.189  -4.319  0.00  0.00    +0.005 A 
ATOM      5  C   UNL     1       3.581  -1.125  -3.515  0.00  0.00    +0.026 A 
ATOM      6  C   UNL     1       2.672  -0.644  -2.577  0.00  0.00    +0.049 A 
ATOM      7  C   UNL     1       1.409  -1.254  -2.463  0.00  0.00    -0.001 A 
ATOM      8  C   UNL     1       1.079  -2.333  -3.290  0.00  0.00    +0.013 A 
ATOM      9  C   UNL     1       0.460  -0.741  -1.474  0.00  0.00    +0.017 A 
ATOM     10  C   UNL     1       0.835   0.308  -0.700  0.00  0.00    +0.011 A 
ATOM     11  C   UNL     1       2.112   0.887  -0.858  0.00  0.00    +0.251 A 
ATOM     12  O   UNL     1       2.427   1.832  -0.156  0.00  0.00    -0.268 OA
ATOM     13  N   UNL     1       2.992   0.419  -1.760  0.00  0.00    -0.322 N 
ATOM     14  H   UNL     1       3.863   0.838  -1.840  0.00  0.00    +0.169 HD
ENDBRANCH   1  10
BRANCH   1  15
ATOM     15  C   UNL     1       0.505   0.758   1.697  0.00  0.00    +0.143 A 
ATOM     16  N   UNL     1       1.554   1.413   2.130  0.00  0.00    -0.115 NA
ATOM     17  N   UNL     1       1.774   1.053   3.347  0.00  0.00    -0.023 NA
ATOM     18  N   UNL     1       0.892   0.185   3.702  0.00  0.00    -0.044 NA
ATOM     19  N   UNL     1       0.089  -0.019   2.714  0.00  0.00    -0.227 N 
BRANCH  19  20
ATOM     20  C   UNL     1      -1.059  -0.930   2.699  0.00  0.00    +0.111 C 
ATOM     21  C   UNL     1      -2.056  -0.510   3.781  0.00  0.00    +0.027 C 
ATOM     22  C   UNL     1      -3.255  -1.461   3.766  0.00  0.00    +0.002 C 
ATOM     23  C   UNL     1      -2.777  -2.889   4.039  0.00  0.00    +0.000 C 
ATOM     24  C   UNL     1      -1.780  -3.308   2.957  0.00  0.00    +0.002 C 
ATOM     25  C   UNL     1      -0.581  -2.357   2.972  0.00  0.00    +0.027 C 
ENDBRANCH  19  20
ENDBRANCH   1  15
BRANCH   1  26
ATOM     26  N   UNL     1      -0.380   2.284   0.029  0.00  0.00    +0.397 N 
ATOM     27  H   UNL     1       0.487   2.818   0.165  0.00  0.00    -0.079 HD
BRANCH  26  28
ATOM     28  C   UNL     1      -0.819   2.432  -1.375  0.00  0.00    -0.039 C 
BRANCH  28  29
ATOM     29  C   UNL     1       0.402   2.568  -2.248  0.00  0.00    -0.046 A 
ATOM     30  C   UNL     1       1.220   3.683  -2.142  0.00  0.00    +0.005 A 
ATOM     31  C   UNL     1       2.335   3.764  -2.962  0.00  0.00    +0.020 A 
ATOM     32  C   UNL     1       2.587   2.743  -3.859  0.00  0.00    +0.111 A 
ATOM     33  N   UNL     1       1.784   1.700  -3.936  0.00  0.00    -0.263 NA
ATOM     34  C   UNL     1       0.717   1.587  -3.168  0.00  0.00    +0.112 A 
ENDBRANCH  28  29
ENDBRANCH  26  28
BRANCH  26  35
ATOM     35  C   UNL     1      -1.417   2.810   0.941  0.00  0.00    -0.001 C 
BRANCH  35  36
ATOM     36  C   UNL     1      -0.773   3.143   2.262  0.00  0.00    +0.089 A 
ATOM     37  C   UNL     1      -0.112   4.278   2.552  0.00  0.00    +0.042 A 
ATOM     38  C   UNL     1       0.322   4.168   3.893  0.00  0.00    +0.041 A 
ATOM     39  C   UNL     1      -0.099   2.972   4.342  0.00  0.00    +0.195 A 
ATOM     40  O   UNL     1      -0.767   2.358   3.352  0.00  0.00    -0.470 OA
ENDBRANCH  35  36
ENDBRANCH  26  35
ENDBRANCH   1  26
TORSDOF 8
