REMARK  Name = ZINC48556336
REMARK  7 active torsions:
REMARK  status: ('A' for Active; 'I' for Inactive)
REMARK    1  A    between atoms: C_1  and  C_2
REMARK    2  A    between atoms: N_7  and  C_9
REMARK    3  A    between atoms: C_9  and  C_10
REMARK    4  A    between atoms: C_13  and  N_16
REMARK    5  A    between atoms: N_19  and  C_20
REMARK    6  A    between atoms: C_20  and  C_21
REMARK    7  A    between atoms: C_24  and  C_27
REMARK                            x       y       z     vdW  Elec       q    Type
REMARK                         _______ _______ _______ _____ _____    ______ ____
ROOT
ATOM      1  C   UNL     1       1.323  -3.966   2.538  0.00  0.00    -0.064 A 
ATOM      2  C   UNL     1       0.330  -4.571   3.286  0.00  0.00    +0.003 A 
ATOM      3  C   UNL     1       0.242  -5.948   3.334  0.00  0.00    +0.023 A 
ATOM      4  C   UNL     1       1.152  -6.726   2.631  0.00  0.00    +0.035 A 
ATOM      5  C   UNL     1       2.148  -6.115   1.880  0.00  0.00    +0.023 A 
ATOM      6  C   UNL     1       2.227  -4.737   1.831  0.00  0.00    +0.003 A 
ENDROOT
BRANCH   4   7
ATOM      7  N   UNL     1       1.066  -8.122   2.678  0.00  0.00    -0.269 N 
ATOM      8  C   UNL     1      -0.138  -8.719   2.782  0.00  0.00    +0.304 C 
ATOM      9  O   UNL     1      -1.153  -8.053   2.737  0.00  0.00    -0.252 OA
ATOM     10  N   UNL     1      -0.215 -10.056   2.935  0.00  0.00    -0.295 N 
ATOM     11  H   UNL     1       1.872  -8.659   2.635  0.00  0.00    +0.156 HD
ATOM     12  H   UNL     1       0.596 -10.588   2.970  0.00  0.00    +0.151 HD
BRANCH  10  13
ATOM     13  C   UNL     1      -1.523 -10.706   3.048  0.00  0.00    +0.141 C 
BRANCH  13  14
ATOM     14  C   UNL     1      -1.333 -12.192   3.210  0.00  0.00    -0.030 A 
ATOM     15  C   UNL     1      -1.277 -13.005   2.092  0.00  0.00    +0.006 A 
ATOM     16  C   UNL     1      -1.103 -14.367   2.233  0.00  0.00    +0.019 A 
ATOM     17  C   UNL     1      -0.984 -14.923   3.508  0.00  0.00    +0.052 A 
ATOM     18  C   UNL     1      -1.041 -14.097   4.632  0.00  0.00    +0.019 A 
ATOM     19  C   UNL     1      -1.210 -12.737   4.476  0.00  0.00    +0.006 A 
BRANCH  17  20
ATOM     20  C   UNL     1      -0.804 -16.336   3.662  0.00  0.00    +0.099 C 
ATOM     21  N   UNL     1      -0.661 -17.456   3.784  0.00  0.00    -0.191 NA
ENDBRANCH  17  20
ENDBRANCH  13  14
ENDBRANCH  10  13
ENDBRANCH   4   7
BRANCH   1  22
ATOM     22  C   UNL     1       1.416  -2.462   2.488  0.00  0.00    -0.043 C 
BRANCH  22  28
ATOM     23  C   UNL     1      -0.332   1.567   0.326  0.00  0.00    +0.005 C 
ATOM     24  C   UNL     1      -0.323   0.038   0.294  0.00  0.00    -0.031 C 
ATOM     25  C   UNL     1       0.201  -0.443  -1.062  0.00  0.00    -0.001 C 
ATOM     26  C   UNL     1       0.280  -1.972  -1.056  0.00  0.00    -0.018 C 
ATOM     27  C   UNL     1       1.170  -2.426   0.104  0.00  0.00    -0.078 C 
ATOM     28  N   UNL     1       0.602  -1.958   1.374  0.00  0.00    +0.383 N 
ATOM     29  C   UNL     1       0.588  -0.491   1.404  0.00  0.00    -0.075 C 
ATOM     30  H   UNL     1      -0.342  -2.304   1.466  0.00  0.00    -0.081 HD
ENDBRANCH  22  28
ENDBRANCH   1  22
TORSDOF 6
