REMARK  Name = ZINC52636744
REMARK  5 active torsions:
REMARK  status: ('A' for Active; 'I' for Inactive)
REMARK    1  A    between atoms: C_1  and  C_2
REMARK    2  A    between atoms: C_11  and  S_16
REMARK    3  A    between atoms: S_16  and  N_19
REMARK    4  A    between atoms: C_24  and  C_26
REMARK    5  A    between atoms: C_27  and  C_29
REMARK                            x       y       z     vdW  Elec       q    Type
REMARK                         _______ _______ _______ _____ _____    ______ ____
ROOT
ATOM      1  S   UNL     1       1.641  -5.094   5.340  0.00  0.00    +0.060 S 
ATOM      2  O   UNL     1       1.103  -4.445   6.484  0.00  0.00    -0.153 OA
ATOM      3  O   UNL     1       1.035  -6.241   4.760  0.00  0.00    -0.153 OA
ENDROOT
BRANCH   1  14
ATOM      4  C   UNL     1       1.854   2.028  -0.629  0.00  0.00    +0.090 C 
ATOM      5  C   UNL     1       1.742   0.525  -0.674  0.00  0.00    +0.148 A 
ATOM      6  N   UNL     1       1.842  -0.225  -1.771  0.00  0.00    -0.219 NA
ATOM      7  C   UNL     1       1.697  -1.488  -1.461  0.00  0.00    +0.227 A 
ATOM      8  N   UNL     1       1.498  -1.569  -0.129  0.00  0.00    -0.200 N 
ATOM      9  N   UNL     1       1.536  -0.252   0.357  0.00  0.00    -0.149 NA
ATOM     10  C   UNL     1       1.297  -2.729   0.616  0.00  0.00    +0.179 A 
ATOM     11  C   UNL     1       1.627  -2.753   2.055  0.00  0.00    +0.089 A 
ATOM     12  N   UNL     1       2.109  -1.857   2.869  0.00  0.00    -0.376 N 
ATOM     13  C   UNL     1       2.229  -2.454   4.205  0.00  0.00    +0.170 C 
ATOM     14  C   UNL     1       1.736  -3.878   4.069  0.00  0.00    +0.111 C 
ATOM     15  C   UNL     1       1.384  -4.026   2.774  0.00  0.00    +0.027 A 
ATOM     16  C   UNL     1       0.839  -5.142   1.989  0.00  0.00    +0.031 A 
ATOM     17  C   UNL     1       0.591  -4.951   0.674  0.00  0.00    +0.114 A 
ATOM     18  N   UNL     1       0.810  -3.801   0.046  0.00  0.00    -0.234 NA
ATOM     19  H   UNL     1       2.348  -0.947   2.633  0.00  0.00    +0.160 HD
ENDBRANCH   1  14
BRANCH   1  20
ATOM     20  N   UNL     1       3.194  -5.523   5.725  0.00  0.00    -0.171 NA
ATOM     21  C   UNL     1       3.794  -6.742   5.166  0.00  0.00    +0.129 C 
ATOM     22  C   UNL     1       4.293  -7.617   6.322  0.00  0.00    +0.125 C 
ATOM     23  N   UNL     1       5.096  -6.784   7.229  0.00  0.00    -0.295 N 
ATOM     24  C   UNL     1       4.496  -5.564   7.787  0.00  0.00    +0.128 C 
ATOM     25  C   UNL     1       3.999  -4.687   6.627  0.00  0.00    +0.094 C 
ATOM     26  C   UNL     1       3.138  -3.546   7.174  0.00  0.00    +0.027 C 
ATOM     27  C   UNL     1       6.359  -7.133   7.542  0.00  0.00    +0.247 C 
ATOM     28  O   UNL     1       6.878  -8.090   7.001  0.00  0.00    -0.270 OA
BRANCH  27  29
ATOM     29  C   UNL     1       7.115  -6.351   8.543  0.00  0.00    +0.037 A 
ATOM     30  C   UNL     1       6.453  -5.776   9.630  0.00  0.00    +0.013 A 
ATOM     31  C   UNL     1       7.165  -5.048  10.561  0.00  0.00    +0.001 A 
ATOM     32  C   UNL     1       8.531  -4.886  10.419  0.00  0.00    +0.000 A 
ATOM     33  C   UNL     1       9.194  -5.452   9.345  0.00  0.00    +0.001 A 
ATOM     34  C   UNL     1       8.495  -6.188   8.410  0.00  0.00    +0.013 A 
ENDBRANCH  27  29
ENDBRANCH   1  20
TORSDOF 3
