REMARK  Name = ZINC50675451
REMARK  3 active torsions:
REMARK  status: ('A' for Active; 'I' for Inactive)
REMARK    1  A    between atoms: C_6  and  S_7
REMARK    2  A    between atoms: S_7  and  N_10
REMARK    3  A    between atoms: N_10  and  C_11
REMARK                            x       y       z     vdW  Elec       q    Type
REMARK                         _______ _______ _______ _____ _____    ______ ____
ROOT
ATOM      1  S   UNL     1      -1.513  -0.980   0.009  0.00  0.00    +0.062 S 
ATOM      2  O   UNL     1      -1.508  -1.884   1.106  0.00  0.00    -0.153 OA
ATOM      3  O   UNL     1      -2.469   0.064  -0.113  0.00  0.00    -0.153 OA
ENDROOT
BRANCH   1   9
ATOM      4  C   UNL     1       1.016  -0.519   0.947  0.00  0.00    +0.048 A 
ATOM      5  C   UNL     1       2.255   0.107   0.885  0.00  0.00    +0.038 A 
ATOM      6  C   UNL     1       2.507   1.008  -0.131  0.00  0.00    +0.128 A 
ATOM      7  N   UNL     1       1.589   1.279  -1.039  0.00  0.00    -0.238 NA
ATOM      8  C   UNL     1       0.397   0.703  -1.014  0.00  0.00    +0.143 A 
ATOM      9  C   UNL     1       0.074  -0.215  -0.019  0.00  0.00    +0.146 A 
ATOM     10  N   UNL     1      -0.541   1.018  -1.991  0.00  0.00    -0.342 N 
ATOM     11 BR   UNL     1       3.581  -0.269   2.179  0.00  0.00    -0.049 Br
ATOM     12  H   UNL     1      -0.353   1.717  -2.637  0.00  0.00    +0.144 HD
ATOM     13  H   UNL     1      -1.384   0.539  -2.026  0.00  0.00    +0.144 HD
ENDBRANCH   1   9
BRANCH   1  14
ATOM     14  N   UNL     1      -1.638  -1.900  -1.362  0.00  0.00    -0.188 NA
ATOM     15  H   UNL     1      -2.296  -1.675  -2.039  0.00  0.00    +0.148 HD
BRANCH  14  16
ATOM     16  C   UNL     1      -0.756  -3.053  -1.553  0.00  0.00    +0.061 C 
ATOM     17  C   UNL     1       0.398  -2.699  -2.526  0.00  0.00    +0.000 C 
ATOM     18  C   UNL     1       0.181  -3.622  -3.756  0.00  0.00    -0.077 C 
ATOM     19  N   UNL     1      -1.257  -3.930  -3.703  0.00  0.00    +0.383 N 
ATOM     20  C   UNL     1      -1.504  -4.191  -2.256  0.00  0.00    -0.050 C 
ATOM     21  C   UNL     1      -3.009  -4.180  -2.033  0.00  0.00    -0.014 C 
ATOM     22  C   UNL     1      -3.602  -5.349  -2.836  0.00  0.00    -0.003 C 
ATOM     23  C   UNL     1      -3.196  -5.251  -4.306  0.00  0.00    -0.019 C 
ATOM     24  C   UNL     1      -1.667  -5.112  -4.449  0.00  0.00    -0.078 C 
ATOM     25  H   UNL     1      -1.790  -3.130  -4.008  0.00  0.00    -0.081 HD
ENDBRANCH  14  16
ENDBRANCH   1  14
TORSDOF 3
