REMARK  Name = ZINC20708930
REMARK  5 active torsions:
REMARK  status: ('A' for Active; 'I' for Inactive)
REMARK    1  A    between atoms: C_4  and  O_7
REMARK    2  A    between atoms: O_7  and  C_8
REMARK    3  A    between atoms: C_21  and  C_24
REMARK    4  A    between atoms: C_26  and  N_31
REMARK    5  A    between atoms: C_29  and  O_30
REMARK                            x       y       z     vdW  Elec       q    Type
REMARK                         _______ _______ _______ _____ _____    ______ ____
ROOT
ATOM      1  C   UNL     1      -1.462   1.947   0.453  0.00  0.00    +0.129 A 
ATOM      2  C   UNL     1      -2.399   2.867   0.899  0.00  0.00    +0.048 A 
ATOM      3  C   UNL     1      -2.002   4.137   1.265  0.00  0.00    +0.027 A 
ATOM      4  C   UNL     1      -0.666   4.508   1.180  0.00  0.00    +0.032 A 
ATOM      5  C   UNL     1       0.273   3.582   0.711  0.00  0.00    -0.016 A 
ATOM      6  C   UNL     1      -0.127   2.311   0.359  0.00  0.00    +0.052 A 
ATOM      7  C   UNL     1       1.677   4.032   0.596  0.00  0.00    +0.049 C 
ATOM      8  C   UNL     1       2.815   3.080   0.661  0.00  0.00    -0.023 C 
ATOM      9  C   UNL     1       3.859   3.702   1.195  0.00  0.00    -0.030 C 
ATOM     10  C   UNL     1       3.479   5.137   1.566  0.00  0.00    +0.033 C 
ATOM     11  C   UNL     1       1.964   5.011   1.774  0.00  0.00    +0.029 C 
ATOM     12  C   UNL     1       1.122   6.243   1.491  0.00  0.00    +0.108 C 
ATOM     13  N   UNL     1      -0.284   5.795   1.585  0.00  0.00    -0.336 N 
ATOM     14  H   UNL     1      -1.053   6.476   1.979  0.00  0.00    +0.147 HD
ENDROOT
BRANCH  12  15
ATOM     15  C   UNL     1       1.411   6.764   0.107  0.00  0.00    +0.017 A 
ATOM     16  C   UNL     1       0.658   6.330  -0.967  0.00  0.00    +0.041 A 
ATOM     17  C   UNL     1       0.919   6.812  -2.236  0.00  0.00    +0.127 A 
ATOM     18  C   UNL     1       1.941   7.721  -2.436  0.00  0.00    +0.036 A 
ATOM     19  C   UNL     1       2.700   8.155  -1.367  0.00  0.00    +0.048 A 
ATOM     20  C   UNL     1       2.437   7.677  -0.091  0.00  0.00    +0.122 A 
BRANCH  17  21
ATOM     21  N   UNL     1       0.107   6.349  -3.383  0.00  0.00    +0.056 N 
ATOM     22  O   UNL     1       0.339   6.769  -4.503  0.00  0.00    -0.126 OA
ATOM     23  O   UNL     1      -0.794   5.548  -3.208  0.00  0.00    -0.126 OA
ENDBRANCH  17  21
BRANCH  20  24
ATOM     24  O   UNL     1       3.183   8.102   0.963  0.00  0.00    -0.506 OA
ATOM     25  H   UNL     1       3.996   8.825   0.805  0.00  0.00    +0.292 HD
ENDBRANCH  20  24
ENDBRANCH  12  15
BRANCH   1  26
ATOM     26  O   UNL     1      -1.852   0.692   0.103  0.00  0.00    -0.456 OA
BRANCH  26  30
ATOM     27  C   UNL     1      -5.866  -0.229   0.348  0.00  0.00    +0.000 A 
ATOM     28  C   UNL     1      -5.335   0.234  -0.842  0.00  0.00    +0.004 A 
ATOM     29  C   UNL     1      -3.991   0.543  -0.926  0.00  0.00    +0.046 A 
ATOM     30  C   UNL     1      -3.174   0.389   0.184  0.00  0.00    +0.128 A 
ATOM     31  C   UNL     1      -3.708  -0.080   1.376  0.00  0.00    +0.046 A 
ATOM     32  C   UNL     1      -5.053  -0.383   1.457  0.00  0.00    +0.004 A 
ENDBRANCH  26  30
ENDBRANCH   1  26
TORSDOF 5
