REMARK  Name = ZINC04233593
REMARK  7 active torsions:
REMARK  status: ('A' for Active; 'I' for Inactive)
REMARK    1  A    between atoms: C_1  and  C_2
REMARK    2  A    between atoms: C_5  and  C_8
REMARK    3  A    between atoms: C_8  and  N_10
REMARK    4  A    between atoms: N_12  and  C_24
REMARK    5  A    between atoms: C_16  and  S_20
REMARK    6  A    between atoms: S_20  and  C_23
REMARK    7  A    between atoms: C_24  and  C_25
REMARK                            x       y       z     vdW  Elec       q    Type
REMARK                         _______ _______ _______ _____ _____    ______ ____
ROOT
ATOM      1  N   UNL     1       1.134   1.899   0.001  0.00  0.00    -0.152 NA
ATOM      2  C   UNL     1       2.294   1.250  -0.013  0.00  0.00    +0.168 A 
ATOM      3  N   UNL     1       3.551   1.769  -0.022  0.00  0.00    -0.310 N 
ATOM      4  C   UNL     1       4.648   0.928  -0.037  0.00  0.00    +0.059 A 
ATOM      5  C   UNL     1       6.009   1.273  -0.047  0.00  0.00    +0.029 A 
ATOM      6  C   UNL     1       6.980   0.300  -0.060  0.00  0.00    +0.029 A 
ATOM      7  C   UNL     1       6.649  -1.045  -0.063  0.00  0.00    +0.089 A 
ATOM      8  C   UNL     1       5.315  -1.413  -0.054  0.00  0.00    +0.044 A 
ATOM      9  C   UNL     1       4.343  -0.440  -0.040  0.00  0.00    +0.041 A 
ATOM     10  S   UNL     1       2.568  -0.462  -0.017  0.00  0.00    -0.052 S 
ENDROOT
BRANCH   7  11
ATOM     11  S   UNL     1       7.911  -2.274  -0.080  0.00  0.00    -0.006 S 
ATOM     12  O   UNL     1       7.305  -3.409  -0.683  0.00  0.00    -0.170 OA
ATOM     13  O   UNL     1       9.027  -1.639  -0.690  0.00  0.00    -0.170 OA
ATOM     14  C   UNL     1       8.261  -2.607   1.668  0.00  0.00    +0.200 C 
ENDBRANCH   7  11
BRANCH   1  15
ATOM     15  C   UNL     1      -0.015   1.214   0.009  0.00  0.00    +0.269 C 
ATOM     16  O   UNL     1       0.002  -0.004   0.002  0.00  0.00    -0.268 OA
BRANCH  15  21
ATOM     17  C   UNL     1      -5.039   4.025   0.050  0.00  0.00    +0.044 C 
ATOM     18  C   UNL     1      -3.724   3.289   0.039  0.00  0.00    -0.050 A 
ATOM     19  C   UNL     1      -3.708   1.906   0.030  0.00  0.00    +0.004 A 
ATOM     20  C   UNL     1      -2.507   1.227   0.021  0.00  0.00    +0.013 A 
ATOM     21  C   UNL     1      -1.307   1.938   0.019  0.00  0.00    +0.039 A 
ATOM     22  C   UNL     1      -1.329   3.332   0.032  0.00  0.00    +0.013 A 
ATOM     23  C   UNL     1      -2.537   4.000   0.038  0.00  0.00    +0.004 A 
ENDBRANCH  15  21
ENDBRANCH   1  15
BRANCH   3  24
ATOM     24  C   UNL     1       3.742   3.222  -0.018  0.00  0.00    +0.212 C 
BRANCH  24  25
ATOM     25  C   UNL     1       3.820   3.702   1.372  0.00  0.00    -0.084 C 
ATOM     26  C   UNL     1       3.881   4.085   2.480  0.00  0.00    +0.005 C 
ENDBRANCH  24  25
ENDBRANCH   3  24
TORSDOF 5
