REMARK  Name = ZINC63908318
REMARK  9 active torsions:
REMARK  status: ('A' for Active; 'I' for Inactive)
REMARK    1  A    between atoms: C_4  and  C_7
REMARK    2  A    between atoms: C_7  and  N_8
REMARK    3  A    between atoms: C_9  and  C_11
REMARK    4  A    between atoms: C_11  and  C_13
REMARK    5  A    between atoms: C_11  and  N_23
REMARK    6  A    between atoms: C_13  and  C_14
REMARK    7  A    between atoms: C_24  and  O_26
REMARK    8  A    between atoms: O_26  and  C_27
REMARK    9  A    between atoms: C_27  and  C_28
REMARK                            x       y       z     vdW  Elec       q    Type
REMARK                         _______ _______ _______ _____ _____    ______ ____
ROOT
ATOM      1  C   UNL     1       5.866  -1.925   3.065  0.00  0.00    +0.166 C 
ENDROOT
BRANCH   1   3
ATOM      2  N   UNL     1       4.654  -0.471   1.473  0.00  0.00    -0.310 N 
ATOM      3  C   UNL     1       5.631  -1.375   1.682  0.00  0.00    +0.234 C 
ATOM      4  O   UNL     1       6.322  -1.747   0.757  0.00  0.00    -0.274 OA
ATOM      5  H   UNL     1       4.101  -0.174   2.213  0.00  0.00    +0.149 HD
BRANCH   2   6
ATOM      6  C   UNL     1       4.425   0.063   0.128  0.00  0.00    +0.139 C 
BRANCH   6  10
ATOM      7  C   UNL     1       1.193   2.854   0.232  0.00  0.00    +0.000 A 
ATOM      8  C   UNL     1       2.489   3.289   0.437  0.00  0.00    +0.000 A 
ATOM      9  C   UNL     1       3.535   2.386   0.404  0.00  0.00    +0.005 A 
ATOM     10  C   UNL     1       3.285   1.047   0.165  0.00  0.00    -0.030 A 
ATOM     11  C   UNL     1       1.989   0.612  -0.039  0.00  0.00    +0.005 A 
ATOM     12  C   UNL     1       0.943   1.516  -0.007  0.00  0.00    +0.000 A 
ENDBRANCH   6  10
ENDBRANCH   2   6
ENDBRANCH   1   3
BRANCH   1  13
ATOM     13  N   UNL     1       6.974  -2.882   3.029  0.00  0.00    -0.270 N 
ATOM     14  C   UNL     1       7.725  -3.086   4.130  0.00  0.00    +0.401 C 
ATOM     15  O   UNL     1       7.482  -2.476   5.152  0.00  0.00    -0.226 OA
ATOM     16  H   UNL     1       7.168  -3.369   2.213  0.00  0.00    +0.153 HD
BRANCH  14  17
ATOM     17  O   UNL     1       8.744  -3.966   4.096  0.00  0.00    -0.446 OA
BRANCH  17  18
ATOM     18  C   UNL     1       9.497  -4.132   5.299  0.00  0.00    +0.269 C 
BRANCH  18  19
ATOM     19  C   UNL     1      10.587  -5.148   5.073  0.00  0.00    -0.010 A 
ATOM     20  C   UNL     1      10.342  -6.488   5.309  0.00  0.00    +0.007 A 
ATOM     21  C   UNL     1      11.342  -7.420   5.101  0.00  0.00    +0.000 A 
ATOM     22  C   UNL     1      12.586  -7.012   4.658  0.00  0.00    +0.000 A 
ATOM     23  C   UNL     1      12.830  -5.672   4.421  0.00  0.00    +0.000 A 
ATOM     24  C   UNL     1      11.829  -4.740   4.625  0.00  0.00    +0.007 A 
ENDBRANCH  18  19
ENDBRANCH  17  18
ENDBRANCH  14  17
ENDBRANCH   1  13
BRANCH   1  25
ATOM     25  C   UNL     1       4.599  -2.630   3.556  0.00  0.00    +0.065 C 
BRANCH  25  26
ATOM     26  C   UNL     1       4.287  -3.791   2.648  0.00  0.00    -0.039 C 
ATOM     27  C   UNL     1       4.652  -5.082   2.824  0.00  0.00    -0.001 A 
ATOM     28  C   UNL     1       5.420  -5.764   3.873  0.00  0.00    +0.010 A 
ATOM     29  C   UNL     1       5.628  -7.096   3.772  0.00  0.00    +0.001 A 
ATOM     30  C   UNL     1       5.130  -7.841   2.694  0.00  0.00    +0.002 A 
ATOM     31  C   UNL     1       4.415  -7.285   1.693  0.00  0.00    +0.026 A 
ATOM     32  C   UNL     1       4.136  -5.890   1.697  0.00  0.00    +0.043 A 
ATOM     33  N   UNL     1       3.478  -5.129   0.856  0.00  0.00    -0.380 N 
ATOM     34  C   UNL     1       3.497  -3.751   1.359  0.00  0.00    +0.144 C 
ATOM     35  H   UNL     1       3.047  -5.428   0.040  0.00  0.00    +0.160 HD
ENDBRANCH  25  26
ENDBRANCH   1  25
TORSDOF 9
