REMARK  Name = ZINC13611442
REMARK  7 active torsions:
REMARK  status: ('A' for Active; 'I' for Inactive)
REMARK    1  A    between atoms: C_1  and  C_2
REMARK    2  A    between atoms: C_6  and  C_8
REMARK    3  A    between atoms: C_8  and  C_9
REMARK    4  A    between atoms: C_10  and  C_31
REMARK    5  A    between atoms: N_20  and  C_23
REMARK    6  A    between atoms: C_28  and  O_29
REMARK    7  A    between atoms: O_29  and  C_30
REMARK                            x       y       z     vdW  Elec       q    Type
REMARK                         _______ _______ _______ _____ _____    ______ ____
ROOT
ATOM      1  C   UNL     1       0.015   6.185  -1.322  0.00  0.00    +0.042 A 
ATOM      2  C   UNL     1      -1.215   6.107  -1.908  0.00  0.00    +0.050 A 
ATOM      3  N   UNL     1      -1.355   6.372  -3.205  0.00  0.00    -0.221 NA
ATOM      4  C   UNL     1      -0.323   6.714  -3.950  0.00  0.00    +0.199 A 
ATOM      5  N   UNL     1       0.927   6.807  -3.421  0.00  0.00    -0.295 N 
ATOM      6  H   UNL     1       1.676   7.059  -3.983  0.00  0.00    +0.172 HD
ATOM      7  C   UNL     1       1.120   6.554  -2.109  0.00  0.00    +0.256 A 
ATOM      8  O   UNL     1       2.233   6.639  -1.617  0.00  0.00    -0.267 OA
ATOM      9  N   UNL     1      -0.511   6.978  -5.280  0.00  0.00    -0.298 N 
ATOM     10  C   UNL     1       0.081   8.271  -5.649  0.00  0.00    +0.127 C 
ATOM     11  C   UNL     1      -0.081   8.492  -7.155  0.00  0.00    +0.124 C 
ATOM     12  N   UNL     1      -1.508   8.452  -7.503  0.00  0.00    -0.324 N 
ATOM     13  C   UNL     1      -2.101   7.159  -7.133  0.00  0.00    +0.124 C 
ATOM     14  C   UNL     1      -1.939   6.938  -5.628  0.00  0.00    +0.127 C 
ATOM     15  C   UNL     1      -2.417   5.720  -1.086  0.00  0.00    +0.066 C 
ENDROOT
BRANCH  12  16
ATOM     16  C   UNL     1      -1.701   8.722  -8.862  0.00  0.00    +0.072 A 
ATOM     17  C   UNL     1      -0.614   8.776  -9.722  0.00  0.00    +0.027 A 
ATOM     18  C   UNL     1      -0.807   9.038 -11.065  0.00  0.00    +0.002 A 
ATOM     19  C   UNL     1      -2.082   9.258 -11.553  0.00  0.00    +0.004 A 
ATOM     20  C   UNL     1      -3.171   9.211 -10.701  0.00  0.00    +0.047 A 
ATOM     21  C   UNL     1      -2.985   8.944  -9.355  0.00  0.00    +0.141 A 
BRANCH  21  22
ATOM     22  O   UNL     1      -4.055   8.899  -8.516  0.00  0.00    -0.493 OA
ATOM     23  C   UNL     1      -5.341   9.136  -9.091  0.00  0.00    +0.277 C 
ENDBRANCH  21  22
ENDBRANCH  12  16
BRANCH   1  24
ATOM     24  C   UNL     1       0.185   5.887   0.145  0.00  0.00    +0.077 C 
BRANCH  24  30
ATOM     25  C   UNL     1       2.470   9.925   2.021  0.00  0.00    +0.044 C 
ATOM     26  C   UNL     1       1.220   9.104   1.827  0.00  0.00    -0.050 A 
ATOM     27  C   UNL     1       0.022   9.532   2.367  0.00  0.00    +0.003 A 
ATOM     28  C   UNL     1      -1.125   8.782   2.183  0.00  0.00    +0.001 A 
ATOM     29  C   UNL     1      -1.072   7.603   1.465  0.00  0.00    +0.004 A 
ATOM     30  C   UNL     1       0.127   7.173   0.929  0.00  0.00    -0.043 A 
ATOM     31  C   UNL     1       1.274   7.922   1.113  0.00  0.00    +0.007 A 
ENDBRANCH  24  30
ENDBRANCH   1  24
TORSDOF 4
