REMARK  Name = ZINC65371892
REMARK  10 active torsions:
REMARK  status: ('A' for Active; 'I' for Inactive)
REMARK    1  A    between atoms: C_1  and  C_2
REMARK    2  A    between atoms: C_6  and  C_24
REMARK    3  A    between atoms: C_7  and  N_8
REMARK    4  A    between atoms: C_9  and  C_11
REMARK    5  A    between atoms: C_11  and  N_12
REMARK    6  A    between atoms: N_12  and  C_13
REMARK    7  A    between atoms: C_13  and  C_15
REMARK    8  A    between atoms: C_13  and  C_16
REMARK    9  A    between atoms: C_24  and  C_25
REMARK   10  A    between atoms: C_24  and  C_26
REMARK                            x       y       z     vdW  Elec       q    Type
REMARK                         _______ _______ _______ _____ _____    ______ ____
ROOT
ATOM      1  N   UNL     1       0.203   0.079   2.354  0.00  0.00    -0.287 N 
ATOM      2  C   UNL     1      -0.217   1.359   2.386  0.00  0.00    +0.200 C 
ATOM      3  O   UNL     1      -0.758   1.843   1.414  0.00  0.00    -0.278 OA
ATOM      4  H   UNL     1       0.566  -0.332   3.155  0.00  0.00    +0.155 HD
ENDROOT
BRANCH   1  11
ATOM      5  C   UNL     1      -2.383  -0.569   1.361  0.00  0.00    +0.045 C 
ATOM      6  C   UNL     1      -1.126  -0.995   0.648  0.00  0.00    -0.029 A 
ATOM      7  C   UNL     1      -1.208  -1.717  -0.527  0.00  0.00    +0.005 A 
ATOM      8  C   UNL     1      -0.055  -2.108  -1.182  0.00  0.00    +0.001 A 
ATOM      9  C   UNL     1       1.184  -1.778  -0.664  0.00  0.00    +0.006 A 
ATOM     10  C   UNL     1       1.273  -1.056   0.510  0.00  0.00    -0.023 A 
ATOM     11  C   UNL     1       0.117  -0.657   1.168  0.00  0.00    +0.040 A 
BRANCH  10  12
ATOM     12  C   UNL     1       2.624  -0.697   1.074  0.00  0.00    +0.015 C 
ATOM     13  C   UNL     1       3.411  -1.976   1.367  0.00  0.00    +0.012 C 
ATOM     14  C   UNL     1       3.391   0.153   0.059  0.00  0.00    +0.012 C 
ENDBRANCH  10  12
ENDBRANCH   1  11
BRANCH   2  15
ATOM     15  C   UNL     1      -0.016   2.188   3.628  0.00  0.00    +0.016 C 
BRANCH  15  16
ATOM     16  N   UNL     1      -0.556   3.536   3.410  0.00  0.00    +0.390 N 
ATOM     17  H   UNL     1      -0.077   3.970   2.635  0.00  0.00    -0.084 HD
ATOM     18  H   UNL     1      -1.542   3.474   3.203  0.00  0.00    -0.084 HD
BRANCH  16  19
ATOM     19  C   UNL     1      -0.360   4.345   4.620  0.00  0.00    -0.023 C 
ATOM     20  C   UNL     1      -1.188   3.757   5.765  0.00  0.00    -0.007 C 
BRANCH  19  21
ATOM     21  C   UNL     1      -0.802   5.761   4.356  0.00  0.00    +0.048 A 
ATOM     22  C   UNL     1      -0.361   6.856   4.999  0.00  0.00    +0.136 A 
ATOM     23  N   UNL     1      -1.014   7.957   4.459  0.00  0.00    -0.214 N 
ATOM     24  C   UNL     1      -1.835   7.438   3.492  0.00  0.00    +0.195 A 
ATOM     25  N   UNL     1      -1.699   6.145   3.435  0.00  0.00    -0.227 NA
ATOM     26  S   UNL     1      -2.631   8.891   2.850  0.00  0.00    -0.036 S 
ATOM     27  C   UNL     1      -1.825  10.087   3.903  0.00  0.00    +0.181 A 
ATOM     28  N   UNL     1      -1.052   9.337   4.627  0.00  0.00    -0.166 NA
ENDBRANCH  19  21
ENDBRANCH  16  19
ENDBRANCH  15  16
ENDBRANCH   2  15
TORSDOF 6
