REMARK  Name = ZINC39357188
REMARK  7 active torsions:
REMARK  status: ('A' for Active; 'I' for Inactive)
REMARK    1  A    between atoms: C_1  and  C_2
REMARK    2  A    between atoms: C_4  and  C_26
REMARK    3  A    between atoms: N_12  and  C_13
REMARK    4  A    between atoms: C_13  and  C_14
REMARK    5  A    between atoms: N_16  and  C_17
REMARK    6  A    between atoms: C_27  and  C_28
REMARK    7  A    between atoms: C_27  and  C_30
REMARK                            x       y       z     vdW  Elec       q    Type
REMARK                         _______ _______ _______ _____ _____    ______ ____
ROOT
ATOM      1  C   UNL     1      -0.004   1.534   0.019  0.00  0.00    +0.029 C 
ATOM      2  C   UNL     1       0.007   0.004   0.005  0.00  0.00    +0.082 C 
ATOM      3  C   UNL     1       0.748  -0.514  -1.238  0.00  0.00    +0.065 C 
ATOM      4  C   UNL     1       1.911  -1.307  -0.685  0.00  0.00    -0.018 A 
ATOM      5  C   UNL     1       2.919  -2.002  -1.324  0.00  0.00    +0.006 A 
ATOM      6  C   UNL     1       3.886  -2.659  -0.585  0.00  0.00    +0.000 A 
ATOM      7  C   UNL     1       3.841  -2.618   0.797  0.00  0.00    +0.002 A 
ATOM      8  C   UNL     1       2.837  -1.925   1.439  0.00  0.00    +0.023 A 
ATOM      9  C   UNL     1       1.857  -1.259   0.699  0.00  0.00    +0.034 A 
ATOM     10  N   UNL     1       0.766  -0.510   1.149  0.00  0.00    -0.317 N 
ENDROOT
BRANCH   3  11
ATOM     11  C   UNL     1      -0.154  -1.401  -2.057  0.00  0.00    +0.001 C 
ATOM     12  C   UNL     1      -0.440  -1.079  -3.316  0.00  0.00    +0.068 C 
BRANCH  12  13
ATOM     13  C   UNL     1      -1.342  -1.966  -4.134  0.00  0.00    +0.216 C 
ATOM     14  N   UNL     1      -0.652  -2.397  -5.356  0.00  0.00    -0.359 N 
ATOM     15  C   UNL     1      -1.340  -1.957  -6.370  0.00  0.00    +0.060 A 
ATOM     16  C   UNL     1      -1.157  -2.065  -7.824  0.00  0.00    +0.027 A 
ATOM     17  C   UNL     1      -2.055  -1.494  -8.651  0.00  0.00    +0.002 A 
ATOM     18  C   UNL     1      -3.176  -0.786  -8.181  0.00  0.00    +0.002 A 
ATOM     19  C   UNL     1      -3.437  -0.627  -6.869  0.00  0.00    +0.027 A 
ATOM     20  C   UNL     1      -2.527  -1.208  -5.873  0.00  0.00    +0.060 A 
ATOM     21  N   UNL     1      -2.526  -1.215  -4.571  0.00  0.00    -0.359 N 
ATOM     22  H   UNL     1       0.168  -2.914  -5.400  0.00  0.00    +0.162 HD
ATOM     23  H   UNL     1      -3.187  -0.800  -3.995  0.00  0.00    +0.162 HD
ENDBRANCH  12  13
BRANCH  12  24
ATOM     24  C   UNL     1       0.110   0.111  -3.893  0.00  0.00    +0.098 C 
ATOM     25  N   UNL     1       0.546   1.055  -4.351  0.00  0.00    -0.191 NA
ENDBRANCH  12  24
ENDBRANCH   3  11
BRANCH  10  26
ATOM     26  C   UNL     1       0.431  -0.271   2.555  0.00  0.00    +0.201 C 
BRANCH  26  27
ATOM     27  C   UNL     1      -0.488  -1.361   3.044  0.00  0.00    +0.235 C 
ATOM     28  O   UNL     1      -0.828  -2.250   2.293  0.00  0.00    -0.274 OA
ATOM     29  N   UNL     1      -0.930  -1.348   4.317  0.00  0.00    -0.284 N 
ATOM     30  H   UNL     1      -0.606  -0.676   4.937  0.00  0.00    +0.155 HD
BRANCH  29  31
ATOM     31  C   UNL     1      -1.859  -2.305   4.745  0.00  0.00    +0.037 A 
ATOM     32  C   UNL     1      -2.837  -1.959   5.668  0.00  0.00    +0.027 A 
ATOM     33  C   UNL     1      -3.755  -2.901   6.092  0.00  0.00    +0.051 A 
ATOM     34  C   UNL     1      -3.701  -4.194   5.596  0.00  0.00    +0.166 A 
ATOM     35  C   UNL     1      -2.722  -4.544   4.670  0.00  0.00    +0.168 A 
ATOM     36  C   UNL     1      -1.806  -3.597   4.243  0.00  0.00    +0.072 A 
ATOM     37  O   UNL     1      -2.881  -5.860   4.343  0.00  0.00    -0.453 OA
ATOM     38  C   UNL     1      -3.709  -6.417   5.381  0.00  0.00    +0.466 C 
ATOM     39  O   UNL     1      -4.475  -5.292   5.849  0.00  0.00    -0.453 OA
ENDBRANCH  29  31
ENDBRANCH  26  27
ENDBRANCH  10  26
TORSDOF 6
