REMARK  Name = ZINC00913281
REMARK  10 active torsions:
REMARK  status: ('A' for Active; 'I' for Inactive)
REMARK    1  A    between atoms: C_1  and  C_2
REMARK    2  A    between atoms: C_3  and  C_26
REMARK    3  A    between atoms: C_4  and  C_10
REMARK    4  A    between atoms: C_13  and  O_18
REMARK    5  A    between atoms: C_14  and  O_16
REMARK    6  A    between atoms: O_16  and  C_17
REMARK    7  A    between atoms: O_18  and  C_19
REMARK    8  A    between atoms: C_19  and  C_21
REMARK    9  A    between atoms: C_26  and  O_28
REMARK   10  A    between atoms: O_28  and  C_29
REMARK                            x       y       z     vdW  Elec       q    Type
REMARK                         _______ _______ _______ _____ _____    ______ ____
ROOT
ATOM      1  C   UNL     1      -1.859  -2.698  -1.206  0.00  0.00    -0.019 A 
ATOM      2  C   UNL     1      -1.243  -2.654  -2.444  0.00  0.00    +0.009 A 
ATOM      3  C   UNL     1      -1.913  -3.099  -3.568  0.00  0.00    +0.050 A 
ATOM      4  C   UNL     1      -3.203  -3.592  -3.457  0.00  0.00    +0.173 A 
ATOM      5  C   UNL     1      -3.822  -3.637  -2.211  0.00  0.00    +0.163 A 
ATOM      6  C   UNL     1      -3.143  -3.193  -1.087  0.00  0.00    +0.055 A 
ENDROOT
BRANCH   1  10
ATOM      7  C   UNL     1      -0.118   1.510   0.083  0.00  0.00    +0.061 C 
ATOM      8  C   UNL     1      -0.067   0.004   0.053  0.00  0.00    +0.021 C 
ATOM      9  C   UNL     1      -1.220  -0.699   0.047  0.00  0.00    +0.078 C 
ATOM     10  C   UNL     1      -1.124  -2.211   0.016  0.00  0.00    +0.144 C 
ATOM     11  N   UNL     1       0.228  -2.793  -0.006  0.00  0.00    -0.288 N 
ATOM     12  C   UNL     1       1.286  -1.958   0.003  0.00  0.00    +0.304 C 
ATOM     13  O   UNL     1       2.407  -2.429  -0.014  0.00  0.00    -0.252 OA
ATOM     14  N   UNL     1       1.143  -0.627   0.025  0.00  0.00    -0.273 N 
ATOM     15  H   UNL     1       0.355  -3.754  -0.025  0.00  0.00    +0.151 HD
ATOM     16  H   UNL     1       1.945  -0.080   0.027  0.00  0.00    +0.156 HD
BRANCH   9  17
ATOM     17  C   UNL     1      -2.475  -0.046   0.070  0.00  0.00    +0.338 C 
ATOM     18  O   UNL     1      -2.528   1.169   0.095  0.00  0.00    -0.245 OA
BRANCH  17  19
ATOM     19  O   UNL     1      -3.613  -0.771   0.064  0.00  0.00    -0.465 OA
ATOM     20  C   UNL     1      -4.845  -0.046   0.088  0.00  0.00    +0.280 C 
ENDBRANCH  17  19
ENDBRANCH   9  17
ENDBRANCH   1  10
BRANCH   5  21
ATOM     21  O   UNL     1      -5.088  -4.119  -2.096  0.00  0.00    -0.491 OA
ATOM     22  C   UNL     1      -5.660  -4.135  -0.787  0.00  0.00    +0.277 C 
ENDBRANCH   5  21
BRANCH   4  23
ATOM     23  O   UNL     1      -3.863  -4.030  -4.562  0.00  0.00    -0.416 OA
BRANCH  23  24
ATOM     24  C   UNL     1      -4.744  -3.193  -5.147  0.00  0.00    +0.380 C 
ATOM     25  O   UNL     1      -4.856  -2.051  -4.745  0.00  0.00    -0.241 OA
BRANCH  24  26
ATOM     26  C   UNL     1      -5.565  -3.660  -6.267  0.00  0.00    +0.212 A 
ATOM     27  C   UNL     1      -6.487  -2.918  -6.950  0.00  0.00    +0.056 A 
ATOM     28  C   UNL     1      -7.032  -3.759  -7.933  0.00  0.00    +0.042 A 
ATOM     29  C   UNL     1      -6.426  -4.961  -7.809  0.00  0.00    +0.196 A 
ATOM     30  O   UNL     1      -5.539  -4.896  -6.808  0.00  0.00    -0.456 OA
ENDBRANCH  24  26
ENDBRANCH  23  24
ENDBRANCH   4  23
TORSDOF 7
