REMARK  Name = ZINC24797874
REMARK  8 active torsions:
REMARK  status: ('A' for Active; 'I' for Inactive)
REMARK    1  A    between atoms: C_1  and  C_2
REMARK    2  A    between atoms: C_5  and  C_7
REMARK    3  A    between atoms: C_7  and  N_8
REMARK    4  A    between atoms: N_8  and  C_9
REMARK    5  A    between atoms: N_8  and  C_10
REMARK    6  A    between atoms: C_10  and  C_12
REMARK    7  A    between atoms: C_10  and  C_13
REMARK    8  A    between atoms: C_24  and  C_26
REMARK                            x       y       z     vdW  Elec       q    Type
REMARK                         _______ _______ _______ _____ _____    ______ ____
ROOT
ATOM      1  C   UNL     1       2.530  -0.227   0.712  0.00  0.00    +0.206 C 
ATOM      2  O   UNL     1       1.810  -0.759   1.530  0.00  0.00    -0.277 OA
ATOM      3  N   UNL     1       2.128   0.902   0.095  0.00  0.00    -0.262 N 
ATOM      4  C   UNL     1       3.023   1.627  -0.820  0.00  0.00    +0.209 C 
ATOM      5  C   UNL     1       2.893   3.107  -0.563  0.00  0.00    +0.235 C 
ATOM      6  O   UNL     1       3.838   3.837  -0.773  0.00  0.00    -0.274 OA
ATOM      7  N   UNL     1       1.739   3.628  -0.104  0.00  0.00    -0.283 N 
ATOM      8  C   UNL     1       0.650   2.802   0.193  0.00  0.00    +0.056 A 
ATOM      9  C   UNL     1       0.841   1.423   0.304  0.00  0.00    +0.058 A 
ATOM     10  C   UNL     1      -0.224   0.595   0.607  0.00  0.00    +0.026 A 
ATOM     11  C   UNL     1      -1.484   1.137   0.792  0.00  0.00    +0.014 A 
ATOM     12  C   UNL     1      -1.676   2.502   0.683  0.00  0.00    +0.057 A 
ATOM     13  C   UNL     1      -0.614   3.336   0.382  0.00  0.00    +0.037 A 
ATOM     14  H   UNL     1       1.646   4.714   0.043  0.00  0.00    +0.155 HD
ENDROOT
BRANCH  12  15
ATOM     15  C   UNL     1      -3.051   3.084   0.889  0.00  0.00    +0.417 C 
ATOM     16  F   UNL     1      -3.729   3.122  -0.334  0.00  0.00    -0.166 F 
ATOM     17  F   UNL     1      -3.763   2.290   1.794  0.00  0.00    -0.166 F 
ATOM     18  F   UNL     1      -2.936   4.382   1.399  0.00  0.00    -0.166 F 
ENDBRANCH  12  15
BRANCH   1  19
ATOM     19  C   UNL     1       3.872  -0.827   0.384  0.00  0.00    +0.017 C 
ATOM     20  C   UNL     1       4.969  -0.059   1.124  0.00  0.00    -0.004 C 
BRANCH  19  21
ATOM     21  N   UNL     1       3.894  -2.235   0.802  0.00  0.00    +0.390 N 
ATOM     22  C   UNL     1       3.687  -2.357   2.251  0.00  0.00    -0.095 C 
ATOM     23  H   UNL     1       3.064  -2.751   0.298  0.00  0.00    -0.081 HD
BRANCH  21  24
ATOM     24  C   UNL     1       5.145  -2.887   0.392  0.00  0.00    -0.003 C 
BRANCH  24  29
ATOM     25  C   UNL     1       5.385  -7.410   2.611  0.00  0.00    +0.086 C 
ATOM     26  C   UNL     1       5.138  -6.340   1.579  0.00  0.00    +0.102 A 
ATOM     27  C   UNL     1       4.648  -6.538   0.342  0.00  0.00    +0.044 A 
ATOM     28  C   UNL     1       4.581  -5.271  -0.280  0.00  0.00    +0.043 A 
ATOM     29  C   UNL     1       5.034  -4.373   0.614  0.00  0.00    +0.089 A 
ATOM     30  O   UNL     1       5.375  -5.027   1.736  0.00  0.00    -0.467 OA
ENDBRANCH  24  29
ENDBRANCH  21  24
ENDBRANCH  19  21
ENDBRANCH   1  19
TORSDOF 5
