REMARK  Name = ZINC38657350
REMARK  7 active torsions:
REMARK  status: ('A' for Active; 'I' for Inactive)
REMARK    1  A    between atoms: C_3  and  C_6
REMARK    2  A    between atoms: C_11  and  O_20
REMARK    3  A    between atoms: C_15  and  N_19
REMARK    4  A    between atoms: C_16  and  C_17
REMARK    5  A    between atoms: O_20  and  C_21
REMARK    6  A    between atoms: C_21  and  C_23
REMARK    7  A    between atoms: C_24  and  C_25
REMARK                            x       y       z     vdW  Elec       q    Type
REMARK                         _______ _______ _______ _____ _____    ______ ____
ROOT
ATOM      1  C   UNL     1       3.615   0.682  -0.002  0.00  0.00    +0.134 C 
ATOM      2  C   UNL     1       4.104  -0.055   1.216  0.00  0.00    +0.011 A 
ATOM      3  C   UNL     1       4.184   0.610   2.427  0.00  0.00    +0.012 A 
ATOM      4  C   UNL     1       4.631  -0.049   3.555  0.00  0.00    +0.047 A 
ATOM      5  C   UNL     1       5.001  -1.385   3.477  0.00  0.00    +0.135 A 
ATOM      6  C   UNL     1       4.921  -2.054   2.266  0.00  0.00    +0.093 A 
ATOM      7  C   UNL     1       4.471  -1.389   1.132  0.00  0.00    +0.138 A 
ATOM      8  O   UNL     1       4.400  -2.057  -0.045  0.00  0.00    -0.441 OA
ATOM      9  C   UNL     1       4.349  -1.375  -1.201  0.00  0.00    +0.199 C 
ATOM     10  C   UNL     1       3.984  -0.075  -1.247  0.00  0.00    +0.101 C 
ENDROOT
BRANCH   1  13
ATOM     11  C   UNL     1       0.063   1.655   0.160  0.00  0.00    +0.041 A 
ATOM     12  C   UNL     1       1.436   1.985   0.091  0.00  0.00    +0.045 A 
ATOM     13  C   UNL     1       2.116   0.825   0.069  0.00  0.00    +0.117 A 
ATOM     14  O   UNL     1       1.233  -0.186   0.119  0.00  0.00    -0.467 OA
ATOM     15  C   UNL     1      -0.014   0.312   0.175  0.00  0.00    +0.195 A 
ENDBRANCH   1  13
BRANCH   9  16
ATOM     16  N   UNL     1       4.678  -2.017  -2.369  0.00  0.00    -0.328 N 
ATOM     17  H   UNL     1       4.941  -2.951  -2.351  0.00  0.00    +0.145 HD
ATOM     18  H   UNL     1       4.646  -1.538  -3.211  0.00  0.00    +0.145 HD
ENDBRANCH   9  16
BRANCH  10  19
ATOM     19  C   UNL     1       3.950   0.596  -2.512  0.00  0.00    +0.101 C 
ATOM     20  N   UNL     1       3.923   1.127  -3.515  0.00  0.00    -0.191 NA
ENDBRANCH  10  19
BRANCH   5  21
ATOM     21  O   UNL     1       5.442  -2.035   4.585  0.00  0.00    -0.423 OA
BRANCH  21  22
ATOM     22  C   UNL     1       4.551  -2.291   5.566  0.00  0.00    +0.337 C 
ATOM     23  O   UNL     1       3.373  -2.036   5.399  0.00  0.00    -0.245 OA
BRANCH  22  24
ATOM     24  C   UNL     1       5.001  -2.874   6.828  0.00  0.00    +0.092 C 
ATOM     25  C   UNL     1       4.109  -3.129   7.809  0.00  0.00    +0.016 C 
BRANCH  25  26
ATOM     26  C   UNL     1       4.562  -3.716   9.079  0.00  0.00    -0.006 A 
ATOM     27  C   UNL     1       5.917  -4.005   9.277  0.00  0.00    +0.011 A 
ATOM     28  C   UNL     1       6.334  -4.554  10.470  0.00  0.00    +0.020 A 
ATOM     29  C   UNL     1       5.416  -4.820  11.474  0.00  0.00    +0.042 A 
ATOM     30  C   UNL     1       4.073  -4.538  11.287  0.00  0.00    +0.040 A 
ATOM     31  C   UNL     1       3.641  -3.982  10.099  0.00  0.00    +0.049 A 
ATOM     32 CL   UNL     1       1.958  -3.622   9.869  0.00  0.00    -0.083 Cl
ATOM     33 CL   UNL     1       5.952  -5.512  12.973  0.00  0.00    -0.083 Cl
ENDBRANCH  25  26
ENDBRANCH  22  24
ENDBRANCH  21  22
ENDBRANCH   5  21
TORSDOF 7
