REMARK  Name = ZINC35556780
REMARK  9 active torsions:
REMARK  status: ('A' for Active; 'I' for Inactive)
REMARK    1  A    between atoms: C_1  and  C_2
REMARK    2  A    between atoms: C_5  and  C_9
REMARK    3  A    between atoms: C_6  and  C_8
REMARK    4  A    between atoms: C_9  and  C_11
REMARK    5  A    between atoms: C_9  and  C_25
REMARK    6  A    between atoms: C_11  and  C_12
REMARK    7  A    between atoms: N_14  and  C_15
REMARK    8  A    between atoms: C_15  and  C_16
REMARK    9  A    between atoms: C_16  and  C_17
REMARK                            x       y       z     vdW  Elec       q    Type
REMARK                         _______ _______ _______ _____ _____    ______ ____
ROOT
ATOM      1  C   UNL     1       0.554  -4.216   0.239  0.00  0.00    +0.060 C 
ENDROOT
BRANCH   1   2
ATOM      2  C   UNL     1      -0.561  -4.994  -0.409  0.00  0.00    -0.015 A 
ATOM      3  C   UNL     1      -0.935  -4.933  -1.697  0.00  0.00    +0.087 A 
ATOM      4  N   UNL     1      -1.985  -5.782  -1.919  0.00  0.00    -0.360 N 
ATOM      5  H   UNL     1      -2.426  -5.911  -2.773  0.00  0.00    +0.165 HD
ATOM      6  C   UNL     1      -2.321  -6.427  -0.750  0.00  0.00    +0.047 A 
ATOM      7  C   UNL     1      -1.440  -5.967   0.246  0.00  0.00    +0.003 A 
ATOM      8  C   UNL     1      -1.543  -6.458   1.548  0.00  0.00    +0.010 A 
ATOM      9  C   UNL     1      -2.498  -7.388   1.849  0.00  0.00    +0.001 A 
ATOM     10  C   UNL     1      -3.367  -7.848   0.869  0.00  0.00    +0.002 A 
ATOM     11  C   UNL     1      -3.289  -7.370  -0.421  0.00  0.00    +0.026 A 
ENDBRANCH   1   2
BRANCH   1  16
ATOM     12  C   UNL     1      -0.513   1.442  -0.250  0.00  0.00    +0.044 C 
ATOM     13  C   UNL     1      -0.235  -0.033  -0.123  0.00  0.00    -0.050 A 
ATOM     14  C   UNL     1       0.027  -0.787  -1.252  0.00  0.00    +0.003 A 
ATOM     15  C   UNL     1       0.283  -2.140  -1.135  0.00  0.00    +0.005 A 
ATOM     16  C   UNL     1       0.277  -2.740   0.111  0.00  0.00    -0.037 A 
ATOM     17  C   UNL     1       0.016  -1.986   1.240  0.00  0.00    -0.046 A 
ATOM     18  C   UNL     1      -0.236  -0.631   1.123  0.00  0.00    +0.007 A 
ATOM     19  C   UNL     1       0.009  -2.639   2.598  0.00  0.00    +0.044 C 
ENDBRANCH   1  16
BRANCH   1  20
ATOM     20  C   UNL     1       1.877  -4.547  -0.455  0.00  0.00    +0.108 C 
BRANCH  20  21
ATOM     21  C   UNL     1       3.009  -3.865   0.270  0.00  0.00    +0.214 C 
ATOM     22  O   UNL     1       2.780  -3.180   1.244  0.00  0.00    -0.276 OA
ATOM     23  N   UNL     1       4.276  -4.015  -0.166  0.00  0.00    -0.315 N 
ATOM     24  H   UNL     1       4.459  -4.562  -0.946  0.00  0.00    +0.149 HD
BRANCH  23  25
ATOM     25  C   UNL     1       5.376  -3.352   0.538  0.00  0.00    +0.109 C 
BRANCH  25  26
ATOM     26  C   UNL     1       6.699  -3.683  -0.155  0.00  0.00    +0.055 C 
BRANCH  26  27
ATOM     27  C   UNL     1       7.830  -3.001   0.569  0.00  0.00    -0.027 A 
ATOM     28  C   UNL     1       8.286  -1.770   0.135  0.00  0.00    +0.006 A 
ATOM     29  C   UNL     1       9.323  -1.143   0.799  0.00  0.00    +0.020 A 
ATOM     30  C   UNL     1       9.907  -1.748   1.898  0.00  0.00    +0.042 A 
ATOM     31  C   UNL     1       9.452  -2.979   2.333  0.00  0.00    +0.040 A 
ATOM     32  C   UNL     1       8.410  -3.604   1.671  0.00  0.00    +0.046 A 
ATOM     33 CL   UNL     1       7.833  -5.147   2.220  0.00  0.00    -0.083 Cl
ATOM     34 CL   UNL     1      11.211  -0.961   2.731  0.00  0.00    -0.083 Cl
ENDBRANCH  26  27
ENDBRANCH  25  26
ENDBRANCH  23  25
ENDBRANCH  20  21
ENDBRANCH   1  20
TORSDOF 7
