REMARK  Name = ZINC66307357
REMARK  9 active torsions:
REMARK  status: ('A' for Active; 'I' for Inactive)
REMARK    1  A    between atoms: C_1  and  C_2
REMARK    2  A    between atoms: C_5  and  C_12
REMARK    3  A    between atoms: C_8  and  C_10
REMARK    4  A    between atoms: C_8  and  C_11
REMARK    5  A    between atoms: C_12  and  C_13
REMARK    6  A    between atoms: C_18  and  N_21
REMARK    7  A    between atoms: C_22  and  C_24
REMARK    8  A    between atoms: C_24  and  C_25
REMARK    9  A    between atoms: C_25  and  C_26
REMARK                            x       y       z     vdW  Elec       q    Type
REMARK                         _______ _______ _______ _____ _____    ______ ____
ROOT
ATOM      1  C   UNL     1       0.660  -2.126  -3.742  0.00  0.00    +0.216 C 
ATOM      2  O   UNL     1      -0.378  -1.511  -3.615  0.00  0.00    -0.276 OA
ATOM      3  N   UNL     1       1.101  -2.457  -4.971  0.00  0.00    -0.301 N 
ATOM      4  C   UNL     1       2.353  -3.208  -5.140  0.00  0.00    +0.109 C 
ATOM      5  C   UNL     1       3.261  -2.441  -6.108  0.00  0.00    +0.041 C 
ATOM      6  C   UNL     1       2.504  -2.180  -7.412  0.00  0.00    +0.076 C 
ATOM      7  C   UNL     1       1.270  -1.321  -7.124  0.00  0.00    +0.041 C 
ATOM      8  C   UNL     1       0.337  -2.079  -6.168  0.00  0.00    +0.109 C 
ENDROOT
BRANCH   6   9
ATOM      9  N   UNL     1       3.380  -1.476  -8.352  0.00  0.00    -0.312 N 
ATOM     10  C   UNL     1       3.161  -1.573  -9.678  0.00  0.00    +0.214 C 
ATOM     11  O   UNL     1       2.239  -2.242 -10.094  0.00  0.00    -0.276 OA
ATOM     12  H   UNL     1       4.117  -0.941  -8.020  0.00  0.00    +0.149 HD
BRANCH  10  13
ATOM     13  C   UNL     1       4.062  -0.849 -10.646  0.00  0.00    +0.100 C 
BRANCH  13  14
ATOM     14  C   UNL     1       3.599  -1.124 -12.078  0.00  0.00    +0.044 C 
BRANCH  14  15
ATOM     15  C   UNL     1       4.500  -0.400 -13.045  0.00  0.00    -0.047 A 
ATOM     16  C   UNL     1       4.199   0.892 -13.435  0.00  0.00    +0.003 A 
ATOM     17  C   UNL     1       5.026   1.556 -14.322  0.00  0.00    +0.000 A 
ATOM     18  C   UNL     1       6.153   0.928 -14.819  0.00  0.00    +0.000 A 
ATOM     19  C   UNL     1       6.454  -0.363 -14.427  0.00  0.00    +0.000 A 
ATOM     20  C   UNL     1       5.630  -1.025 -13.537  0.00  0.00    +0.003 A 
ENDBRANCH  14  15
ENDBRANCH  13  14
ENDBRANCH  10  13
ENDBRANCH   6   9
BRANCH   1  21
ATOM     21  C   UNL     1       1.455  -2.521  -2.524  0.00  0.00    +0.099 C 
BRANCH  21  25
ATOM     22  C   UNL     1      -0.019   1.526   0.010  0.00  0.00    +0.007 C 
ATOM     23  C   UNL     1       0.002  -0.004   0.002  0.00  0.00    -0.013 C 
ATOM     24  C   UNL     1       0.718  -0.497  -1.257  0.00  0.00    +0.007 C 
ATOM     25  C   UNL     1       0.739  -2.027  -1.265  0.00  0.00    -0.002 C 
ATOM     26  C   UNL     1       1.479  -2.534  -0.026  0.00  0.00    +0.010 C 
ATOM     27  C   UNL     1       0.763  -2.041   1.233  0.00  0.00    -0.034 C 
ATOM     28  C   UNL     1       0.742  -0.511   1.242  0.00  0.00    +0.009 C 
ATOM     29  C   UNL     1       1.503  -2.548   2.473  0.00  0.00    +0.011 C 
ATOM     30  C   UNL     1      -0.673  -2.570   1.244  0.00  0.00    +0.011 C 
ENDBRANCH  21  25
ENDBRANCH   1  21
TORSDOF 6
