REMARK  Name = ZINC06665178
REMARK  8 active torsions:
REMARK  status: ('A' for Active; 'I' for Inactive)
REMARK    1  A    between atoms: C_1  and  C_2
REMARK    2  A    between atoms: C_6  and  O_28
REMARK    3  A    between atoms: C_12  and  C_13
REMARK    4  A    between atoms: C_13  and  C_14
REMARK    5  A    between atoms: C_14  and  N_16
REMARK    6  A    between atoms: O_28  and  C_29
REMARK    7  A    between atoms: C_29  and  C_30
REMARK    8  A    between atoms: C_30  and  C_32
REMARK                            x       y       z     vdW  Elec       q    Type
REMARK                         _______ _______ _______ _____ _____    ______ ____
ROOT
ATOM      1  C   UNL     1       0.002   1.446   0.258  0.00  0.00    +0.045 C 
ATOM      2  C   UNL     1       0.025  -0.054   0.110  0.00  0.00    -0.029 A 
ATOM      3  C   UNL     1      -1.207  -0.839   0.210  0.00  0.00    +0.021 A 
ATOM      4  C   UNL     1      -2.439  -0.218   0.446  0.00  0.00    +0.015 A 
ATOM      5  C   UNL     1      -3.572  -0.973   0.534  0.00  0.00    +0.046 A 
ATOM      6  C   UNL     1      -3.511  -2.358   0.392  0.00  0.00    +0.124 A 
ATOM      7  C   UNL     1      -2.300  -2.988   0.158  0.00  0.00    +0.092 A 
ATOM      8  C   UNL     1      -1.139  -2.237   0.065  0.00  0.00    +0.143 A 
ATOM      9  O   UNL     1       0.052  -2.831  -0.163  0.00  0.00    -0.422 OA
ATOM     10  C   UNL     1       1.185  -2.118  -0.256  0.00  0.00    +0.341 A 
ATOM     11  O   UNL     1       2.236  -2.698  -0.463  0.00  0.00    -0.245 OA
ATOM     12  C   UNL     1       1.189  -0.714  -0.126  0.00  0.00    +0.049 A 
ENDROOT
BRANCH  12  13
ATOM     13  C   UNL     1       2.482   0.052  -0.243  0.00  0.00    +0.140 C 
BRANCH  13  14
ATOM     14  C   UNL     1       3.172   0.080   1.096  0.00  0.00    +0.244 C 
ATOM     15  O   UNL     1       2.663  -0.469   2.054  0.00  0.00    -0.273 OA
BRANCH  14  16
ATOM     16  N   UNL     1       4.337   0.706   1.230  0.00  0.00    -0.147 NA
ATOM     17  C   UNL     1       4.995   0.647   2.386  0.00  0.00    +0.198 A 
ATOM     18  N   UNL     1       4.531   0.073   3.527  0.00  0.00    -0.326 N 
ATOM     19  H   UNL     1       3.671  -0.361   3.635  0.00  0.00    +0.169 HD
ATOM     20  C   UNL     1       5.503   0.214   4.512  0.00  0.00    +0.065 A 
ATOM     21  C   UNL     1       5.567  -0.174   5.843  0.00  0.00    +0.028 A 
ATOM     22  C   UNL     1       6.691   0.113   6.590  0.00  0.00    +0.002 A 
ATOM     23  C   UNL     1       7.756   0.788   6.018  0.00  0.00    +0.002 A 
ATOM     24  C   UNL     1       7.703   1.179   4.695  0.00  0.00    +0.028 A 
ATOM     25  C   UNL     1       6.577   0.895   3.935  0.00  0.00    +0.065 A 
ATOM     26  N   UNL     1       6.238   1.148   2.610  0.00  0.00    -0.326 N 
ATOM     27  H   UNL     1       6.793   1.605   1.958  0.00  0.00    +0.169 HD
ENDBRANCH  14  16
ENDBRANCH  13  14
ENDBRANCH  12  13
BRANCH   6  28
ATOM     28  O   UNL     1      -4.647  -3.095   0.483  0.00  0.00    -0.488 OA
BRANCH  28  29
ATOM     29  C   UNL     1      -5.864  -2.385   0.725  0.00  0.00    +0.259 C 
BRANCH  29  30
ATOM     30  C   UNL     1      -7.010  -3.361   0.795  0.00  0.00    -0.043 C 
ATOM     31  C   UNL     1      -6.789  -4.643   0.639  0.00  0.00    +0.011 C 
ATOM     32  C   UNL     1      -8.410  -2.863   1.043  0.00  0.00    +0.042 C 
ENDBRANCH  29  30
ENDBRANCH  28  29
ENDBRANCH   6  28
TORSDOF 6
