REMARK  Name = ZINC20356688
REMARK  6 active torsions:
REMARK  status: ('A' for Active; 'I' for Inactive)
REMARK    1  A    between atoms: C_1  and  C_2
REMARK    2  A    between atoms: C_2  and  C_3
REMARK    3  A    between atoms: C_8  and  N_9
REMARK    4  A    between atoms: C_10  and  C_33
REMARK    5  A    between atoms: C_12  and  C_15
REMARK    6  A    between atoms: C_13  and  C_14
REMARK                            x       y       z     vdW  Elec       q    Type
REMARK                         _______ _______ _______ _____ _____    ______ ____
ROOT
ATOM      1  C   UNL     1       4.890   1.631   1.762  0.00  0.00    +0.026 C 
ATOM      2  C   UNL     1       6.021   1.308   2.483  0.00  0.00    +0.081 C 
ATOM      3  C   UNL     1       6.546  -0.084   2.539  0.00  0.00    +0.153 C 
ATOM      4  N   UNL     1       6.451  -0.927   1.543  0.00  0.00    -0.283 NA
ATOM      5  N   UNL     1       7.154  -0.405   3.769  0.00  0.00    -0.150 N 
ATOM      6  C   UNL     1       7.635   0.636   4.532  0.00  0.00    +0.182 C 
ATOM      7  N   UNL     1       7.513   1.919   4.298  0.00  0.00    -0.152 NA
ATOM      8  C   UNL     1       6.783   2.331   3.240  0.00  0.00    +0.273 C 
ATOM      9  O   UNL     1       6.747   3.508   2.917  0.00  0.00    -0.268 OA
ATOM     10  S   UNL     1       8.417  -0.214   5.877  0.00  0.00    -0.018 S 
ATOM     11  C   UNL     1       7.970  -1.877   5.396  0.00  0.00    +0.182 C 
ATOM     12  N   UNL     1       7.322  -1.676   4.276  0.00  0.00    -0.149 NA
ATOM     13  N   UNL     1       8.240  -3.072   6.043  0.00  0.00    -0.304 N 
ATOM     14  C   UNL     1       7.789  -4.356   5.481  0.00  0.00    +0.135 C 
ATOM     15  C   UNL     1       8.986  -5.313   5.442  0.00  0.00    +0.179 C 
ATOM     16  O   UNL     1       9.591  -5.363   6.737  0.00  0.00    -0.377 OA
ATOM     17  C   UNL     1      10.125  -4.114   7.182  0.00  0.00    +0.179 C 
ATOM     18  C   UNL     1       8.992  -3.096   7.307  0.00  0.00    +0.135 C 
ATOM     19  H   UNL     1       6.745  -1.845   1.655  0.00  0.00    +0.188 HD
ENDROOT
BRANCH   1  23
ATOM     20  N   UNL     1       2.678  -0.500  -0.098  0.00  0.00    -0.317 N 
ATOM     21  C   UNL     1       3.113  -1.396   0.839  0.00  0.00    +0.022 A 
ATOM     22  C   UNL     1       3.979  -0.787   1.665  0.00  0.00    +0.031 A 
ATOM     23  C   UNL     1       4.090   0.603   1.200  0.00  0.00    -0.003 A 
ATOM     24  C   UNL     1       3.257   0.702   0.098  0.00  0.00    +0.028 A 
ATOM     25  C   UNL     1       3.033   1.939  -0.734  0.00  0.00    +0.064 C 
ATOM     26  C   UNL     1       2.687  -2.839   0.930  0.00  0.00    +0.064 C 
BRANCH  20  32
ATOM     27  C   UNL     1       0.401  -0.750  -0.868  0.00  0.00    -0.024 A 
ATOM     28  C   UNL     1      -0.496  -1.032  -1.880  0.00  0.00    +0.005 A 
ATOM     29  C   UNL     1      -0.036  -1.360  -3.142  0.00  0.00    +0.000 A 
ATOM     30  C   UNL     1       1.323  -1.407  -3.396  0.00  0.00    +0.002 A 
ATOM     31  C   UNL     1       2.225  -1.125  -2.388  0.00  0.00    +0.026 A 
ATOM     32  C   UNL     1       1.766  -0.791  -1.121  0.00  0.00    +0.050 A 
BRANCH  27  34
ATOM     33  C   UNL     1      -0.212   1.128   0.630  0.00  0.00    +0.009 C 
ATOM     34  C   UNL     1      -0.101  -0.393   0.507  0.00  0.00    +0.034 C 
ENDBRANCH  27  34
ENDBRANCH  20  32
ENDBRANCH   1  23
TORSDOF 3
