REMARK  Name = ZINC09288009
REMARK  7 active torsions:
REMARK  status: ('A' for Active; 'I' for Inactive)
REMARK    1  A    between atoms: C_1  and  C_2
REMARK    2  A    between atoms: C_2  and  O_3
REMARK    3  A    between atoms: O_3  and  C_4
REMARK    4  A    between atoms: C_10  and  C_32
REMARK    5  A    between atoms: C_20  and  C_24
REMARK    6  A    between atoms: C_21  and  C_23
REMARK    7  A    between atoms: C_24  and  C_25
REMARK                            x       y       z     vdW  Elec       q    Type
REMARK                         _______ _______ _______ _____ _____    ______ ____
ROOT
ATOM      1  C   UNL     1      -2.163   2.609  -0.978  0.00  0.00    +0.121 A 
ATOM      2  C   UNL     1      -2.002   3.997  -0.954  0.00  0.00    +0.048 A 
ATOM      3  C   UNL     1      -0.776   4.558  -0.767  0.00  0.00    +0.032 A 
ATOM      4  C   UNL     1       0.345   3.733  -0.588  0.00  0.00    +0.077 A 
ATOM      5  C   UNL     1       0.182   2.324  -0.606  0.00  0.00    +0.025 A 
ATOM      6  C   UNL     1      -1.094   1.776  -0.802  0.00  0.00    +0.057 A 
ATOM      7  C   UNL     1       1.321   1.517  -0.426  0.00  0.00    +0.051 A 
ATOM      8  N   UNL     1       2.485   2.106  -0.248  0.00  0.00    -0.219 NA
ATOM      9  C   UNL     1       2.601   3.432  -0.237  0.00  0.00    +0.222 A 
ATOM     10  N   UNL     1       1.571   4.237  -0.400  0.00  0.00    -0.214 NA
ATOM     11  N   UNL     1       3.858   3.988  -0.045  0.00  0.00    -0.254 N 
ATOM     12  C   UNL     1       4.009   5.352  -0.028  0.00  0.00    +0.202 A 
ATOM     13  N   UNL     1       5.246   5.885   0.161  0.00  0.00    -0.295 N 
ATOM     14  H   UNL     1       6.013   5.304   0.283  0.00  0.00    +0.172 HD
ATOM     15  C   UNL     1       5.403   7.226   0.178  0.00  0.00    +0.256 A 
ATOM     16  O   UNL     1       6.505   7.721   0.346  0.00  0.00    -0.267 OA
ATOM     17  C   UNL     1       4.271   8.041  -0.001  0.00  0.00    +0.042 A 
ATOM     18  C   UNL     1       3.055   7.450  -0.187  0.00  0.00    +0.050 A 
ATOM     19  N   UNL     1       2.954   6.122  -0.201  0.00  0.00    -0.221 NA
ATOM     20  C   UNL     1       1.827   8.300  -0.381  0.00  0.00    +0.066 C 
ATOM     21  C   UNL     1       1.210   0.014  -0.435  0.00  0.00    +0.066 C 
ATOM     22  H   UNL     1       4.630   3.413   0.077  0.00  0.00    +0.158 HD
ENDROOT
BRANCH   1  23
ATOM     23  O   UNL     1      -3.400   2.080  -1.174  0.00  0.00    -0.492 OA
BRANCH  23  25
ATOM     24  C   UNL     1      -5.782   2.226  -1.557  0.00  0.00    +0.048 C 
ATOM     25  C   UNL     1      -4.479   3.000  -1.352  0.00  0.00    +0.225 C 
ENDBRANCH  23  25
ENDBRANCH   1  23
BRANCH  17  26
ATOM     26  C   UNL     1       4.398   9.543   0.011  0.00  0.00    +0.079 C 
BRANCH  26  27
ATOM     27  C   UNL     1       4.384  10.037   1.434  0.00  0.00    -0.025 A 
ATOM     28  C   UNL     1       3.182  10.203   2.097  0.00  0.00    +0.005 A 
ATOM     29  C   UNL     1       3.170  10.652   3.404  0.00  0.00    +0.000 A 
ATOM     30  C   UNL     1       4.358  10.945   4.046  0.00  0.00    +0.001 A 
ATOM     31  C   UNL     1       5.560  10.785   3.383  0.00  0.00    +0.020 A 
ATOM     32  C   UNL     1       5.574  10.330   2.076  0.00  0.00    +0.044 A 
ATOM     33 CL   UNL     1       7.083  10.128   1.243  0.00  0.00    -0.083 Cl
ENDBRANCH  26  27
ENDBRANCH  17  26
TORSDOF 4
