REMARK  Name = ZINC09111383
REMARK  4 active torsions:
REMARK  status: ('A' for Active; 'I' for Inactive)
REMARK    1  A    between atoms: C_4  and  C_7
REMARK    2  A    between atoms: C_7  and  C_9
REMARK    3  A    between atoms: C_11  and  C_34
REMARK    4  A    between atoms: C_34  and  C_36
REMARK                            x       y       z     vdW  Elec       q    Type
REMARK                         _______ _______ _______ _____ _____    ______ ____
ROOT
ATOM      1  C   UNL     1       4.774   0.014  -0.038  0.00  0.00    +0.157 C 
ATOM      2  C   UNL     1       5.488   0.535   1.242  0.00  0.00    +0.110 C 
ATOM      3  C   UNL     1       6.994   0.430   0.913  0.00  0.00    +0.108 C 
ATOM      4  C   UNL     1       7.710  -0.456   1.874  0.00  0.00    -0.008 A 
ATOM      5  C   UNL     1       7.551  -1.787   2.194  0.00  0.00    +0.006 A 
ATOM      6  C   UNL     1       8.405  -2.312   3.158  0.00  0.00    +0.000 A 
ATOM      7  C   UNL     1       9.369  -1.533   3.765  0.00  0.00    +0.002 A 
ATOM      8  C   UNL     1       9.536  -0.194   3.449  0.00  0.00    +0.023 A 
ATOM      9  C   UNL     1       8.684   0.346   2.485  0.00  0.00    +0.038 A 
ATOM     10  N   UNL     1       8.627   1.637   1.987  0.00  0.00    -0.284 N 
ATOM     11  C   UNL     1       7.659   1.777   1.055  0.00  0.00    +0.231 C 
ATOM     12  O   UNL     1       7.379   2.790   0.449  0.00  0.00    -0.274 OA
ATOM     13  C   UNL     1       7.051  -0.079  -0.520  0.00  0.00    +0.117 C 
ATOM     14  N   UNL     1       5.783  -0.844  -0.670  0.00  0.00    -0.311 N 
ATOM     15  C   UNL     1       5.619  -1.203  -1.986  0.00  0.00    +0.038 A 
ATOM     16  C   UNL     1       4.419  -1.105  -2.664  0.00  0.00    +0.024 A 
ATOM     17  C   UNL     1       4.345  -1.483  -3.992  0.00  0.00    +0.002 A 
ATOM     18  C   UNL     1       5.465  -1.960  -4.651  0.00  0.00    +0.001 A 
ATOM     19  C   UNL     1       6.673  -2.068  -3.989  0.00  0.00    +0.010 A 
ATOM     20  C   UNL     1       6.762  -1.694  -2.655  0.00  0.00    -0.004 A 
ATOM     21  C   UNL     1       8.034  -1.798  -1.902  0.00  0.00    +0.007 C 
ATOM     22  C   UNL     1       8.193  -0.996  -0.834  0.00  0.00    -0.003 C 
ATOM     23  H   UNL     1       9.213   2.355   2.272  0.00  0.00    +0.155 HD
ENDROOT
BRANCH   1  24
ATOM     24  C   UNL     1       3.550  -0.786   0.326  0.00  0.00    +0.184 C 
ATOM     25  O   UNL     1       3.631  -1.987   0.473  0.00  0.00    -0.290 OA
BRANCH  24  29
ATOM     26  C   UNL     1      -0.183   1.163   0.834  0.00  0.00    +0.000 A 
ATOM     27  C   UNL     1       0.910   1.879   0.378  0.00  0.00    +0.001 A 
ATOM     28  C   UNL     1       2.127   1.252   0.211  0.00  0.00    +0.011 A 
ATOM     29  C   UNL     1       2.255  -0.110   0.503  0.00  0.00    +0.019 A 
ATOM     30  C   UNL     1       1.145  -0.825   0.963  0.00  0.00    +0.011 A 
ATOM     31  C   UNL     1      -0.065  -0.184   1.126  0.00  0.00    +0.001 A 
ENDBRANCH  24  29
ENDBRANCH   1  24
BRANCH   2  32
ATOM     32  C   UNL     1       5.104   1.967   1.511  0.00  0.00    +0.176 C 
ATOM     33  O   UNL     1       4.820   2.704   0.588  0.00  0.00    -0.291 OA
BRANCH  32  34
ATOM     34  C   UNL     1       5.074   2.453   2.837  0.00  0.00    +0.055 A 
ATOM     35  C   UNL     1       4.756   3.727   3.297  0.00  0.00    +0.019 A 
ATOM     36  C   UNL     1       4.803   3.928   4.652  0.00  0.00    +0.008 A 
ATOM     37  C   UNL     1       5.161   2.898   5.466  0.00  0.00    +0.046 A 
ATOM     38  S   UNL     1       5.441   1.595   4.357  0.00  0.00    -0.094 S 
ENDBRANCH  32  34
ENDBRANCH   2  32
TORSDOF 4
