REMARK  Name = ZINC06441941
REMARK  10 active torsions:
REMARK  status: ('A' for Active; 'I' for Inactive)
REMARK    1  A    between atoms: C_1  and  C_2
REMARK    2  A    between atoms: C_7  and  C_15
REMARK    3  A    between atoms: C_13  and  C_14
REMARK    4  A    between atoms: C_15  and  C_17
REMARK    5  A    between atoms: C_15  and  N_68
REMARK    6  A    between atoms: N_21  and  C_22
REMARK    7  A    between atoms: C_22  and  C_23
REMARK    8  A    between atoms: C_22  and  C_24
REMARK    9  A    between atoms: C_22  and  C_25
REMARK   10  A    between atoms: N_28  and  C_31
REMARK                            x       y       z     vdW  Elec       q    Type
REMARK                         _______ _______ _______ _____ _____    ______ ____
ROOT
ATOM      1  C   UNL     1      -2.593   4.330   0.083  0.00  0.00    +0.039 C 
ENDROOT
BRANCH   1   8
ATOM      2  C   UNL     1       4.281   0.360   0.863  0.00  0.00    +0.044 C 
ATOM      3  C   UNL     1       2.882   0.899   0.703  0.00  0.00    -0.046 A 
ATOM      4  C   UNL     1       1.817   0.018   0.574  0.00  0.00    +0.004 A 
ATOM      5  C   UNL     1       0.542   0.485   0.429  0.00  0.00    +0.010 A 
ATOM      6  C   UNL     1       0.307   1.864   0.408  0.00  0.00    -0.001 A 
ATOM      7  C   UNL     1      -1.047   2.400   0.260  0.00  0.00    +0.017 A 
ATOM      8  C   UNL     1      -1.213   3.746   0.240  0.00  0.00    +0.011 A 
ATOM      9  C   UNL     1      -0.099   4.601   0.374  0.00  0.00    +0.251 A 
ATOM     10  O   UNL     1      -0.271   5.808   0.360  0.00  0.00    -0.268 OA
ATOM     11  N   UNL     1       1.148   4.119   0.516  0.00  0.00    -0.322 N 
ATOM     12  H   UNL     1       1.892   4.735   0.605  0.00  0.00    +0.169 HD
ATOM     13  C   UNL     1       1.385   2.761   0.538  0.00  0.00    +0.052 A 
ATOM     14  C   UNL     1       2.675   2.261   0.686  0.00  0.00    -0.024 A 
ATOM     15  C   UNL     1       3.840   3.206   0.827  0.00  0.00    +0.046 C 
ENDBRANCH   1   8
BRANCH   1  21
ATOM     16  C   UNL     1      -2.709   4.565   2.491  0.00  0.00    -0.058 C 
ATOM     17  C   UNL     1      -2.924   5.571   3.624  0.00  0.00    +0.086 C 
ATOM     18  N   UNL     1      -4.264   6.161   3.504  0.00  0.00    -0.333 N 
ATOM     19  C   UNL     1      -4.423   6.842   2.211  0.00  0.00    +0.086 C 
ATOM     20  C   UNL     1      -4.208   5.836   1.078  0.00  0.00    -0.058 C 
ATOM     21  N   UNL     1      -2.849   5.267   1.198  0.00  0.00    +0.391 N 
ATOM     22  H   UNL     1      -2.163   6.030   1.156  0.00  0.00    -0.080 HD
BRANCH  18  23
ATOM     23  C   UNL     1      -4.525   7.032   4.564  0.00  0.00    +0.030 A 
ATOM     24  C   UNL     1      -4.874   8.353   4.310  0.00  0.00    +0.023 A 
ATOM     25  C   UNL     1      -5.135   9.211   5.360  0.00  0.00    +0.002 A 
ATOM     26  C   UNL     1      -5.039   8.759   6.664  0.00  0.00    +0.000 A 
ATOM     27  C   UNL     1      -4.687   7.447   6.920  0.00  0.00    +0.002 A 
ATOM     28  C   UNL     1      -4.429   6.582   5.874  0.00  0.00    +0.023 A 
ENDBRANCH  18  23
ENDBRANCH   1  21
BRANCH   1  29
ATOM     29  C   UNL     1      -2.674   5.084  -1.219  0.00  0.00    +0.143 A 
ATOM     30  N   UNL     1      -2.068   6.209  -1.511  0.00  0.00    -0.115 NA
ATOM     31  N   UNL     1      -2.387   6.532  -2.716  0.00  0.00    -0.023 NA
ATOM     32  N   UNL     1      -3.182   5.643  -3.201  0.00  0.00    -0.043 NA
ATOM     33  N   UNL     1      -3.379   4.731  -2.310  0.00  0.00    -0.225 N 
BRANCH  33  34
ATOM     34  C   UNL     1      -4.215   3.537  -2.457  0.00  0.00    +0.059 C 
ATOM     35  C   UNL     1      -5.367   3.594  -1.452  0.00  0.00    +0.036 C 
ATOM     36  C   UNL     1      -4.780   3.482  -3.878  0.00  0.00    +0.036 C 
ATOM     37  C   UNL     1      -3.370   2.288  -2.195  0.00  0.00    +0.036 C 
ENDBRANCH  33  34
ENDBRANCH   1  29
TORSDOF 5
