REMARK  Name = ZINC12620434
REMARK  6 active torsions:
REMARK  status: ('A' for Active; 'I' for Inactive)
REMARK    1  A    between atoms: C_4  and  C_7
REMARK    2  A    between atoms: C_9  and  N_17
REMARK    3  A    between atoms: N_17  and  N_18
REMARK    4  A    between atoms: C_19  and  C_20
REMARK    5  A    between atoms: N_27  and  C_35
REMARK    6  A    between atoms: C_28  and  C_29
REMARK                            x       y       z     vdW  Elec       q    Type
REMARK                         _______ _______ _______ _____ _____    ______ ____
ROOT
ATOM      1  C   UNL     1       2.259  -6.318  -2.672  0.00  0.00    +0.028 A 
ATOM      2  C   UNL     1       1.520  -7.201  -1.754  0.00  0.00    +0.009 A 
ATOM      3  C   UNL     1       0.641  -6.969  -0.696  0.00  0.00    +0.010 A 
ATOM      4  C   UNL     1       0.094  -8.036  -0.017  0.00  0.00    +0.001 A 
ATOM      5  C   UNL     1       0.409  -9.336  -0.385  0.00  0.00    +0.002 A 
ATOM      6  C   UNL     1       1.271  -9.580  -1.432  0.00  0.00    +0.027 A 
ATOM      7  C   UNL     1       1.835  -8.517  -2.131  0.00  0.00    +0.055 A 
ATOM      8  N   UNL     1       2.711  -8.456  -3.197  0.00  0.00    -0.308 N 
ATOM      9  C   UNL     1       2.968  -7.146  -3.525  0.00  0.00    +0.064 A 
ENDROOT
BRANCH   9  10
ATOM     10  C   UNL     1       3.857  -6.694  -4.612  0.00  0.00    -0.001 A 
ATOM     11  C   UNL     1       5.114  -7.282  -4.781  0.00  0.00    +0.010 A 
ATOM     12  C   UNL     1       5.937  -6.859  -5.803  0.00  0.00    +0.001 A 
ATOM     13  C   UNL     1       5.527  -5.847  -6.652  0.00  0.00    +0.000 A 
ATOM     14  C   UNL     1       4.287  -5.255  -6.487  0.00  0.00    +0.001 A 
ATOM     15  C   UNL     1       3.450  -5.672  -5.473  0.00  0.00    +0.010 A 
ENDBRANCH   9  10
BRANCH   8  16
ATOM     16  C   UNL     1       3.258  -9.567  -3.849  0.00  0.00    +0.047 A 
ATOM     17  C   UNL     1       2.938  -9.822  -5.177  0.00  0.00    +0.026 A 
ATOM     18  C   UNL     1       3.484 -10.915  -5.819  0.00  0.00    +0.002 A 
ATOM     19  C   UNL     1       4.339 -11.763  -5.139  0.00  0.00    +0.000 A 
ATOM     20  C   UNL     1       4.655 -11.515  -3.816  0.00  0.00    +0.002 A 
ATOM     21  C   UNL     1       4.117 -10.420  -3.169  0.00  0.00    +0.026 A 
ENDBRANCH   8  16
BRANCH   1  23
ATOM     22  N   UNL     1       1.530  -4.200  -1.809  0.00  0.00    -0.189 NA
ATOM     23  C   UNL     1       2.250  -4.849  -2.677  0.00  0.00    +0.141 C 
BRANCH  22  24
ATOM     24  N   UNL     1       1.522  -2.800  -1.814  0.00  0.00    -0.221 N 
ATOM     25  H   UNL     1       2.052  -2.313  -2.465  0.00  0.00    +0.176 HD
BRANCH  24  28
ATOM     26  C   UNL     1       0.002  -0.004   0.002  0.00  0.00    -0.005 A 
ATOM     27  C   UNL     1       0.764  -0.709  -0.916  0.00  0.00    +0.054 A 
ATOM     28  C   UNL     1       0.755  -2.108  -0.889  0.00  0.00    +0.139 A 
ATOM     29  N   UNL     1       0.043  -2.791  -0.017  0.00  0.00    -0.231 NA
ATOM     30  C   UNL     1      -0.721  -2.194   0.904  0.00  0.00    +0.074 A 
ATOM     31  C   UNL     1      -0.777  -0.781   0.967  0.00  0.00    +0.008 A 
ATOM     32  C   UNL     1      -1.581  -0.158   1.928  0.00  0.00    +0.010 A 
ATOM     33  C   UNL     1      -2.296  -0.920   2.804  0.00  0.00    +0.001 A 
ATOM     34  C   UNL     1      -2.240  -2.310   2.750  0.00  0.00    +0.002 A 
ATOM     35  C   UNL     1      -1.471  -2.947   1.824  0.00  0.00    +0.028 A 
BRANCH  26  39
ATOM     36  C   UNL     1      -0.056   4.246   0.025  0.00  0.00    +0.000 A 
ATOM     37  C   UNL     1       1.153   3.573   0.010  0.00  0.00    +0.001 A 
ATOM     38  C   UNL     1       1.179   2.194   0.003  0.00  0.00    +0.008 A 
ATOM     39  C   UNL     1      -0.018   1.477   0.010  0.00  0.00    -0.017 A 
ATOM     40  C   UNL     1      -1.234   2.161   0.020  0.00  0.00    +0.008 A 
ATOM     41  C   UNL     1      -1.246   3.541   0.033  0.00  0.00    +0.001 A 
ENDBRANCH  26  39
ENDBRANCH  24  28
ENDBRANCH  22  24
ENDBRANCH   1  23
TORSDOF 6
