REMARK  Name = ZINC33942124
REMARK  4 active torsions:
REMARK  status: ('A' for Active; 'I' for Inactive)
REMARK    1  A    between atoms: C_12  and  S_15
REMARK    2  A    between atoms: S_15  and  C_16
REMARK    3  A    between atoms: C_16  and  C_17
REMARK    4  A    between atoms: N_19  and  C_20
REMARK                            x       y       z     vdW  Elec       q    Type
REMARK                         _______ _______ _______ _____ _____    ______ ____
ROOT
ATOM      1  C   UNL     1      -0.017   1.373   0.062  0.00  0.00    +0.001 A 
ATOM      2  C   UNL     1       1.171   2.088   0.049  0.00  0.00    +0.002 A 
ATOM      3  C   UNL     1       2.383   1.432   0.024  0.00  0.00    +0.026 A 
ATOM      4  C   UNL     1       2.423   0.042   0.010  0.00  0.00    +0.050 A 
ATOM      5  C   UNL     1       1.220  -0.680   0.023  0.00  0.00    +0.029 A 
ATOM      6  C   UNL     1       0.002  -0.005   0.050  0.00  0.00    +0.012 A 
ATOM      7  C   UNL     1       1.590  -2.106   0.004  0.00  0.00    +0.137 A 
ATOM      8  C   UNL     1       3.000  -2.148  -0.020  0.00  0.00    +0.162 A 
ATOM      9  N   UNL     1       3.474  -0.860  -0.016  0.00  0.00    -0.338 N 
ATOM     10  H   UNL     1       4.413  -0.616  -0.029  0.00  0.00    +0.167 HD
ATOM     11  N   UNL     1       3.595  -3.337  -0.041  0.00  0.00    -0.201 NA
ATOM     12  C   UNL     1       2.851  -4.435  -0.038  0.00  0.00    +0.212 A 
ATOM     13  N   UNL     1       1.524  -4.369  -0.015  0.00  0.00    -0.122 NA
ATOM     14  N   UNL     1       0.904  -3.239   0.005  0.00  0.00    -0.143 NA
ENDROOT
BRANCH  12  15
ATOM     15  S   UNL     1       3.638  -6.012  -0.066  0.00  0.00    -0.075 S 
BRANCH  15  16
ATOM     16  C   UNL     1       2.259  -7.191  -0.053  0.00  0.00    +0.173 C 
BRANCH  16  17
ATOM     17  C   UNL     1       2.800  -8.597  -0.075  0.00  0.00    +0.227 C 
ATOM     18  O   UNL     1       3.998  -8.785  -0.097  0.00  0.00    -0.275 OA
ATOM     19  N   UNL     1       1.952  -9.645  -0.070  0.00  0.00    -0.285 N 
ATOM     20  H   UNL     1       0.998  -9.496   0.015  0.00  0.00    +0.155 HD
BRANCH  19  21
ATOM     21  C   UNL     1       2.450 -10.947  -0.189  0.00  0.00    +0.034 A 
ATOM     22  C   UNL     1       1.729 -11.907  -0.888  0.00  0.00    +0.023 A 
ATOM     23  C   UNL     1       2.223 -13.192  -1.003  0.00  0.00    +0.003 A 
ATOM     24  C   UNL     1       3.433 -13.524  -0.423  0.00  0.00    +0.015 A 
ATOM     25  C   UNL     1       4.154 -12.571   0.275  0.00  0.00    +0.020 A 
ATOM     26  C   UNL     1       3.668 -11.281   0.388  0.00  0.00    +0.038 A 
ATOM     27 BR   UNL     1       5.809 -13.030   1.067  0.00  0.00    -0.050 Br
ENDBRANCH  19  21
ENDBRANCH  16  17
ENDBRANCH  15  16
ENDBRANCH  12  15
TORSDOF 4
