REMARK  Name = ZINC07573685
REMARK  6 active torsions:
REMARK  status: ('A' for Active; 'I' for Inactive)
REMARK    1  A    between atoms: C_1  and  C_2
REMARK    2  A    between atoms: C_4  and  C_27
REMARK    3  A    between atoms: C_6  and  N_8
REMARK    4  A    between atoms: C_9  and  C_11
REMARK    5  A    between atoms: N_15  and  C_18
REMARK    6  A    between atoms: C_18  and  C_19
REMARK                            x       y       z     vdW  Elec       q    Type
REMARK                         _______ _______ _______ _____ _____    ______ ____
ROOT
ATOM      1  C   UNL     1       2.549  -0.652  -2.928  0.00  0.00    +0.101 A 
ATOM      2  C   UNL     1       3.441  -0.003  -3.780  0.00  0.00    +0.020 A 
ATOM      3  C   UNL     1       3.966   1.231  -3.396  0.00  0.00    +0.019 A 
ATOM      4  C   UNL     1       3.608   1.784  -2.209  0.00  0.00    +0.089 A 
ATOM      5  N   UNL     1       2.742   1.159  -1.376  0.00  0.00    -0.310 N 
ATOM      6  C   UNL     1       2.210  -0.036  -1.695  0.00  0.00    +0.264 A 
ATOM      7  O   UNL     1       1.437  -0.585  -0.930  0.00  0.00    -0.267 OA
ENDROOT
BRANCH   1   9
ATOM      8  N   UNL     1       1.025  -2.515  -2.523  0.00  0.00    -0.281 N 
ATOM      9  C   UNL     1       1.975  -1.954  -3.297  0.00  0.00    +0.253 C 
ATOM     10  O   UNL     1       2.357  -2.525  -4.301  0.00  0.00    -0.270 OA
ATOM     11  H   UNL     1       0.773  -2.097  -1.685  0.00  0.00    +0.155 HD
BRANCH   8  17
ATOM     12  C   UNL     1      -1.066  -6.810  -1.361  0.00  0.00    +0.044 C 
ATOM     13  C   UNL     1      -0.622  -5.799  -2.387  0.00  0.00    -0.048 A 
ATOM     14  C   UNL     1      -0.832  -6.042  -3.732  0.00  0.00    +0.006 A 
ATOM     15  C   UNL     1      -0.426  -5.117  -4.677  0.00  0.00    -0.048 A 
ATOM     16  C   UNL     1       0.190  -3.947  -4.279  0.00  0.00    +0.026 A 
ATOM     17  C   UNL     1       0.401  -3.699  -2.929  0.00  0.00    +0.034 A 
ATOM     18  C   UNL     1      -0.002  -4.633  -1.983  0.00  0.00    +0.026 A 
ATOM     19  C   UNL     1      -0.657  -5.387  -6.141  0.00  0.00    +0.044 C 
ENDBRANCH   8  17
ENDBRANCH   1   9
BRANCH   5  20
ATOM     20  C   UNL     1       2.382   1.792  -0.104  0.00  0.00    +0.161 C 
BRANCH  20  21
ATOM     21  C   UNL     1       1.117   2.591  -0.281  0.00  0.00    -0.009 A 
ATOM     22  C   UNL     1       0.560   2.735  -1.538  0.00  0.00    +0.008 A 
ATOM     23  C   UNL     1      -0.599   3.469  -1.701  0.00  0.00    +0.020 A 
ATOM     24  C   UNL     1      -1.204   4.060  -0.605  0.00  0.00    +0.042 A 
ATOM     25  C   UNL     1      -0.651   3.912   0.653  0.00  0.00    +0.040 A 
ATOM     26  C   UNL     1       0.513   3.182   0.815  0.00  0.00    +0.047 A 
ATOM     27 CL   UNL     1       1.213   3.001   2.394  0.00  0.00    -0.083 Cl
ATOM     28 CL   UNL     1      -2.661   4.982  -0.810  0.00  0.00    -0.083 Cl
ENDBRANCH  20  21
ENDBRANCH   5  20
TORSDOF 4
