REMARK  Name = ZINC41127781
REMARK  6 active torsions:
REMARK  status: ('A' for Active; 'I' for Inactive)
REMARK    1  A    between atoms: C_1  and  N_2
REMARK    2  A    between atoms: N_2  and  C_3
REMARK    3  A    between atoms: N_2  and  C_4
REMARK    4  A    between atoms: C_7  and  C_10
REMARK    5  A    between atoms: C_11  and  C_12
REMARK    6  A    between atoms: N_13  and  N_14
REMARK                            x       y       z     vdW  Elec       q    Type
REMARK                         _______ _______ _______ _____ _____    ______ ____
ROOT
ATOM      1  C   UNL     1      -0.025  -2.818  -7.292  0.00  0.00    +0.130 C 
ATOM      2  N   UNL     1      -0.039  -2.160  -8.417  0.00  0.00    -0.189 NA
ENDROOT
BRANCH   2   3
ATOM      3  N   UNL     1      -0.041  -2.854  -9.634  0.00  0.00    -0.219 N 
ATOM      4  C   UNL     1      -0.057  -2.155 -10.830  0.00  0.00    +0.176 A 
ATOM      5  C   UNL     1      -0.065  -0.746 -10.817  0.00  0.00    +0.171 A 
ATOM      6  N   UNL     1      -0.080  -0.069 -11.940  0.00  0.00    -0.230 NA
ATOM      7  C   UNL     1      -0.087  -0.719 -13.111  0.00  0.00    +0.091 A 
ATOM      8  C   UNL     1      -0.103  -0.017 -14.328  0.00  0.00    +0.030 A 
ATOM      9  C   UNL     1      -0.110  -0.702 -15.504  0.00  0.00    +0.002 A 
ATOM     10  C   UNL     1      -0.102  -2.095 -15.521  0.00  0.00    +0.002 A 
ATOM     11  C   UNL     1      -0.088  -2.809 -14.362  0.00  0.00    +0.030 A 
ATOM     12  C   UNL     1      -0.079  -2.136 -13.129  0.00  0.00    +0.091 A 
ATOM     13  N   UNL     1      -0.059  -2.813 -11.974  0.00  0.00    -0.226 NA
ATOM     14 CL   UNL     1      -0.055   0.100  -9.301  0.00  0.00    -0.058 Cl
ATOM     15  H   UNL     1      -0.032  -3.824  -9.639  0.00  0.00    +0.176 HD
ENDBRANCH   2   3
BRANCH   1  17
ATOM     16  C   UNL     1      -0.007  -2.797  -4.896  0.00  0.00    +0.009 C 
ATOM     17  C   UNL     1      -0.022  -2.116  -6.061  0.00  0.00    +0.022 C 
BRANCH  16  21
ATOM     18  C   UNL     1       0.000  -0.695  -1.210  0.00  0.00    +0.029 A 
ATOM     19  C   UNL     1       0.013  -2.086  -1.215  0.00  0.00    +0.023 A 
ATOM     20  C   UNL     1       0.011  -2.772  -2.409  0.00  0.00    +0.010 A 
ATOM     21  C   UNL     1      -0.005  -2.068  -3.618  0.00  0.00    -0.025 A 
ATOM     22  C   UNL     1      -0.018  -0.669  -3.608  0.00  0.00    +0.010 A 
ATOM     23  C   UNL     1      -0.021   0.009  -2.409  0.00  0.00    +0.023 A 
BRANCH  18  25
ATOM     24  C   UNL     1      -0.018   1.461   0.010  0.00  0.00    +0.129 C 
ATOM     25  N   UNL     1       0.002  -0.004   0.002  0.00  0.00    -0.336 N 
ATOM     26  C   UNL     1       0.024  -0.743   1.267  0.00  0.00    +0.129 C 
ENDBRANCH  18  25
ENDBRANCH  16  21
ENDBRANCH   1  17
TORSDOF 4
