REMARK  Name = ZINC28166549
REMARK  6 active torsions:
REMARK  status: ('A' for Active; 'I' for Inactive)
REMARK    1  A    between atoms: C_4  and  C_7
REMARK    2  A    between atoms: C_7  and  C_8
REMARK    3  A    between atoms: C_16  and  C_17
REMARK    4  A    between atoms: C_20  and  C_22
REMARK    5  A    between atoms: C_25  and  S_28
REMARK    6  A    between atoms: S_28  and  N_31
REMARK                            x       y       z     vdW  Elec       q    Type
REMARK                         _______ _______ _______ _____ _____    ______ ____
ROOT
ATOM      1  C   UNL     1      -4.064   5.273  -0.377  0.00  0.00    +0.157 A 
ATOM      2  N   UNL     1      -4.472   4.009  -0.255  0.00  0.00    -0.204 NA
ATOM      3  C   UNL     1      -3.433   3.226  -0.185  0.00  0.00    +0.200 A 
ATOM      4  N   UNL     1      -2.291   3.974  -0.260  0.00  0.00    -0.169 N 
ATOM      5  N   UNL     1      -2.762   5.309  -0.385  0.00  0.00    -0.146 NA
ATOM      6  C   UNL     1      -1.111   3.344  -0.204  0.00  0.00    +0.288 A 
ATOM      7  O   UNL     1      -0.071   3.975  -0.269  0.00  0.00    -0.265 OA
ATOM      8  C   UNL     1      -1.089   1.930  -0.070  0.00  0.00    +0.085 A 
ATOM      9  C   UNL     1      -0.013   1.076   0.008  0.00  0.00    +0.067 C 
ATOM     10  S   UNL     1      -2.837   1.558  -0.036  0.00  0.00    -0.044 S 
ENDROOT
BRANCH   9  11
ATOM     11  C   UNL     1       1.293   1.567  -0.197  0.00  0.00    +0.130 A 
ATOM     12  C   UNL     1       2.463   0.838  -0.074  0.00  0.00    +0.050 A 
ATOM     13  C   UNL     1       3.515   1.709  -0.368  0.00  0.00    +0.050 A 
ATOM     14  C   UNL     1       2.955   2.935  -0.650  0.00  0.00    +0.136 A 
ATOM     15  O   UNL     1       1.618   2.831  -0.542  0.00  0.00    -0.455 OA
BRANCH  14  16
ATOM     16  C   UNL     1       3.697   4.159  -1.009  0.00  0.00    +0.017 A 
ATOM     17  C   UNL     1       5.092   4.138  -1.082  0.00  0.00    +0.013 A 
ATOM     18  C   UNL     1       5.779   5.284  -1.424  0.00  0.00    +0.029 A 
ATOM     19  C   UNL     1       5.090   6.456  -1.683  0.00  0.00    +0.105 A 
ATOM     20  C   UNL     1       3.709   6.486  -1.607  0.00  0.00    +0.029 A 
ATOM     21  C   UNL     1       3.008   5.346  -1.272  0.00  0.00    +0.013 A 
BRANCH  19  22
ATOM     22  S   UNL     1       5.976   7.917  -2.111  0.00  0.00    +0.056 S 
ATOM     23  O   UNL     1       7.223   7.494  -2.648  0.00  0.00    -0.153 OA
ATOM     24  O   UNL     1       5.075   8.741  -2.838  0.00  0.00    -0.153 OA
BRANCH  22  25
ATOM     25  N   UNL     1       6.315   8.716  -0.701  0.00  0.00    -0.204 NA
ATOM     26  H   UNL     1       6.871   9.638  -0.925  0.00  0.00    +0.144 HD
ATOM     27  H   UNL     1       6.924   8.070  -0.051  0.00  0.00    +0.144 HD
ENDBRANCH  22  25
ENDBRANCH  19  22
ENDBRANCH  14  16
ENDBRANCH   9  11
BRANCH   1  28
ATOM     28  C   UNL     1      -4.969   6.473  -0.487  0.00  0.00    +0.113 C 
BRANCH  28  32
ATOM     29  C   UNL     1      -2.604  10.014  -0.831  0.00  0.00    +0.000 A 
ATOM     30  C   UNL     1      -2.991   9.328  -1.968  0.00  0.00    +0.000 A 
ATOM     31  C   UNL     1      -3.756   8.182  -1.856  0.00  0.00    +0.004 A 
ATOM     32  C   UNL     1      -4.135   7.722  -0.609  0.00  0.00    -0.040 A 
ATOM     33  C   UNL     1      -3.752   8.411   0.527  0.00  0.00    +0.004 A 
ATOM     34  C   UNL     1      -2.982   9.553   0.416  0.00  0.00    +0.000 A 
ENDBRANCH  28  32
ENDBRANCH   1  28
TORSDOF 6
