REMARK  Name = ZINC03350303
REMARK  7 active torsions:
REMARK  status: ('A' for Active; 'I' for Inactive)
REMARK    1  A    between atoms: C_1  and  C_2
REMARK    2  A    between atoms: C_2  and  O_3
REMARK    3  A    between atoms: O_3  and  C_4
REMARK    4  A    between atoms: C_4  and  C_6
REMARK    5  A    between atoms: C_7  and  C_21
REMARK    6  A    between atoms: C_10  and  N_11
REMARK    7  A    between atoms: C_12  and  C_14
REMARK                            x       y       z     vdW  Elec       q    Type
REMARK                         _______ _______ _______ _____ _____    ______ ____
ROOT
ATOM      1  C   UNL     1      -0.017   1.385   0.010  0.00  0.00    +0.095 A 
ATOM      2  C   UNL     1       1.270   2.055   0.001  0.00  0.00    +0.006 A 
ATOM      3  C   UNL     1       2.373   1.259  -0.014  0.00  0.00    +0.056 A 
ATOM      4  S   UNL     1       1.690  -0.386  -0.016  0.00  0.00    -0.080 S 
ATOM      5  C   UNL     1       0.002  -0.004   0.002  0.00  0.00    +0.087 A 
ENDROOT
BRANCH   2   6
ATOM      6  C   UNL     1       1.378   3.530   0.007  0.00  0.00    -0.009 A 
ATOM      7  C   UNL     1       1.927   4.207  -1.073  0.00  0.00    +0.009 A 
ATOM      8  C   UNL     1       2.035   5.596  -1.097  0.00  0.00    +0.005 A 
ATOM      9  C   UNL     1       1.609   6.342  -0.038  0.00  0.00    -0.039 A 
ATOM     10  C   UNL     1       1.060   5.682   1.057  0.00  0.00    -0.011 A 
ATOM     11  C   UNL     1       0.928   4.284   1.117  0.00  0.00    -0.010 A 
ATOM     12  C   UNL     1       0.360   3.727   2.271  0.00  0.00    +0.009 A 
ATOM     13  C   UNL     1      -0.036   4.559   3.279  0.00  0.00    +0.001 A 
ATOM     14  C   UNL     1       0.104   5.946   3.199  0.00  0.00    +0.004 A 
ATOM     15  C   UNL     1       0.652   6.519   2.091  0.00  0.00    -0.039 A 
ATOM     16  C   UNL     1       0.950   7.937   1.670  0.00  0.00    +0.040 C 
ATOM     17  C   UNL     1       1.581   7.821   0.266  0.00  0.00    +0.040 C 
ENDBRANCH   2   6
BRANCH   5  18
ATOM     18  N   UNL     1      -1.073  -0.876   0.007  0.00  0.00    -0.275 N 
ATOM     19  C   UNL     1      -0.862  -2.207  -0.002  0.00  0.00    +0.250 C 
ATOM     20  O   UNL     1       0.273  -2.642  -0.015  0.00  0.00    -0.270 OA
ATOM     21  H   UNL     1      -1.979  -0.528   0.017  0.00  0.00    +0.156 HD
BRANCH  19  22
ATOM     22  C   UNL     1      -2.010  -3.137   0.003  0.00  0.00    +0.051 A 
ATOM     23  C   UNL     1      -3.315  -2.641   0.023  0.00  0.00    +0.014 A 
ATOM     24  C   UNL     1      -4.382  -3.514   0.023  0.00  0.00    +0.001 A 
ATOM     25  C   UNL     1      -4.162  -4.881   0.013  0.00  0.00    +0.001 A 
ATOM     26  C   UNL     1      -2.872  -5.380  -0.001  0.00  0.00    +0.016 A 
ATOM     27  C   UNL     1      -1.794  -4.517  -0.006  0.00  0.00    +0.030 A 
ATOM     28 BR   UNL     1      -0.032  -5.202  -0.025  0.00  0.00    -0.050 Br
ENDBRANCH  19  22
ENDBRANCH   5  18
BRANCH   1  29
ATOM     29  C   UNL     1      -1.272   2.135   0.020  0.00  0.00    +0.342 C 
ATOM     30  O   UNL     1      -1.789   2.441   1.077  0.00  0.00    -0.245 OA
BRANCH  29  31
ATOM     31  O   UNL     1      -1.857   2.486  -1.144  0.00  0.00    -0.461 OA
BRANCH  31  33
ATOM     32  C   UNL     1      -3.591   3.525  -2.469  0.00  0.00    +0.048 C 
ATOM     33  C   UNL     1      -3.082   3.218  -1.059  0.00  0.00    +0.229 C 
ENDBRANCH  31  33
ENDBRANCH  29  31
ENDBRANCH   1  29
TORSDOF 6
