REMARK  Name = ZINC36204654
REMARK  10 active torsions:
REMARK  status: ('A' for Active; 'I' for Inactive)
REMARK    1  A    between atoms: C_1  and  C_2
REMARK    2  A    between atoms: C_3  and  C_32
REMARK    3  A    between atoms: C_11  and  C_13
REMARK    4  A    between atoms: C_13  and  N_14
REMARK    5  A    between atoms: N_14  and  C_15
REMARK    6  A    between atoms: N_14  and  C_26
REMARK    7  A    between atoms: C_15  and  C_16
REMARK    8  A    between atoms: C_16  and  C_18
REMARK    9  A    between atoms: C_16  and  O_25
REMARK   10  A    between atoms: C_18  and  C_19
REMARK                            x       y       z     vdW  Elec       q    Type
REMARK                         _______ _______ _______ _____ _____    ______ ____
ROOT
ATOM      1  N   UNL     1       0.245  -4.719   4.067  0.00  0.00    +0.388 N 
ATOM      2  H   UNL     1       1.123  -4.942   3.622  0.00  0.00    -0.081 HD
ENDROOT
BRANCH   1   3
ATOM      3  C   UNL     1      -0.836  -4.773   3.075  0.00  0.00    -0.068 C 
ATOM      4  C   UNL     1      -0.568  -3.748   1.971  0.00  0.00    -0.015 C 
ATOM      5  C   UNL     1      -1.694  -3.805   0.937  0.00  0.00    -0.002 C 
ATOM      6  C   UNL     1      -3.027  -3.485   1.617  0.00  0.00    -0.000 C 
ATOM      7  C   UNL     1      -3.295  -4.511   2.720  0.00  0.00    -0.002 C 
ATOM      8  C   UNL     1      -2.169  -4.454   3.754  0.00  0.00    -0.015 C 
ENDBRANCH   1   3
BRANCH   1   9
ATOM      9  C   UNL     1       0.317  -3.368   4.640  0.00  0.00    -0.003 C 
BRANCH   9  20
ATOM     10  C   UNL     1       3.682   1.293   1.189  0.00  0.00    +0.045 C 
ATOM     11  C   UNL     1       3.462  -0.196   1.109  0.00  0.00    -0.026 A 
ATOM     12  C   UNL     1       4.038  -0.916   0.133  0.00  0.00    -0.008 A 
ATOM     13  S   UNL     1       3.485  -2.578   0.465  0.00  0.00    -0.073 S 
ATOM     14  C   UNL     1       2.497  -2.257   1.903  0.00  0.00    +0.116 A 
ATOM     15  C   UNL     1       2.629  -0.869   2.088  0.00  0.00    +0.075 A 
ATOM     16  C   UNL     1       1.921  -0.323   3.208  0.00  0.00    +0.260 A 
ATOM     17  O   UNL     1       1.969   0.871   3.449  0.00  0.00    -0.267 OA
ATOM     18  N   UNL     1       1.202  -1.150   3.990  0.00  0.00    -0.312 N 
ATOM     19  H   UNL     1       0.721  -0.786   4.750  0.00  0.00    +0.170 HD
ATOM     20  C   UNL     1       1.136  -2.482   3.736  0.00  0.00    +0.094 A 
ATOM     21  N   UNL     1       1.762  -3.008   2.718  0.00  0.00    -0.229 NA
ATOM     22  C   UNL     1       4.937  -0.434  -0.977  0.00  0.00    +0.052 C 
ENDBRANCH   9  20
ENDBRANCH   1   9
BRANCH   1  23
ATOM     23  C   UNL     1      -0.022  -5.690   5.136  0.00  0.00    -0.046 C 
BRANCH  23  24
ATOM     24  C   UNL     1       0.006  -7.106   4.558  0.00  0.00    +0.102 C 
BRANCH  24  25
ATOM     25  O   UNL     1       1.287  -7.357   3.975  0.00  0.00    -0.393 OA
ATOM     26  H   UNL     1       2.023  -7.289   4.599  0.00  0.00    +0.210 HD
ENDBRANCH  24  25
BRANCH  24  27
ATOM     27  C   UNL     1      -0.254  -8.119   5.675  0.00  0.00    +0.064 C 
BRANCH  27  28
ATOM     28  C   UNL     1      -0.348  -9.503   5.086  0.00  0.00    -0.045 A 
ATOM     29  C   UNL     1      -1.570  -9.993   4.665  0.00  0.00    +0.004 A 
ATOM     30  C   UNL     1      -1.656 -11.263   4.125  0.00  0.00    +0.000 A 
ATOM     31  C   UNL     1      -0.521 -12.042   4.006  0.00  0.00    +0.000 A 
ATOM     32  C   UNL     1       0.702 -11.551   4.426  0.00  0.00    +0.000 A 
ATOM     33  C   UNL     1       0.789 -10.280   4.962  0.00  0.00    +0.004 A 
ENDBRANCH  27  28
ENDBRANCH  24  27
ENDBRANCH  23  24
ENDBRANCH   1  23
TORSDOF 8
