REMARK  Name = ZINC20977368
REMARK  7 active torsions:
REMARK  status: ('A' for Active; 'I' for Inactive)
REMARK    1  A    between atoms: C_1  and  C_2
REMARK    2  A    between atoms: C_10  and  S_15
REMARK    3  A    between atoms: S_15  and  N_18
REMARK    4  A    between atoms: N_18  and  C_19
REMARK    5  A    between atoms: C_19  and  C_20
REMARK    6  A    between atoms: N_23  and  C_26
REMARK    7  A    between atoms: C_26  and  C_27
REMARK                            x       y       z     vdW  Elec       q    Type
REMARK                         _______ _______ _______ _____ _____    ______ ____
ROOT
ATOM      1  N   UNL     1      -4.809   1.823   6.088  0.00  0.00    -0.190 NA
ATOM      2  H   UNL     1      -4.248   2.717   5.778  0.00  0.00    +0.148 HD
ENDROOT
BRANCH   1   3
ATOM      3  S   UNL     1      -5.446   1.757   7.615  0.00  0.00    +0.058 S 
ATOM      4  O   UNL     1      -5.281   3.051   8.180  0.00  0.00    -0.153 OA
ATOM      5  O   UNL     1      -6.717   1.133   7.499  0.00  0.00    -0.153 OA
BRANCH   3  14
ATOM      6  C   UNL     1      -2.387  -3.861  13.047  0.00  0.00    +0.020 C 
ATOM      7  C   UNL     1      -2.885  -2.570  12.394  0.00  0.00    +0.057 C 
ATOM      8  C   UNL     1      -4.315  -2.770  11.863  0.00  0.00    +0.110 C 
ATOM      9  C   UNL     1      -4.293  -3.540  10.576  0.00  0.00    +0.218 C 
ATOM     10  O   UNL     1      -4.346  -4.751  10.606  0.00  0.00    -0.275 OA
ATOM     11  N   UNL     1      -4.216  -2.915   9.394  0.00  0.00    -0.284 N 
ATOM     12  C   UNL     1      -3.931  -1.543   9.336  0.00  0.00    +0.049 A 
ATOM     13  C   UNL     1      -4.731  -0.685   8.600  0.00  0.00    +0.053 A 
ATOM     14  C   UNL     1      -4.432   0.665   8.556  0.00  0.00    +0.107 A 
ATOM     15  C   UNL     1      -3.345   1.162   9.251  0.00  0.00    +0.030 A 
ATOM     16  C   UNL     1      -2.543   0.313   9.992  0.00  0.00    +0.018 A 
ATOM     17  C   UNL     1      -2.835  -1.041  10.034  0.00  0.00    +0.029 A 
ATOM     18  S   UNL     1      -1.828  -2.148  10.968  0.00  0.00    -0.120 S 
ATOM     19  H   UNL     1      -4.376  -3.479   8.463  0.00  0.00    +0.155 HD
ENDBRANCH   3  14
ENDBRANCH   1   3
BRANCH   1  20
ATOM     20  C   UNL     1      -4.803   0.625   5.245  0.00  0.00    +0.109 C 
BRANCH  20  21
ATOM     21  C   UNL     1      -4.520   1.023   3.795  0.00  0.00    +0.001 C 
ATOM     22  C   UNL     1      -4.637  -0.209   2.893  0.00  0.00    -0.014 C 
ATOM     23  C   UNL     1      -4.294   0.183   1.455  0.00  0.00    -0.078 C 
ATOM     24  N   UNL     1      -2.928   0.721   1.405  0.00  0.00    +0.382 N 
ATOM     25  C   UNL     1      -2.804   1.932   2.226  0.00  0.00    -0.078 C 
ATOM     26  C   UNL     1      -3.103   1.592   3.688  0.00  0.00    -0.014 C 
ATOM     27  H   UNL     1      -2.253  -0.040   1.825  0.00  0.00    -0.081 HD
BRANCH  24  28
ATOM     28  C   UNL     1      -2.514   0.979   0.019  0.00  0.00    -0.043 C 
BRANCH  28  29
ATOM     29  C   UNL     1      -1.219   1.750   0.017  0.00  0.00    -0.063 A 
ATOM     30  C   UNL     1      -0.013   1.076   0.008  0.00  0.00    +0.002 A 
ATOM     31  C   UNL     1       1.175   1.783   0.000  0.00  0.00    +0.002 A 
ATOM     32  C   UNL     1       1.157   3.165   0.008  0.00  0.00    +0.020 A 
ATOM     33  C   UNL     1      -0.050   3.841   0.023  0.00  0.00    +0.041 A 
ATOM     34  C   UNL     1      -1.239   3.132   0.031  0.00  0.00    +0.021 A 
ATOM     35 CL   UNL     1      -0.074   5.576   0.032  0.00  0.00    -0.084 Cl
ENDBRANCH  28  29
ENDBRANCH  24  28
ENDBRANCH  20  21
ENDBRANCH   1  20
TORSDOF 6
