REMARK  Name = ZINC03207975
REMARK  4 active torsions:
REMARK  status: ('A' for Active; 'I' for Inactive)
REMARK    1  A    between atoms: C_1  and  S_2
REMARK    2  A    between atoms: S_2  and  C_3
REMARK    3  A    between atoms: C_16  and  C_19
REMARK    4  A    between atoms: C_24  and  O_25
REMARK                            x       y       z     vdW  Elec       q    Type
REMARK                         _______ _______ _______ _____ _____    ______ ____
ROOT
ATOM      1  C   UNL     1       0.148   1.375   0.058  0.00  0.00    +0.212 A 
ATOM      2  N   UNL     1       0.145   0.046   0.076  0.00  0.00    -0.184 NA
ATOM      3  C   UNL     1       1.292  -0.605  -0.019  0.00  0.00    +0.248 A 
ATOM      4  C   UNL     1       2.487   0.140  -0.141  0.00  0.00    +0.156 A 
ATOM      5  N   UNL     1       2.421   1.462  -0.149  0.00  0.00    -0.141 NA
ATOM      6  N   UNL     1       1.282   2.056  -0.052  0.00  0.00    -0.122 NA
ATOM      7  C   UNL     1       3.779  -0.568  -0.261  0.00  0.00    +0.028 A 
ATOM      8  C   UNL     1       4.884  -0.199   0.497  0.00  0.00    +0.012 A 
ATOM      9  C   UNL     1       6.082  -0.865   0.333  0.00  0.00    +0.001 A 
ATOM     10  C   UNL     1       6.190  -1.898  -0.582  0.00  0.00    +0.002 A 
ATOM     11  C   UNL     1       5.097  -2.281  -1.338  0.00  0.00    +0.024 A 
ATOM     12  C   UNL     1       3.889  -1.627  -1.181  0.00  0.00    +0.039 A 
ATOM     13  N   UNL     1       2.759  -1.997  -1.918  0.00  0.00    -0.305 N 
ATOM     14  C   UNL     1       1.639  -2.622  -1.221  0.00  0.00    +0.297 C 
ATOM     15  O   UNL     1       1.340  -1.958   0.002  0.00  0.00    -0.449 OA
ATOM     16  H   UNL     1       2.721  -1.841  -2.874  0.00  0.00    +0.150 HD
ENDROOT
BRANCH  14  17
ATOM     17  C   UNL     1       1.986  -4.059  -0.927  0.00  0.00    +0.055 A 
ATOM     18  C   UNL     1       2.482  -4.411   0.314  0.00  0.00    +0.028 A 
ATOM     19  C   UNL     1       2.800  -5.729   0.584  0.00  0.00    +0.020 A 
ATOM     20  C   UNL     1       2.624  -6.699  -0.387  0.00  0.00    +0.034 A 
ATOM     21  C   UNL     1       2.128  -6.352  -1.629  0.00  0.00    +0.061 A 
ATOM     22  C   UNL     1       1.804  -5.029  -1.901  0.00  0.00    +0.139 A 
ATOM     23 BR   UNL     1       1.887  -7.677  -2.956  0.00  0.00    -0.046 Br
ATOM     24 BR   UNL     1       3.478  -6.207   2.284  0.00  0.00    -0.050 Br
BRANCH  22  25
ATOM     25  O   UNL     1       1.312  -4.686  -3.120  0.00  0.00    -0.505 OA
ATOM     26  H   UNL     1       1.991  -4.448  -3.766  0.00  0.00    +0.292 HD
ENDBRANCH  22  25
ENDBRANCH  14  17
BRANCH   1  28
ATOM     27  C   UNL     1      -0.773   3.952   0.102  0.00  0.00    +0.093 C 
ATOM     28  S   UNL     1      -1.378   2.248   0.176  0.00  0.00    -0.088 S 
ENDBRANCH   1  28
TORSDOF 3
