REMARK  Name = ZINC40169281
REMARK  3 active torsions:
REMARK  status: ('A' for Active; 'I' for Inactive)
REMARK    1  A    between atoms: C_6  and  O_11
REMARK    2  A    between atoms: O_11  and  C_12
REMARK    3  A    between atoms: N_14  and  C_15
REMARK                            x       y       z     vdW  Elec       q    Type
REMARK                         _______ _______ _______ _____ _____    ______ ____
ROOT
ATOM      1  C   UNL     1       4.863  -3.977   0.040  0.00  0.00    +0.406 C 
ATOM      2  O   UNL     1       3.805  -4.574   0.045  0.00  0.00    -0.226 OA
ATOM      3  N   UNL     1       6.022  -4.659   0.131  0.00  0.00    -0.275 N 
ATOM      4  H   UNL     1       6.867  -4.182   0.127  0.00  0.00    +0.152 HD
ENDROOT
BRANCH   3   5
ATOM      5  C   UNL     1       6.006  -6.120   0.236  0.00  0.00    +0.116 C 
ATOM      6  C   UNL     1       5.933  -6.738  -1.188  0.00  0.00    +0.189 C 
ATOM      7  S   UNL     1       6.556  -8.436  -0.819  0.00  0.00    -0.028 S 
ATOM      8  O   UNL     1       7.289  -8.918  -1.937  0.00  0.00    -0.174 OA
ATOM      9  O   UNL     1       5.497  -9.217  -0.283  0.00  0.00    -0.174 OA
ATOM     10  C   UNL     1       7.729  -7.999   0.531  0.00  0.00    +0.187 C 
ATOM     11  C   UNL     1       7.272  -6.589   0.952  0.00  0.00    +0.123 C 
ATOM     12 CL   UNL     1       8.600  -5.421   0.602  0.00  0.00    -0.118 Cl
ENDBRANCH   3   5
BRANCH   1  13
ATOM     13  O   UNL     1       4.878  -2.634  -0.057  0.00  0.00    -0.412 OA
BRANCH  13  19
ATOM     14  C   UNL     1      -0.449   0.623  -1.008  0.00  0.00    +0.001 A 
ATOM     15  C   UNL     1       0.271   0.571  -2.201  0.00  0.00    +0.001 A 
ATOM     16  C   UNL     1       1.466  -0.077  -2.270  0.00  0.00    +0.008 A 
ATOM     17  C   UNL     1       1.985  -0.704  -1.123  0.00  0.00    -0.014 A 
ATOM     18  C   UNL     1       3.215  -1.381  -1.157  0.00  0.00    +0.055 A 
ATOM     19  C   UNL     1       3.688  -1.978  -0.023  0.00  0.00    +0.134 A 
ATOM     20  C   UNL     1       2.964  -1.924   1.172  0.00  0.00    +0.047 A 
ATOM     21  C   UNL     1       1.770  -1.277   1.237  0.00  0.00    +0.012 A 
ATOM     22  C   UNL     1       1.253  -0.650   0.089  0.00  0.00    -0.018 A 
ATOM     23  C   UNL     1       0.022   0.028   0.121  0.00  0.00    +0.008 A 
ENDBRANCH  13  19
ENDBRANCH   1  13
TORSDOF 3
