REMARK  Name = ZINC40555906
REMARK  7 active torsions:
REMARK  status: ('A' for Active; 'I' for Inactive)
REMARK    1  A    between atoms: C_1  and  N_2
REMARK    2  A    between atoms: N_2  and  C_3
REMARK    3  A    between atoms: N_2  and  C_4
REMARK    4  A    between atoms: C_4  and  C_5
REMARK    5  A    between atoms: C_5  and  C_6
REMARK    6  A    between atoms: C_6  and  N_7
REMARK    7  A    between atoms: C_8  and  C_27
REMARK                            x       y       z     vdW  Elec       q    Type
REMARK                         _______ _______ _______ _____ _____    ______ ____
ROOT
ATOM      1  N   UNL     1       4.282  -0.140  -2.368  0.00  0.00    -0.284 N 
ATOM      2  C   UNL     1       4.836   1.119  -2.891  0.00  0.00    +0.145 C 
ATOM      3  C   UNL     1       6.302   1.066  -2.611  0.00  0.00    +0.072 A 
ATOM      4  C   UNL     1       7.378   2.016  -2.903  0.00  0.00    +0.199 A 
ATOM      5  O   UNL     1       7.177   3.150  -3.303  0.00  0.00    -0.287 OA
ATOM      6  C   UNL     1       8.736   1.469  -2.666  0.00  0.00    +0.065 A 
ATOM      7  C   UNL     1       9.868   2.184  -3.095  0.00  0.00    +0.016 A 
ATOM      8  C   UNL     1      11.115   1.695  -2.894  0.00  0.00    +0.009 A 
ATOM      9  C   UNL     1      11.292   0.455  -2.245  0.00  0.00    -0.014 A 
ATOM     10  C   UNL     1      12.578  -0.068  -2.034  0.00  0.00    +0.008 A 
ATOM     11  C   UNL     1      12.725  -1.267  -1.403  0.00  0.00    +0.001 A 
ATOM     12  C   UNL     1      11.617  -1.986  -0.964  0.00  0.00    +0.001 A 
ATOM     13  C   UNL     1      10.354  -1.509  -1.155  0.00  0.00    +0.012 A 
ATOM     14  C   UNL     1      10.167  -0.278  -1.801  0.00  0.00    +0.025 A 
ATOM     15  C   UNL     1       8.865   0.239  -2.015  0.00  0.00    +0.147 A 
ATOM     16  O   UNL     1       7.801  -0.468  -1.582  0.00  0.00    -0.449 OA
ATOM     17  C   UNL     1       6.562  -0.117  -1.978  0.00  0.00    +0.199 A 
ATOM     18  C   UNL     1       5.295  -0.852  -1.834  0.00  0.00    +0.283 C 
ATOM     19  O   UNL     1       5.178  -1.943  -1.311  0.00  0.00    -0.267 OA
ENDROOT
BRANCH   2  20
ATOM     20  C   UNL     1       4.212   2.295  -2.183  0.00  0.00    -0.021 A 
ATOM     21  C   UNL     1       3.980   2.237  -0.821  0.00  0.00    +0.007 A 
ATOM     22  C   UNL     1       3.408   3.314  -0.171  0.00  0.00    +0.022 A 
ATOM     23  C   UNL     1       3.067   4.451  -0.882  0.00  0.00    +0.059 A 
ATOM     24  C   UNL     1       3.300   4.508  -2.246  0.00  0.00    +0.060 A 
ATOM     25  C   UNL     1       3.878   3.431  -2.894  0.00  0.00    +0.027 A 
ATOM     26 CL   UNL     1       2.872   5.933  -3.141  0.00  0.00    -0.082 Cl
ATOM     27 CL   UNL     1       2.348   5.803  -0.066  0.00  0.00    -0.082 Cl
ENDBRANCH   2  20
BRANCH   1  28
ATOM     28  C   UNL     1       2.875  -0.547  -2.416  0.00  0.00    +0.107 C 
BRANCH  28  29
ATOM     29  C   UNL     1       2.159  -0.053  -1.157  0.00  0.00    +0.000 C 
BRANCH  29  30
ATOM     30  C   UNL     1       0.690  -0.478  -1.207  0.00  0.00    -0.078 C 
BRANCH  30  32
ATOM     31  C   UNL     1      -0.018   1.465   0.010  0.00  0.00    -0.097 C 
ATOM     32  N   UNL     1       0.002  -0.004   0.002  0.00  0.00    +0.376 N 
ATOM     33  C   UNL     1      -1.376  -0.512   0.012  0.00  0.00    -0.097 C 
ATOM     34  H   UNL     1       0.490  -0.338   0.820  0.00  0.00    -0.083 HD
ENDBRANCH  30  32
ENDBRANCH  29  30
ENDBRANCH  28  29
ENDBRANCH   1  28
TORSDOF 5
