REMARK  Name = ZINC66699441
REMARK  12 active torsions:
REMARK  status: ('A' for Active; 'I' for Inactive)
REMARK    1  A    between atoms: C_1  and  C_2
REMARK    2  A    between atoms: C_2  and  N_3
REMARK    3  A    between atoms: C_9  and  C_11
REMARK    4  A    between atoms: C_11  and  C_12
REMARK    5  A    between atoms: N_20  and  C_21
REMARK    6  A    between atoms: C_21  and  C_22
REMARK    7  A    between atoms: C_22  and  C_24
REMARK    8  A    between atoms: C_22  and  N_25
REMARK    9  A    between atoms: N_25  and  C_26
REMARK   10  A    between atoms: N_25  and  C_28
REMARK   11  A    between atoms: C_26  and  C_27
REMARK   12  A    between atoms: C_28  and  C_29
REMARK                            x       y       z     vdW  Elec       q    Type
REMARK                         _______ _______ _______ _____ _____    ______ ____
ROOT
ATOM      1  C   UNL     1      -4.892  -4.929   2.539  0.00  0.00    +0.001 C 
ATOM      2  C   UNL     1      -4.225  -4.935   3.916  0.00  0.00    +0.023 C 
ATOM      3  C   UNL     1      -5.161  -5.600   4.930  0.00  0.00    +0.109 C 
ATOM      4  N   UNL     1      -5.527  -6.933   4.431  0.00  0.00    -0.286 N 
ATOM      5  C   UNL     1      -6.094  -7.051   3.081  0.00  0.00    +0.109 C 
ATOM      6  C   UNL     1      -5.147  -6.369   2.088  0.00  0.00    +0.023 C 
ATOM      7  C   UNL     1      -5.346  -8.027   5.198  0.00  0.00    +0.302 C 
ATOM      8  O   UNL     1      -4.793  -7.928   6.276  0.00  0.00    -0.253 OA
ATOM      9  N   UNL     1      -5.779  -9.229   4.770  0.00  0.00    -0.301 N 
ATOM     10  H   UNL     1      -6.155  -9.320   3.880  0.00  0.00    +0.150 HD
ENDROOT
BRANCH   1  11
ATOM     11  C   UNL     1      -3.975  -4.234   1.530  0.00  0.00    +0.099 C 
BRANCH  11  18
ATOM     12  N   UNL     1      -0.798  -0.602   0.232  0.00  0.00    +0.382 N 
ATOM     13  C   UNL     1      -1.393  -0.222   1.519  0.00  0.00    -0.060 C 
ATOM     14  C   UNL     1      -2.890  -0.549   1.505  0.00  0.00    +0.089 C 
ATOM     15  N   UNL     1      -3.054  -1.969   1.157  0.00  0.00    -0.305 N 
ATOM     16  C   UNL     1      -2.354  -2.476  -0.034  0.00  0.00    +0.089 C 
ATOM     17  C   UNL     1      -0.882  -2.057   0.053  0.00  0.00    -0.060 C 
ATOM     18  C   UNL     1      -3.822  -2.783   1.907  0.00  0.00    +0.216 C 
ATOM     19  O   UNL     1      -4.391  -2.348   2.886  0.00  0.00    -0.276 OA
ATOM     20  H   UNL     1      -1.297  -0.143  -0.515  0.00  0.00    -0.082 HD
BRANCH  12  22
ATOM     21  C   UNL     1       0.696   1.338   0.267  0.00  0.00    -0.017 C 
ATOM     22  C   UNL     1       0.611  -0.188   0.205  0.00  0.00    -0.082 C 
ENDBRANCH  12  22
ENDBRANCH  11  18
ENDBRANCH   1  11
BRANCH   9  23
ATOM     23  C   UNL     1      -5.681 -10.398   5.648  0.00  0.00    +0.090 C 
BRANCH  23  24
ATOM     24  C   UNL     1      -6.116 -11.649   4.881  0.00  0.00    -0.054 C 
ATOM     25  C   UNL     1      -5.915 -12.883   5.763  0.00  0.00    -0.012 C 
BRANCH  24  26
ATOM     26  N   UNL     1      -5.307 -11.782   3.662  0.00  0.00    +0.382 N 
ATOM     27  H   UNL     1      -5.372 -10.932   3.121  0.00  0.00    -0.081 HD
BRANCH  26  28
ATOM     28  C   UNL     1      -3.905 -12.024   4.028  0.00  0.00    -0.082 C 
ATOM     29  C   UNL     1      -3.044 -12.038   2.764  0.00  0.00    -0.017 C 
ENDBRANCH  26  28
BRANCH  26  30
ATOM     30  C   UNL     1      -5.807 -12.909   2.864  0.00  0.00    -0.082 C 
ATOM     31  C   UNL     1      -7.220 -12.596   2.367  0.00  0.00    -0.017 C 
ENDBRANCH  26  30
ENDBRANCH  24  26
ENDBRANCH  23  24
ENDBRANCH   9  23
TORSDOF 8
