REMARK  Name = ZINC54139298
REMARK  5 active torsions:
REMARK  status: ('A' for Active; 'I' for Inactive)
REMARK    1  A    between atoms: C_3  and  C_9
REMARK    2  A    between atoms: C_11  and  C_14
REMARK    3  A    between atoms: C_14  and  C_15
REMARK    4  A    between atoms: C_15  and  C_16
REMARK    5  A    between atoms: C_16  and  N_17
REMARK                            x       y       z     vdW  Elec       q    Type
REMARK                         _______ _______ _______ _____ _____    ______ ____
ROOT
ATOM      1  C   UNL     1       3.655   2.163  -0.022  0.00  0.00    +0.260 A 
ATOM      2  N   UNL     1       4.862   1.643  -0.041  0.00  0.00    -0.192 NA
ATOM      3  C   UNL     1       5.778   2.614  -0.044  0.00  0.00    +0.172 A 
ATOM      4  N   UNL     1       5.175   3.769  -0.027  0.00  0.00    -0.061 NA
ATOM      5  O   UNL     1       3.780   3.502  -0.017  0.00  0.00    -0.333 OA
ENDROOT
BRANCH   1   8
ATOM      6  C   UNL     1      -0.017   1.381   0.010  0.00  0.00    +0.016 A 
ATOM      7  C   UNL     1       1.166   2.090   0.002  0.00  0.00    +0.016 A 
ATOM      8  C   UNL     1       2.385   1.409  -0.013  0.00  0.00    +0.058 A 
ATOM      9  C   UNL     1       2.398   0.012  -0.021  0.00  0.00    +0.054 A 
ATOM     10  C   UNL     1       1.207  -0.686  -0.013  0.00  0.00    +0.036 A 
ATOM     11  C   UNL     1       0.002  -0.004   0.002  0.00  0.00    +0.019 A 
ATOM     12 BR   UNL     1      -1.625  -0.968   0.012  0.00  0.00    -0.050 Br
ATOM     13 CL   UNL     1       3.908  -0.844  -0.040  0.00  0.00    -0.083 Cl
ENDBRANCH   1   8
BRANCH   3  14
ATOM     14  C   UNL     1       7.271   2.408  -0.064  0.00  0.00    +0.078 C 
BRANCH  14  15
ATOM     15  C   UNL     1       7.758   2.351  -1.513  0.00  0.00    -0.012 C 
BRANCH  15  16
ATOM     16  C   UNL     1       9.274   2.142  -1.534  0.00  0.00    -0.086 C 
BRANCH  16  17
ATOM     17  N   UNL     1       9.742   2.087  -2.925  0.00  0.00    +0.378 N 
ATOM     18  H   UNL     1       9.290   1.320  -3.402  0.00  0.00    -0.090 HD
ATOM     19  H   UNL     1       9.515   2.953  -3.391  0.00  0.00    -0.090 HD
ATOM     20  H   UNL     1      10.741   1.949  -2.938  0.00  0.00    -0.090 HD
ENDBRANCH  16  17
ENDBRANCH  15  16
ENDBRANCH  14  15
ENDBRANCH   3  14
TORSDOF 5
