REMARK  Name = ZINC31055733
REMARK  11 active torsions:
REMARK  status: ('A' for Active; 'I' for Inactive)
REMARK    1  A    between atoms: C_1  and  C_2
REMARK    2  A    between atoms: C_2  and  C_4
REMARK    3  A    between atoms: C_2  and  N_14
REMARK    4  A    between atoms: C_7  and  O_12
REMARK    5  A    between atoms: C_8  and  O_10
REMARK    6  A    between atoms: O_10  and  C_11
REMARK    7  A    between atoms: O_12  and  C_13
REMARK    8  A    between atoms: C_15  and  C_17
REMARK    9  A    between atoms: N_22  and  C_24
REMARK   10  A    between atoms: C_24  and  C_25
REMARK   11  A    between atoms: C_27  and  C_30
REMARK                            x       y       z     vdW  Elec       q    Type
REMARK                         _______ _______ _______ _____ _____    ______ ____
ROOT
ATOM      1  C   UNL     1       2.169  -6.473   2.306  0.00  0.00    +0.058 C 
ATOM      2  C   UNL     1       3.487  -6.503   1.526  0.00  0.00    +0.009 C 
ATOM      3  C   UNL     1       4.592  -7.059   2.429  0.00  0.00    -0.018 C 
ATOM      4  C   UNL     1       4.192  -8.453   2.918  0.00  0.00    -0.078 C 
ATOM      5  N   UNL     1       2.926  -8.370   3.657  0.00  0.00    +0.386 N 
ATOM      6  C   UNL     1       1.840  -7.884   2.797  0.00  0.00    -0.065 C 
ATOM      7  H   UNL     1       3.061  -7.642   4.471  0.00  0.00    -0.081 HD
ENDROOT
BRANCH   1   9
ATOM      8  N   UNL     1       1.139  -4.756   0.853  0.00  0.00    -0.309 N 
ATOM      9  C   UNL     1       1.064  -5.983   1.406  0.00  0.00    +0.215 C 
ATOM     10  O   UNL     1       0.107  -6.692   1.180  0.00  0.00    -0.276 OA
ATOM     11  H   UNL     1       2.007  -4.113   1.058  0.00  0.00    +0.149 HD
BRANCH   8  13
ATOM     12  C   UNL     1       0.310  -4.778  -1.448  0.00  0.00    +0.033 C 
ATOM     13  C   UNL     1       0.065  -4.280  -0.022  0.00  0.00    +0.100 C 
BRANCH  13  14
ATOM     14  C   UNL     1       0.041  -2.773  -0.013  0.00  0.00    -0.024 A 
ATOM     15  C   UNL     1       1.227  -2.064  -0.021  0.00  0.00    +0.009 A 
ATOM     16  C   UNL     1       1.210  -0.682  -0.013  0.00  0.00    +0.050 A 
ATOM     17  C   UNL     1       0.002  -0.004   0.002  0.00  0.00    +0.162 A 
ATOM     18  C   UNL     1      -1.192  -0.718   0.015  0.00  0.00    +0.162 A 
ATOM     19  C   UNL     1      -1.168  -2.103   0.002  0.00  0.00    +0.054 A 
BRANCH  18  20
ATOM     20  O   UNL     1      -2.381  -0.057   0.036  0.00  0.00    -0.491 OA
ATOM     21  C   UNL     1      -3.567  -0.855   0.049  0.00  0.00    +0.277 C 
ENDBRANCH  18  20
BRANCH  17  22
ATOM     22  O   UNL     1      -0.016   1.356   0.009  0.00  0.00    -0.491 OA
ATOM     23  C   UNL     1       1.248   2.022   0.001  0.00  0.00    +0.277 C 
ENDBRANCH  17  22
ENDBRANCH  13  14
ENDBRANCH   8  13
ENDBRANCH   1   9
BRANCH   5  24
ATOM     24  C   UNL     1       2.582  -9.665   4.259  0.00  0.00    +0.022 C 
BRANCH  24  25
ATOM     25  C   UNL     1       3.599 -10.014   5.315  0.00  0.00    +0.211 A 
ATOM     26  N   UNL     1       3.542  -9.698   6.585  0.00  0.00    -0.193 NA
ATOM     27  C   UNL     1       4.659 -10.219   7.140  0.00  0.00    +0.203 A 
ATOM     28  N   UNL     1       5.327 -10.809   6.183  0.00  0.00    -0.056 NA
ATOM     29  O   UNL     1       4.731 -10.700   5.131  0.00  0.00    -0.340 OA
BRANCH  27  30
ATOM     30  C   UNL     1       5.056 -10.133   8.567  0.00  0.00    +0.041 A 
ATOM     31  C   UNL     1       6.246 -10.717   8.998  0.00  0.00    +0.014 A 
ATOM     32  C   UNL     1       6.611 -10.635  10.326  0.00  0.00    +0.021 A 
ATOM     33  C   UNL     1       5.798  -9.972  11.231  0.00  0.00    +0.042 A 
ATOM     34  C   UNL     1       4.615  -9.390  10.809  0.00  0.00    +0.040 A 
ATOM     35  C   UNL     1       4.243  -9.462   9.480  0.00  0.00    +0.053 A 
ATOM     36 CL   UNL     1       2.764  -8.726   8.950  0.00  0.00    -0.083 Cl
ATOM     37 CL   UNL     1       6.264  -9.872  12.900  0.00  0.00    -0.083 Cl
ENDBRANCH  27  30
ENDBRANCH  24  25
ENDBRANCH   5  24
TORSDOF 8
