REMARK  Name = ZINC30956284
REMARK  9 active torsions:
REMARK  status: ('A' for Active; 'I' for Inactive)
REMARK    1  A    between atoms: C_1  and  C_2
REMARK    2  A    between atoms: C_2  and  C_3
REMARK    3  A    between atoms: C_2  and  C_4
REMARK    4  A    between atoms: C_4  and  C_6
REMARK    5  A    between atoms: C_4  and  N_21
REMARK    6  A    between atoms: N_8  and  N_9
REMARK    7  A    between atoms: C_10  and  C_11
REMARK    8  A    between atoms: N_13  and  C_20
REMARK    9  A    between atoms: C_22  and  C_24
REMARK                            x       y       z     vdW  Elec       q    Type
REMARK                         _______ _______ _______ _____ _____    ______ ____
ROOT
ATOM      1  C   UNL     1       5.385  -1.467  -0.311  0.00  0.00    +0.253 C 
ATOM      2  O   UNL     1       5.878  -2.572  -0.393  0.00  0.00    -0.272 OA
ATOM      3  N   UNL     1       4.065  -1.334  -0.075  0.00  0.00    -0.205 N 
ATOM      4  H   UNL     1       3.632  -0.335   0.081  0.00  0.00    +0.177 HD
ENDROOT
BRANCH   3   5
ATOM      5  N   UNL     1       3.244  -2.468  -0.028  0.00  0.00    -0.188 NA
ATOM      6  C   UNL     1       1.956  -2.334   0.082  0.00  0.00    +0.140 C 
BRANCH   6   7
ATOM      7  C   UNL     1       1.312  -1.071  -0.310  0.00  0.00    +0.020 A 
ATOM      8  C   UNL     1       1.879  -0.052  -1.011  0.00  0.00    +0.096 A 
ATOM      9  N   UNL     1       0.971   0.950  -1.181  0.00  0.00    -0.349 N 
ATOM     10  C   UNL     1      -0.228   0.614  -0.590  0.00  0.00    +0.049 A 
ATOM     11  C   UNL     1      -0.073  -0.661  -0.019  0.00  0.00    +0.008 A 
ATOM     12  C   UNL     1      -1.137  -1.259   0.653  0.00  0.00    +0.010 A 
ATOM     13  C   UNL     1      -2.340  -0.594   0.754  0.00  0.00    +0.001 A 
ATOM     14  C   UNL     1      -2.494   0.665   0.191  0.00  0.00    +0.002 A 
ATOM     15  C   UNL     1      -1.450   1.268  -0.476  0.00  0.00    +0.026 A 
ATOM     16  C   UNL     1       1.234   2.208  -1.884  0.00  0.00    +0.149 C 
ENDBRANCH   6   7
ENDBRANCH   3   5
BRANCH   1  17
ATOM     17  C   UNL     1       6.248  -0.242  -0.474  0.00  0.00    +0.163 C 
BRANCH  17  18
ATOM     18  N   UNL     1       7.588  -0.644  -0.908  0.00  0.00    -0.300 N 
ATOM     19  C   UNL     1       8.364   0.223  -1.590  0.00  0.00    +0.245 C 
ATOM     20  O   UNL     1       7.951   1.337  -1.844  0.00  0.00    -0.270 OA
ATOM     21  H   UNL     1       7.962  -1.653  -0.679  0.00  0.00    +0.150 HD
BRANCH  19  22
ATOM     22  C   UNL     1       9.716  -0.183  -2.028  0.00  0.00    +0.038 A 
ATOM     23  C   UNL     1      10.522   0.712  -2.734  0.00  0.00    +0.013 A 
ATOM     24  C   UNL     1      11.783   0.329  -3.140  0.00  0.00    +0.002 A 
ATOM     25  C   UNL     1      12.251  -0.940  -2.849  0.00  0.00    +0.020 A 
ATOM     26  C   UNL     1      11.458  -1.833  -2.149  0.00  0.00    +0.042 A 
ATOM     27  C   UNL     1      10.195  -1.460  -1.733  0.00  0.00    +0.033 A 
ATOM     28 CL   UNL     1      12.054  -3.423  -1.788  0.00  0.00    -0.084 Cl
ENDBRANCH  19  22
ENDBRANCH  17  18
BRANCH  17  30
ATOM     29  C   UNL     1       7.030  -0.405   1.893  0.00  0.00    +0.009 C 
ATOM     30  C   UNL     1       6.345   0.495   0.863  0.00  0.00    +0.012 C 
ATOM     31  C   UNL     1       7.162   1.776   0.681  0.00  0.00    +0.009 C 
ENDBRANCH  17  30
ENDBRANCH   1  17
TORSDOF 6
