REMARK  Name = ZINC39668968
REMARK  5 active torsions:
REMARK  status: ('A' for Active; 'I' for Inactive)
REMARK    1  A    between atoms: C_10  and  C_12
REMARK    2  A    between atoms: C_12  and  N_13
REMARK    3  A    between atoms: C_14  and  C_16
REMARK    4  A    between atoms: C_27  and  C_29
REMARK    5  A    between atoms: C_32  and  C_36
REMARK                            x       y       z     vdW  Elec       q    Type
REMARK                         _______ _______ _______ _____ _____    ______ ____
ROOT
ATOM      1  C   UNL     1       7.968  -0.961   2.034  0.00  0.00    +0.100 C 
ATOM      2  C   UNL     1       8.171  -2.474   2.272  0.00  0.00    +0.121 C 
ATOM      3  N   UNL     1       9.503  -2.577   2.912  0.00  0.00    -0.296 N 
ATOM      4  C   UNL     1       9.558  -1.421   3.838  0.00  0.00    +0.115 C 
ATOM      5  C   UNL     1       8.879  -0.274   3.064  0.00  0.00    -0.004 C 
ATOM      6  C   UNL     1       8.050   0.585   4.014  0.00  0.00    -0.010 C 
ATOM      7  C   UNL     1       8.983   1.304   4.992  0.00  0.00    -0.082 C 
ATOM      8  N   UNL     1       9.928   2.141   4.244  0.00  0.00    +0.379 N 
ATOM      9  C   UNL     1      10.785   1.298   3.401  0.00  0.00    -0.082 C 
ATOM     10  C   UNL     1       9.928   0.579   2.356  0.00  0.00    -0.010 C 
ATOM     11  C   UNL     1      10.452  -3.511   2.699  0.00  0.00    +0.247 C 
ATOM     12  O   UNL     1      10.312  -4.328   1.810  0.00  0.00    -0.270 OA
ATOM     13  H   UNL     1       9.416   2.786   3.661  0.00  0.00    -0.086 HD
ATOM     14  H   UNL     1      10.502   2.660   4.891  0.00  0.00    -0.086 HD
ENDROOT
BRANCH  11  15
ATOM     15  C   UNL     1      11.663  -3.541   3.546  0.00  0.00    +0.040 A 
ATOM     16  C   UNL     1      11.655  -2.928   4.801  0.00  0.00    +0.014 A 
ATOM     17  C   UNL     1      12.788  -2.960   5.588  0.00  0.00    +0.016 A 
ATOM     18  C   UNL     1      13.930  -3.598   5.138  0.00  0.00    +0.090 A 
ATOM     19  C   UNL     1      13.945  -4.208   3.894  0.00  0.00    +0.136 A 
ATOM     20  C   UNL     1      12.815  -4.188   3.099  0.00  0.00    +0.052 A 
ATOM     21  F   UNL     1      15.064  -4.828   3.461  0.00  0.00    -0.205 F 
BRANCH  18  22
ATOM     22  C   UNL     1      15.163  -3.628   6.004  0.00  0.00    +0.420 C 
ATOM     23  F   UNL     1      14.908  -2.952   7.202  0.00  0.00    -0.166 F 
ATOM     24  F   UNL     1      15.505  -4.956   6.282  0.00  0.00    -0.166 F 
ATOM     25  F   UNL     1      16.220  -3.005   5.332  0.00  0.00    -0.166 F 
ENDBRANCH  18  22
ENDBRANCH  11  15
BRANCH   1  27
ATOM     26  N   UNL     1       5.982   0.446   1.589  0.00  0.00    -0.312 N 
ATOM     27  C   UNL     1       6.529  -0.581   2.270  0.00  0.00    +0.218 C 
ATOM     28  O   UNL     1       5.862  -1.199   3.073  0.00  0.00    -0.275 OA
ATOM     29  H   UNL     1       6.516   0.940   0.947  0.00  0.00    +0.149 HD
BRANCH  26  30
ATOM     30  C   UNL     1       4.584   0.815   1.819  0.00  0.00    +0.140 C 
BRANCH  30  40
ATOM     31  C   UNL     1       0.268   3.302   1.925  0.00  0.00    +0.000 A 
ATOM     32  C   UNL     1       1.172   2.977   2.920  0.00  0.00    +0.000 A 
ATOM     33  C   UNL     1       2.443   2.558   2.584  0.00  0.00    +0.006 A 
ATOM     34  C   UNL     1       2.818   2.458   1.252  0.00  0.00    -0.014 A 
ATOM     35  C   UNL     1       1.915   2.778   0.261  0.00  0.00    -0.040 A 
ATOM     36  C   UNL     1       0.639   3.202   0.599  0.00  0.00    +0.004 A 
ATOM     37  C   UNL     1       2.281   2.671  -1.198  0.00  0.00    +0.063 C 
ATOM     38  C   UNL     1       3.802   2.602  -1.346  0.00  0.00    +0.165 C 
ATOM     39  O   UNL     1       4.301   1.609  -0.443  0.00  0.00    -0.370 OA
ATOM     40  C   UNL     1       4.217   2.003   0.926  0.00  0.00    +0.165 C 
ENDBRANCH  30  40
ENDBRANCH  26  30
ENDBRANCH   1  27
TORSDOF 5
