REMARK  Name = ZINC40674736
REMARK  12 active torsions:
REMARK  status: ('A' for Active; 'I' for Inactive)
REMARK    1  A    between atoms: C_1  and  C_2
REMARK    2  A    between atoms: C_3  and  C_11
REMARK    3  A    between atoms: C_5  and  C_7
REMARK    4  A    between atoms: C_7  and  C_8
REMARK    5  A    between atoms: C_7  and  C_9
REMARK    6  A    between atoms: C_7  and  C_10
REMARK    7  A    between atoms: C_11  and  C_13
REMARK    8  A    between atoms: C_11  and  N_14
REMARK    9  A    between atoms: N_14  and  C_15
REMARK   10  A    between atoms: C_15  and  C_16
REMARK   11  A    between atoms: C_15  and  C_17
REMARK   12  A    between atoms: C_15  and  C_18
REMARK                            x       y       z     vdW  Elec       q    Type
REMARK                         _______ _______ _______ _____ _____    ______ ____
ROOT
ATOM      1  C   UNL     1      -0.018  -0.854  -2.969  0.00  0.00    -0.034 C 
ATOM      2  C   UNL     1      -1.117  -1.419  -3.872  0.00  0.00    -0.008 C 
ENDROOT
BRANCH   1   5
ATOM      3  C   UNL     1      -1.121   0.797  -0.575  0.00  0.00    +0.066 C 
ATOM      4  C   UNL     1      -0.714  -0.651  -0.479  0.00  0.00    +0.047 A 
ATOM      5  C   UNL     1      -0.237  -1.327  -1.555  0.00  0.00    -0.002 A 
ATOM      6  S   UNL     1       0.058  -2.932  -0.831  0.00  0.00    -0.078 S 
ATOM      7  C   UNL     1      -0.448  -2.576   0.734  0.00  0.00    +0.084 A 
ATOM      8  N   UNL     1      -0.799  -1.317   0.655  0.00  0.00    -0.248 NA
BRANCH   7   9
ATOM      9  C   UNL     1      -0.483  -3.485   1.936  0.00  0.00    +0.011 C 
ATOM     10  C   UNL     1      -1.921  -3.600   2.446  0.00  0.00    +0.017 C 
ATOM     11  C   UNL     1       0.031  -4.871   1.543  0.00  0.00    +0.017 C 
ATOM     12  C   UNL     1       0.405  -2.905   3.039  0.00  0.00    +0.017 C 
ENDBRANCH   7   9
ENDBRANCH   1   5
BRANCH   1  13
ATOM     13  N   UNL     1       1.292  -1.319  -3.443  0.00  0.00    +0.393 N 
ATOM     14  H   UNL     1       1.385  -2.307  -3.260  0.00  0.00    -0.084 HD
ATOM     15  H   UNL     1       1.369  -1.152  -4.436  0.00  0.00    -0.084 HD
BRANCH  13  16
ATOM     16  C   UNL     1       2.355  -0.588  -2.740  0.00  0.00    +0.005 C 
ATOM     17  C   UNL     1       2.337  -0.965  -1.257  0.00  0.00    -0.001 C 
ATOM     18  C   UNL     1       3.712  -0.956  -3.343  0.00  0.00    -0.001 C 
BRANCH  16  19
ATOM     19  C   UNL     1       2.126   0.894  -2.885  0.00  0.00    +0.199 C 
ATOM     20  O   UNL     1       2.409   1.643  -1.974  0.00  0.00    -0.278 OA
ATOM     21  N   UNL     1       1.607   1.387  -4.027  0.00  0.00    -0.330 N 
ATOM     22  H   UNL     1       1.381   0.788  -4.755  0.00  0.00    +0.145 HD
ATOM     23  H   UNL     1       1.460   2.342  -4.120  0.00  0.00    +0.145 HD
ENDBRANCH  16  19
ENDBRANCH  13  16
ENDBRANCH   1  13
TORSDOF 5
