REMARK  Name = ZINC38915011
REMARK  3 active torsions:
REMARK  status: ('A' for Active; 'I' for Inactive)
REMARK    1  A    between atoms: C_4  and  C_7
REMARK    2  A    between atoms: N_17  and  N_18
REMARK    3  A    between atoms: C_19  and  C_20
REMARK                            x       y       z     vdW  Elec       q    Type
REMARK                         _______ _______ _______ _____ _____    ______ ____
ROOT
ATOM      1  C   UNL     1       3.697  -0.686  -0.038  0.00  0.00    +0.084 A 
ATOM      2  C   UNL     1       3.885  -1.862   0.731  0.00  0.00    +0.028 A 
ATOM      3  C   UNL     1       2.871  -2.394   1.535  0.00  0.00    +0.027 A 
ATOM      4  C   UNL     1       3.109  -3.529   2.254  0.00  0.00    +0.019 A 
ATOM      5  C   UNL     1       4.348  -4.165   2.199  0.00  0.00    +0.017 A 
ATOM      6  C   UNL     1       5.357  -3.671   1.427  0.00  0.00    +0.029 A 
ATOM      7  C   UNL     1       5.147  -2.507   0.674  0.00  0.00    +0.077 A 
ATOM      8  N   UNL     1       6.105  -1.982  -0.101  0.00  0.00    -0.213 NA
ATOM      9  C   UNL     1       5.875  -0.885  -0.797  0.00  0.00    +0.236 A 
ATOM     10  N   UNL     1       4.707  -0.251  -0.778  0.00  0.00    -0.213 NA
ATOM     11  N   UNL     1       6.894  -0.375  -1.586  0.00  0.00    -0.205 N 
ATOM     12 BR   UNL     1       1.739  -4.249   3.340  0.00  0.00    -0.050 Br
ATOM     13  H   UNL     1       6.748   0.430  -2.106  0.00  0.00    +0.177 HD
ENDROOT
BRANCH   1  17
ATOM     14  C   UNL     1      -0.016   1.381   0.011  0.00  0.00    +0.000 A 
ATOM     15  C   UNL     1       0.537   0.930   1.196  0.00  0.00    +0.001 A 
ATOM     16  C   UNL     1       1.742   0.258   1.187  0.00  0.00    +0.010 A 
ATOM     17  C   UNL     1       2.403   0.034  -0.021  0.00  0.00    +0.001 A 
ATOM     18  C   UNL     1       1.840   0.490  -1.213  0.00  0.00    +0.010 A 
ATOM     19  C   UNL     1       0.634   1.161  -1.190  0.00  0.00    +0.001 A 
ENDBRANCH   1  17
BRANCH  11  20
ATOM     20  N   UNL     1       8.037  -0.972  -1.629  0.00  0.00    -0.188 NA
ATOM     21  C   UNL     1       9.002  -0.489  -2.376  0.00  0.00    +0.136 C 
BRANCH  21  22
ATOM     22  C   UNL     1      10.241  -1.136  -2.422  0.00  0.00    +0.000 C 
ATOM     23  C   UNL     1      11.365  -0.755  -3.155  0.00  0.00    +0.004 A 
ATOM     24  C   UNL     1      11.612   0.327  -4.028  0.00  0.00    +0.010 A 
ATOM     25  C   UNL     1      12.830   0.453  -4.616  0.00  0.00    +0.001 A 
ATOM     26  C   UNL     1      13.855  -0.466  -4.380  0.00  0.00    +0.002 A 
ATOM     27  C   UNL     1      13.688  -1.528  -3.554  0.00  0.00    +0.026 A 
ATOM     28  C   UNL     1      12.442  -1.726  -2.903  0.00  0.00    +0.043 A 
ATOM     29  N   UNL     1      12.034  -2.661  -2.068  0.00  0.00    -0.380 N 
ATOM     30  C   UNL     1      10.645  -2.393  -1.683  0.00  0.00    +0.150 C 
ATOM     31  H   UNL     1      12.569  -3.407  -1.755  0.00  0.00    +0.160 HD
ENDBRANCH  21  22
ENDBRANCH  11  20
TORSDOF 3
