REMARK  Name = ZINC07204023
REMARK  7 active torsions:
REMARK  status: ('A' for Active; 'I' for Inactive)
REMARK    1  A    between atoms: C_1  and  C_2
REMARK    2  A    between atoms: C_5  and  N_9
REMARK    3  A    between atoms: C_6  and  C_8
REMARK    4  A    between atoms: C_10  and  C_12
REMARK    5  A    between atoms: C_12  and  C_14
REMARK    6  A    between atoms: C_12  and  S_15
REMARK    7  A    between atoms: S_15  and  C_16
REMARK                            x       y       z     vdW  Elec       q    Type
REMARK                         _______ _______ _______ _____ _____    ______ ____
ROOT
ATOM      1  C   UNL     1       2.747   5.179  -0.886  0.00  0.00    +0.192 A 
ATOM      2  N   UNL     1       1.471   4.841  -0.995  0.00  0.00    -0.207 NA
ATOM      3  C   UNL     1       0.992   3.641  -0.679  0.00  0.00    +0.129 A 
ATOM      4  C   UNL     1       1.944   2.696  -0.198  0.00  0.00    +0.051 A 
ATOM      5  C   UNL     1       1.686   1.325   0.213  0.00  0.00    -0.025 A 
ATOM      6  C   UNL     1       2.751   0.608   0.637  0.00  0.00    -0.004 A 
ATOM      7  S   UNL     1       4.137   1.711   0.511  0.00  0.00    -0.073 S 
ATOM      8  C   UNL     1       3.290   3.129  -0.108  0.00  0.00    +0.115 A 
ATOM      9  N   UNL     1       3.687   4.341  -0.443  0.00  0.00    -0.214 NA
ATOM     10  C   UNL     1       2.758  -0.813   1.111  0.00  0.00    +0.043 C 
ATOM     11  C   UNL     1       1.311  -1.238   1.397  0.00  0.00    +0.005 C 
ATOM     12  C   UNL     1       0.434  -0.823   0.212  0.00  0.00    +0.005 C 
ATOM     13  C   UNL     1       0.294   0.699   0.178  0.00  0.00    +0.037 C 
ATOM     14  N   UNL     1      -0.350   3.330  -0.809  0.00  0.00    -0.343 N 
ATOM     15  H   UNL     1      -0.869   3.714  -1.532  0.00  0.00    +0.144 HD
ATOM     16  H   UNL     1      -0.771   2.728  -0.176  0.00  0.00    +0.144 HD
ENDROOT
BRANCH   1  17
ATOM     17  S   UNL     1       3.227   6.811  -1.347  0.00  0.00    -0.073 S 
BRANCH  17  18
ATOM     18  C   UNL     1       1.622   7.480  -1.849  0.00  0.00    +0.137 C 
ATOM     19  C   UNL     1       1.119   6.727  -3.082  0.00  0.00    +0.029 C 
BRANCH  18  21
ATOM     20  N   UNL     1       0.705   9.765  -2.087  0.00  0.00    -0.284 N 
ATOM     21  C   UNL     1       1.769   8.943  -2.179  0.00  0.00    +0.230 C 
ATOM     22  O   UNL     1       2.845   9.381  -2.528  0.00  0.00    -0.274 OA
ATOM     23  H   UNL     1      -0.173   9.402  -1.890  0.00  0.00    +0.155 HD
BRANCH  20  28
ATOM     24  C   UNL     1       1.358  15.349  -2.851  0.00  0.00    +0.044 C 
ATOM     25  C   UNL     1       1.185  13.866  -2.648  0.00  0.00    -0.050 A 
ATOM     26  C   UNL     1       2.256  13.095  -2.235  0.00  0.00    +0.005 A 
ATOM     27  C   UNL     1       2.101  11.736  -2.048  0.00  0.00    +0.024 A 
ATOM     28  C   UNL     1       0.866  11.142  -2.275  0.00  0.00    +0.036 A 
ATOM     29  C   UNL     1      -0.207  11.917  -2.696  0.00  0.00    -0.029 A 
ATOM     30  C   UNL     1      -0.046  13.277  -2.876  0.00  0.00    +0.008 A 
ATOM     31  C   UNL     1      -1.547  11.276  -2.950  0.00  0.00    +0.045 C 
ENDBRANCH  20  28
ENDBRANCH  18  21
ENDBRANCH  17  18
ENDBRANCH   1  17
TORSDOF 4
