REMARK  Name = ZINC63270890
REMARK  7 active torsions:
REMARK  status: ('A' for Active; 'I' for Inactive)
REMARK    1  A    between atoms: C_1  and  O_2
REMARK    2  A    between atoms: O_2  and  C_3
REMARK    3  A    between atoms: C_6  and  C_9
REMARK    4  A    between atoms: C_9  and  C_10
REMARK    5  A    between atoms: C_10  and  N_11
REMARK    6  A    between atoms: C_12  and  C_14
REMARK    7  A    between atoms: C_14  and  N_15
REMARK                            x       y       z     vdW  Elec       q    Type
REMARK                         _______ _______ _______ _____ _____    ______ ____
ROOT
ATOM      1  N   UNL     1       1.279  -4.720   9.885  0.00  0.00    -0.291 N 
ATOM      2  C   UNL     1       1.673  -5.328  11.021  0.00  0.00    +0.303 C 
ATOM      3  O   UNL     1       2.808  -5.753  11.121  0.00  0.00    -0.253 OA
ATOM      4  N   UNL     1       0.810  -5.464  12.047  0.00  0.00    -0.283 N 
ATOM      5  C   UNL     1      -0.589  -5.059  11.877  0.00  0.00    +0.114 C 
ATOM      6  C   UNL     1      -1.509  -6.260  12.162  0.00  0.00    +0.052 C 
ATOM      7  C   UNL     1      -1.000  -6.903  13.429  0.00  0.00    -0.036 C 
ATOM      8  C   UNL     1      -1.620  -7.237  14.554  0.00  0.00    -0.001 A 
ATOM      9  C   UNL     1      -3.041  -7.205  14.937  0.00  0.00    +0.010 A 
ATOM     10  C   UNL     1      -3.330  -7.607  16.202  0.00  0.00    +0.001 A 
ATOM     11  C   UNL     1      -2.360  -8.034  17.114  0.00  0.00    +0.002 A 
ATOM     12  C   UNL     1      -1.032  -8.104  16.845  0.00  0.00    +0.026 A 
ATOM     13  C   UNL     1      -0.605  -7.714  15.542  0.00  0.00    +0.043 A 
ATOM     14  N   UNL     1       0.583  -7.703  15.014  0.00  0.00    -0.376 N 
ATOM     15  C   UNL     1       0.464  -7.282  13.618  0.00  0.00    +0.124 C 
ATOM     16  C   UNL     1       1.280  -6.024  13.324  0.00  0.00    +0.138 C 
ATOM     17  H   UNL     1       0.355  -4.445   9.777  0.00  0.00    +0.151 HD
ATOM     18  H   UNL     1       1.408  -7.935  15.469  0.00  0.00    +0.160 HD
ENDROOT
BRANCH   1  19
ATOM     19  C   UNL     1       2.246  -4.473   8.812  0.00  0.00    +0.201 C 
BRANCH  19  21
ATOM     20  N   UNL     1       2.254  -3.459   6.556  0.00  0.00    -0.314 N 
ATOM     21  C   UNL     1       1.556  -3.786   7.662  0.00  0.00    +0.230 C 
ATOM     22  O   UNL     1       0.373  -3.528   7.731  0.00  0.00    -0.274 OA
ATOM     23  H   UNL     1       3.200  -3.666   6.501  0.00  0.00    +0.149 HD
BRANCH  20  24
ATOM     24  C   UNL     1       1.583  -2.791   5.438  0.00  0.00    +0.109 C 
BRANCH  24  25
ATOM     25  C   UNL     1       2.593  -2.534   4.318  0.00  0.00    +0.054 C 
BRANCH  25  29
ATOM     26  C   UNL     1       0.638  -0.586   1.056  0.00  0.00    +0.120 A 
ATOM     27  C   UNL     1       1.217   0.166   2.067  0.00  0.00    +0.046 A 
ATOM     28  C   UNL     1       1.849  -0.466   3.121  0.00  0.00    +0.007 A 
ATOM     29  C   UNL     1       1.903  -1.847   3.168  0.00  0.00    -0.046 A 
ATOM     30  C   UNL     1       1.327  -2.598   2.160  0.00  0.00    +0.007 A 
ATOM     31  C   UNL     1       0.689  -1.971   1.108  0.00  0.00    +0.046 A 
BRANCH  26  33
ATOM     32  C   UNL     1       0.001   1.463   0.030  0.00  0.00    +0.277 C 
ATOM     33  O   UNL     1       0.015   0.034   0.018  0.00  0.00    -0.495 OA
ENDBRANCH  26  33
ENDBRANCH  25  29
ENDBRANCH  24  25
ENDBRANCH  20  24
ENDBRANCH  19  21
ENDBRANCH   1  19
TORSDOF 6
