REMARK  Name = ZINC39859691
REMARK  7 active torsions:
REMARK  status: ('A' for Active; 'I' for Inactive)
REMARK    1  A    between atoms: C_5  and  N_7
REMARK    2  A    between atoms: N_7  and  C_8
REMARK    3  A    between atoms: C_8  and  N_10
REMARK    4  A    between atoms: N_10  and  C_11
REMARK    5  A    between atoms: C_11  and  C_13
REMARK    6  A    between atoms: C_11  and  N_17
REMARK    7  A    between atoms: C_18  and  C_20
REMARK                            x       y       z     vdW  Elec       q    Type
REMARK                         _______ _______ _______ _____ _____    ______ ____
ROOT
ATOM      1  C   UNL     1      -1.136  -4.870   0.300  0.00  0.00    +0.211 C 
ENDROOT
BRANCH   1   2
ATOM      2  C   UNL     1      -0.990  -5.932   1.391  0.00  0.00    +0.225 C 
ATOM      3 CL   UNL     1      -0.619  -5.132   2.963  0.00  0.00    -0.080 Cl
ATOM      4 CL   UNL     1      -2.530  -6.859   1.537  0.00  0.00    -0.080 Cl
ATOM      5 CL   UNL     1       0.351  -7.058   0.959  0.00  0.00    -0.080 Cl
ENDBRANCH   1   2
BRANCH   1   6
ATOM      6  N   UNL     1      -1.437  -5.521  -0.978  0.00  0.00    -0.289 N 
ATOM      7  C   UNL     1      -2.406  -5.027  -1.774  0.00  0.00    +0.252 C 
ATOM      8  O   UNL     1      -3.031  -4.041  -1.431  0.00  0.00    -0.270 OA
ATOM      9  H   UNL     1      -0.939  -6.307  -1.251  0.00  0.00    +0.151 HD
BRANCH   7  10
ATOM     10  C   UNL     1      -2.707  -5.678  -3.052  0.00  0.00    +0.074 A 
ATOM     11  C   UNL     1      -3.649  -5.332  -4.009  0.00  0.00    +0.021 A 
ATOM     12  C   UNL     1      -3.700  -6.142  -5.118  0.00  0.00    +0.008 A 
ATOM     13  C   UNL     1      -2.851  -7.196  -5.203  0.00  0.00    +0.046 A 
ATOM     14  S   UNL     1      -1.953  -7.117  -3.785  0.00  0.00    -0.092 S 
ENDBRANCH   7  10
ENDBRANCH   1   6
BRANCH   1  15
ATOM     15  N   UNL     1       0.115  -4.117   0.181  0.00  0.00    -0.305 N 
ATOM     16  H   UNL     1       0.964  -4.586   0.170  0.00  0.00    +0.150 HD
BRANCH  15  17
ATOM     17  C   UNL     1       0.086  -2.773   0.087  0.00  0.00    +0.136 C 
ATOM     18  S   UNL     1      -1.413  -1.946   0.107  0.00  0.00    -0.019 S 
BRANCH  17  19
ATOM     19  N   UNL     1       1.237  -2.080  -0.021  0.00  0.00    -0.296 N 
ATOM     20  H   UNL     1       2.082  -2.551  -0.096  0.00  0.00    +0.154 HD
BRANCH  19  25
ATOM     21  C   UNL     1       0.291   1.377  -0.843  0.00  0.00    +0.002 A 
ATOM     22  C   UNL     1       1.167   2.086  -0.041  0.00  0.00    +0.001 A 
ATOM     23  C   UNL     1       2.066   1.416   0.767  0.00  0.00    +0.017 A 
ATOM     24  C   UNL     1       2.092   0.034   0.776  0.00  0.00    +0.039 A 
ATOM     25  C   UNL     1       1.213  -0.681  -0.028  0.00  0.00    +0.047 A 
ATOM     26  C   UNL     1       0.311  -0.004  -0.838  0.00  0.00    +0.024 A 
ATOM     27 BR   UNL     1       3.323  -0.882   1.882  0.00  0.00    -0.048 Br
ENDBRANCH  19  25
ENDBRANCH  17  19
ENDBRANCH  15  17
ENDBRANCH   1  15
TORSDOF 7
