REMARK  Name = ZINC59863055
REMARK  5 active torsions:
REMARK  status: ('A' for Active; 'I' for Inactive)
REMARK    1  A    between atoms: C_5  and  N_7
REMARK    2  A    between atoms: N_7  and  C_8
REMARK    3  A    between atoms: C_17  and  N_18
REMARK    4  A    between atoms: N_23  and  C_26
REMARK    5  A    between atoms: C_30  and  O_32
REMARK                            x       y       z     vdW  Elec       q    Type
REMARK                         _______ _______ _______ _____ _____    ______ ____
ROOT
ATOM      1  C   UNL     1       0.054  -2.777   0.177  0.00  0.00    +0.070 A 
ATOM      2  C   UNL     1       0.035  -4.192   0.198  0.00  0.00    +0.007 A 
ATOM      3  C   UNL     1       1.208  -4.949   0.327  0.00  0.00    +0.010 A 
ATOM      4  C   UNL     1       1.141  -6.324   0.342  0.00  0.00    +0.001 A 
ATOM      5  C   UNL     1      -0.072  -6.990   0.231  0.00  0.00    +0.014 A 
ATOM      6  C   UNL     1      -1.252  -6.271   0.101  0.00  0.00    +0.046 A 
ATOM      7  C   UNL     1      -1.201  -4.858   0.085  0.00  0.00    +0.008 A 
ATOM      8  C   UNL     1      -2.401  -4.121  -0.047  0.00  0.00    +0.048 A 
ATOM      9  C   UNL     1      -2.348  -2.730  -0.065  0.00  0.00    +0.048 A 
ATOM     10  C   UNL     1      -1.136  -2.075   0.052  0.00  0.00    +0.149 A 
ATOM     11  C   UNL     1      -3.667  -4.851  -0.162  0.00  0.00    +0.258 C 
ATOM     12  O   UNL     1      -4.711  -4.236  -0.276  0.00  0.00    -0.269 OA
ATOM     13  N   UNL     1      -3.683  -6.197  -0.142  0.00  0.00    -0.202 N 
ATOM     14  C   UNL     1      -2.560  -6.930  -0.020  0.00  0.00    +0.258 C 
ATOM     15  O   UNL     1      -2.629  -8.145  -0.009  0.00  0.00    -0.269 OA
ENDROOT
BRANCH  13  16
ATOM     16  C   UNL     1      -4.912  -6.859  -0.254  0.00  0.00    +0.048 A 
ATOM     17  C   UNL     1      -5.428  -7.556   0.831  0.00  0.00    +0.024 A 
ATOM     18  C   UNL     1      -6.641  -8.209   0.720  0.00  0.00    +0.005 A 
ATOM     19  C   UNL     1      -7.343  -8.170  -0.469  0.00  0.00    +0.045 A 
ATOM     20  C   UNL     1      -6.832  -7.476  -1.557  0.00  0.00    +0.119 A 
ATOM     21  C   UNL     1      -5.619  -6.815  -1.448  0.00  0.00    +0.069 A 
BRANCH  20  22
ATOM     22  O   UNL     1      -7.523  -7.440  -2.726  0.00  0.00    -0.507 OA
ATOM     23  H   UNL     1      -8.141  -6.700  -2.795  0.00  0.00    +0.292 HD
ENDBRANCH  20  22
ENDBRANCH  13  16
BRANCH  10  24
ATOM     24  N   UNL     1      -1.107  -0.595   0.038  0.00  0.00    +0.058 N 
ATOM     25  O   UNL     1      -2.142   0.030   0.022  0.00  0.00    -0.126 OA
ATOM     26  O   UNL     1      -0.048  -0.011   0.041  0.00  0.00    -0.126 OA
ENDBRANCH  10  24
BRANCH   1  27
ATOM     27  N   UNL     1       1.253  -2.097   0.285  0.00  0.00    -0.311 N 
ATOM     28  H   UNL     1       1.546  -1.766   1.149  0.00  0.00    +0.152 HD
BRANCH  27  33
ATOM     29  C   UNL     1       2.468  -2.252  -3.180  0.00  0.00    +0.002 A 
ATOM     30  C   UNL     1       3.608  -1.473  -3.093  0.00  0.00    +0.001 A 
ATOM     31  C   UNL     1       3.967  -0.900  -1.887  0.00  0.00    +0.017 A 
ATOM     32  C   UNL     1       3.189  -1.105  -0.764  0.00  0.00    +0.039 A 
ATOM     33  C   UNL     1       2.043  -1.887  -0.848  0.00  0.00    +0.046 A 
ATOM     34  C   UNL     1       1.685  -2.461  -2.062  0.00  0.00    +0.024 A 
ATOM     35 BR   UNL     1       3.682  -0.322   0.885  0.00  0.00    -0.048 Br
ENDBRANCH  27  33
ENDBRANCH   1  27
TORSDOF 5
