REMARK  Name = ZINC65742683
REMARK  14 active torsions:
REMARK  status: ('A' for Active; 'I' for Inactive)
REMARK    1  A    between atoms: C_1  and  O_2
REMARK    2  A    between atoms: O_2  and  C_3
REMARK    3  A    between atoms: C_5  and  C_14
REMARK    4  A    between atoms: C_6  and  N_11
REMARK    5  A    between atoms: C_8  and  O_9
REMARK    6  A    between atoms: O_9  and  C_10
REMARK    7  A    between atoms: C_14  and  O_15
REMARK    8  A    between atoms: O_15  and  C_16
REMARK    9  A    between atoms: C_16  and  C_17
REMARK   10  A    between atoms: C_17  and  C_19
REMARK   11  A    between atoms: C_17  and  N_22
REMARK   12  A    between atoms: C_23  and  O_25
REMARK   13  A    between atoms: O_25  and  C_26
REMARK   14  A    between atoms: C_26  and  C_27
REMARK                            x       y       z     vdW  Elec       q    Type
REMARK                         _______ _______ _______ _____ _____    ______ ____
ROOT
ATOM      1  C   UNK A   1       2.526   4.097  -4.485  0.00  0.00    +0.215 C 
ENDROOT
BRANCH   1   2
ATOM      2  N   UNK A   1       3.262   4.379  -3.250  0.00  0.00    -0.266 N 
ATOM      3  C   UNK A   0       3.620   5.644  -2.953  0.00  0.00    +0.401 C 
ATOM      4  O   UNK A   0       3.332   6.550  -3.708  0.00  0.00    -0.226 OA
ATOM      5  H   UNK A   1       3.493   3.655  -2.647  0.00  0.00    +0.153 HD
BRANCH   3   6
ATOM      6  O   UNK A   0       4.298   5.902  -1.818  0.00  0.00    -0.449 OA
BRANCH   6   7
ATOM      7  C   UNK A   0       4.645   7.266  -1.567  0.00  0.00    +0.246 C 
BRANCH   7   8
ATOM      8  C   UNK A   0       5.404   7.362  -0.242  0.00  0.00    +0.088 C 
ATOM      9  C   UNK A   0       6.758   6.707  -0.370  0.00  0.00    -0.029 A 
ATOM     10  C   UNK A   0       7.136   5.414  -0.664  0.00  0.00    +0.005 A 
ATOM     11  C   UNK A   0       8.478   5.080  -0.718  0.00  0.00    +0.000 A 
ATOM     12  C   UNK A   0       9.442   6.042  -0.477  0.00  0.00    +0.001 A 
ATOM     13  C   UNK A   0       9.073   7.338  -0.181  0.00  0.00    +0.009 A 
ATOM     14  C   UNK A   0       7.721   7.682  -0.126  0.00  0.00    -0.014 A 
ATOM     15  C   UNK A   0       7.052   8.975   0.164  0.00  0.00    -0.014 A 
ATOM     16  C   UNK A   0       5.672   8.807   0.100  0.00  0.00    -0.029 A 
ATOM     17  C   UNK A   0       4.830   9.874   0.333  0.00  0.00    +0.005 A 
ATOM     18  C   UNK A   0       5.356  11.119   0.633  0.00  0.00    +0.000 A 
ATOM     19  C   UNK A   0       6.726  11.295   0.698  0.00  0.00    +0.001 A 
ATOM     20  C   UNK A   0       7.576  10.233   0.466  0.00  0.00    +0.009 A 
ENDBRANCH   7   8
ENDBRANCH   6   7
ENDBRANCH   3   6
ENDBRANCH   1   2
BRANCH   1  21
ATOM     21  C   UNK A   1       1.052   4.305  -4.249  0.00  0.00    +0.378 C 
ATOM     22  O   UNK A   1       0.579   4.115  -3.141  0.00  0.00    -0.244 OA
ATOM     23  O   UNK A   1       0.332   4.664  -5.165  0.00  0.00    -0.244 OA
ENDBRANCH   1  21
BRANCH   1  24
ATOM     24  C   UNK A   1       2.774   2.648  -4.908  0.00  0.00    +0.194 C 
BRANCH  24  25
ATOM     25  O   UNK A   1       2.224   1.765  -3.929  0.00  0.00    -0.373 OA
BRANCH  25  26
ATOM     26  C   UNK A   1       2.403   0.379  -4.230  0.00  0.00    +0.197 C 
BRANCH  26  29
ATOM     27  C   UNK A   1       0.606  -0.608  -1.056  0.00  0.00    +0.162 A 
ATOM     28  C   UNK A   1       1.173   0.159  -2.062  0.00  0.00    +0.057 A 
ATOM     29  C   UNK A   1       1.787  -0.456  -3.137  0.00  0.00    +0.012 A 
ATOM     30  C   UNK A   1       1.837  -1.836  -3.212  0.00  0.00    +0.135 A 
ATOM     31  C   UNK A   1       1.274  -2.606  -2.212  0.00  0.00    +0.082 A 
ATOM     32  C   UNK A   1       0.662  -1.996  -1.129  0.00  0.00    +0.164 A 
BRANCH  30  33
ATOM     33  N   UNK A   1       2.495  -2.489  -4.366  0.00  0.00    +0.057 N 
ATOM     34  O   UNK A   1       2.540  -3.695  -4.433  0.00  0.00    -0.126 OA
ATOM     35  O   UNK A   1       2.988  -1.816  -5.241  0.00  0.00    -0.126 OA
ENDBRANCH  30  33
BRANCH  27  37
ATOM     36  C   UNK A   1      -0.017   1.425   0.010  0.00  0.00    +0.277 C 
ATOM     37  O   UNK A   1       0.002  -0.004   0.002  0.00  0.00    -0.491 OA
ENDBRANCH  27  37
BRANCH  32  38
ATOM     38  O   UNK A   1       0.112  -2.753  -0.142  0.00  0.00    -0.491 OA
ATOM     39  C   UNK A   1       0.206  -4.171  -0.283  0.00  0.00    +0.277 C 
ENDBRANCH  32  38
ENDBRANCH  26  29
ENDBRANCH  25  26
ENDBRANCH  24  25
ENDBRANCH   1  24
TORSDOF 12
