REMARK  Name = ZINC36993222
REMARK  3 active torsions:
REMARK  status: ('A' for Active; 'I' for Inactive)
REMARK    1  A    between atoms: C_5  and  C_6
REMARK    2  A    between atoms: C_6  and  N_7
REMARK    3  A    between atoms: N_7  and  C_8
REMARK                            x       y       z     vdW  Elec       q    Type
REMARK                         _______ _______ _______ _____ _____    ______ ____
ROOT
ATOM      1  C   UNL     1      -2.604  -2.153  -1.622  0.00  0.00    +0.050 A 
ATOM      2  C   UNL     1      -3.290  -2.732  -0.562  0.00  0.00    +0.072 A 
ATOM      3  C   UNL     1      -4.337  -3.600  -0.812  0.00  0.00    +0.144 A 
ATOM      4  C   UNL     1      -4.700  -3.893  -2.126  0.00  0.00    +0.077 A 
ATOM      5  C   UNL     1      -4.014  -3.315  -3.181  0.00  0.00    +0.048 A 
ATOM      6  C   UNL     1      -2.971  -2.442  -2.930  0.00  0.00    +0.064 A 
ATOM      7 CL   UNL     1      -2.116  -1.711  -4.252  0.00  0.00    -0.082 Cl
ATOM      8  N   UNL     1      -5.764  -4.779  -2.362  0.00  0.00    -0.280 N 
ATOM      9  C   UNL     1      -6.605  -5.077  -1.348  0.00  0.00    +0.255 C 
ATOM     10  O   UNL     1      -7.513  -5.863  -1.520  0.00  0.00    -0.272 OA
ATOM     11  C   UNL     1      -6.411  -4.429  -0.001  0.00  0.00    +0.325 C 
ATOM     12  O   UNL     1      -5.020  -4.175   0.214  0.00  0.00    -0.481 OA
ATOM     13  H   UNL     1      -5.893  -5.171  -3.240  0.00  0.00    +0.155 HD
ENDROOT
BRANCH   1  14
ATOM     14  N   UNL     1      -1.544  -1.274  -1.371  0.00  0.00    -0.338 N 
ATOM     15  H   UNL     1      -1.067  -0.866  -2.111  0.00  0.00    +0.146 HD
BRANCH  14  16
ATOM     16  C   UNL     1      -1.156  -0.969   0.008  0.00  0.00    +0.144 C 
BRANCH  16  21
ATOM     17  C   UNL     1      -0.016   1.351   0.009  0.00  0.00    +0.014 A 
ATOM     18  C   UNL     1       1.184   2.038   0.002  0.00  0.00    +0.028 A 
ATOM     19  C   UNL     1       2.343   1.335  -0.013  0.00  0.00    +0.078 A 
ATOM     20  S   UNL     1       1.753  -0.350  -0.017  0.00  0.00    -0.080 S 
ATOM     21  C   UNL     1       0.002  -0.004   0.002  0.00  0.00    +0.008 A 
ATOM     22 CL   UNL     1       3.977   1.921  -0.026  0.00  0.00    -0.076 Cl
ENDBRANCH  16  21
ENDBRANCH  14  16
ENDBRANCH   1  14
TORSDOF 3
