REMARK  Name = ZINC39685829
REMARK  16 active torsions:
REMARK  status: ('A' for Active; 'I' for Inactive)
REMARK    1  A    between atoms: C_1  and  C_2
REMARK    2  A    between atoms: C_2  and  C_3
REMARK    3  A    between atoms: C_3  and  C_4
REMARK    4  A    between atoms: C_4  and  C_5
REMARK    5  A    between atoms: C_5  and  C_6
REMARK    6  A    between atoms: C_6  and  C_7
REMARK    7  A    between atoms: C_11  and  C_20
REMARK    8  A    between atoms: N_22  and  C_23
REMARK    9  A    between atoms: C_23  and  C_25
REMARK   10  A    between atoms: C_23  and  C_28
REMARK   11  A    between atoms: C_25  and  C_26
REMARK   12  A    between atoms: C_25  and  C_27
REMARK   13  A    between atoms: N_30  and  C_31
REMARK   14  A    between atoms: C_31  and  C_32
REMARK   15  A    between atoms: C_31  and  C_33
REMARK   16  A    between atoms: C_31  and  C_34
REMARK                            x       y       z     vdW  Elec       q    Type
REMARK                         _______ _______ _______ _____ _____    ______ ____
ROOT
ATOM      1  C   UNL     1       1.334  -4.871   2.930  0.00  0.00    +0.216 C 
ATOM      2  O   UNL     1       1.515  -3.844   3.549  0.00  0.00    -0.276 OA
ATOM      3  N   UNL     1       1.803  -6.039   3.410  0.00  0.00    -0.300 N 
ATOM      4  C   UNL     1       1.688  -7.384   2.800  0.00  0.00    +0.121 C 
ATOM      5  C   UNL     1       3.053  -8.055   3.071  0.00  0.00    +0.100 C 
ATOM      6  C   UNL     1       3.614  -7.319   4.300  0.00  0.00    -0.004 C 
ATOM      7  C   UNL     1       2.557  -6.268   4.667  0.00  0.00    +0.115 C 
ATOM      8  C   UNL     1       4.931  -6.635   3.951  0.00  0.00    -0.010 C 
ATOM      9  C   UNL     1       5.497  -5.959   5.203  0.00  0.00    -0.082 C 
ATOM     10  N   UNL     1       5.708  -6.965   6.251  0.00  0.00    +0.379 N 
ATOM     11  C   UNL     1       4.423  -7.553   6.647  0.00  0.00    -0.082 C 
ATOM     12  C   UNL     1       3.812  -8.296   5.456  0.00  0.00    -0.010 C 
ATOM     13  H   UNL     1       6.316  -7.691   5.902  0.00  0.00    -0.086 HD
ATOM     14  H   UNL     1       6.138  -6.528   7.053  0.00  0.00    -0.086 HD
ENDROOT
BRANCH   5  15
ATOM     15  C   UNL     1       3.970  -7.877   1.888  0.00  0.00    +0.219 C 
ATOM     16  O   UNL     1       4.621  -8.815   1.479  0.00  0.00    -0.275 OA
ATOM     17  N   UNL     1       4.065  -6.676   1.284  0.00  0.00    -0.303 N 
ATOM     18  H   UNL     1       3.544  -5.926   1.610  0.00  0.00    +0.149 HD
BRANCH  17  19
ATOM     19  C   UNL     1       4.955  -6.503   0.133  0.00  0.00    +0.161 C 
BRANCH  19  20
ATOM     20  C   UNL     1       5.362  -5.056   0.026  0.00  0.00    +0.234 C 
ATOM     21  O   UNL     1       4.949  -4.249   0.831  0.00  0.00    -0.274 OA
ATOM     22  N   UNL     1       6.186  -4.660  -0.965  0.00  0.00    -0.309 N 
ATOM     23  H   UNL     1       6.516  -5.306  -1.609  0.00  0.00    +0.149 HD
BRANCH  22  24
ATOM     24  C   UNL     1       6.581  -3.253  -1.069  0.00  0.00    +0.026 C 
ATOM     25  C   UNL     1       7.311  -2.832   0.208  0.00  0.00    +0.031 C 
ATOM     26  C   UNL     1       7.512  -3.073  -2.271  0.00  0.00    +0.031 C 
ATOM     27  C   UNL     1       5.335  -2.385  -1.255  0.00  0.00    +0.031 C 
ENDBRANCH  22  24
ENDBRANCH  19  20
BRANCH  19  28
ATOM     28  C   UNL     1       4.226  -6.924  -1.144  0.00  0.00    +0.012 C 
ATOM     29  C   UNL     1       3.813  -8.393  -1.035  0.00  0.00    +0.009 C 
ATOM     30  C   UNL     1       2.980  -6.056  -1.329  0.00  0.00    +0.009 C 
ENDBRANCH  19  28
ENDBRANCH  17  19
ENDBRANCH   5  15
BRANCH   1  31
ATOM     31  C   UNL     1       0.585  -4.840   1.623  0.00  0.00    +0.096 C 
BRANCH  31  32
ATOM     32  C   UNL     1       0.165  -3.403   1.309  0.00  0.00    +0.009 C 
BRANCH  32  33
ATOM     33  C   UNL     1      -0.596  -3.372  -0.018  0.00  0.00    +0.000 C 
BRANCH  33  34
ATOM     34  C   UNL     1      -1.015  -1.934  -0.332  0.00  0.00    -0.000 C 
BRANCH  34  36
ATOM     35  C   UNL     1      -2.195  -0.466  -1.974  0.00  0.00    +0.004 C 
ATOM     36  C   UNL     1      -1.776  -1.903  -1.659  0.00  0.00    -0.003 C 
ENDBRANCH  34  36
ENDBRANCH  33  34
ENDBRANCH  32  33
ENDBRANCH  31  32
ENDBRANCH   1  31
TORSDOF 10
