REMARK  Name = ZINC04089944
REMARK  9 active torsions:
REMARK  status: ('A' for Active; 'I' for Inactive)
REMARK    1  A    between atoms: C_1  and  C_2
REMARK    2  A    between atoms: C_6  and  C_18
REMARK    3  A    between atoms: C_7  and  C_11
REMARK    4  A    between atoms: C_11  and  C_12
REMARK    5  A    between atoms: N_14  and  C_15
REMARK    6  A    between atoms: C_15  and  C_16
REMARK    7  A    between atoms: C_15  and  C_17
REMARK    8  A    between atoms: C_21  and  C_25
REMARK    9  A    between atoms: C_22  and  C_24
REMARK                            x       y       z     vdW  Elec       q    Type
REMARK                         _______ _______ _______ _____ _____    ______ ____
ROOT
ATOM      1  C   UNL     1      -6.913  -3.700  -0.861  0.00  0.00    +0.044 C 
ATOM      2  C   UNL     1      -5.850  -2.635  -0.949  0.00  0.00    -0.036 A 
ATOM      3  C   UNL     1      -5.324  -2.107   0.195  0.00  0.00    +0.051 A 
ATOM      4  C   UNL     1      -4.340  -1.123   0.132  0.00  0.00    +0.143 A 
ATOM      5  C   UNL     1      -3.884  -0.667  -1.116  0.00  0.00    +0.064 A 
ATOM      6  C   UNL     1      -2.855   0.371  -1.162  0.00  0.00    -0.026 A 
ATOM      7  C   UNL     1      -2.371   0.850   0.014  0.00  0.00    +0.049 A 
ATOM      8  C   UNL     1      -2.874   0.347   1.232  0.00  0.00    +0.341 A 
ATOM      9  O   UNL     1      -2.437   0.787   2.280  0.00  0.00    -0.245 OA
ATOM     10  O   UNL     1      -3.821  -0.602   1.265  0.00  0.00    -0.422 OA
ATOM     11  C   UNL     1      -2.341   0.893  -2.479  0.00  0.00    +0.045 C 
ATOM     12  C   UNL     1      -4.422  -1.207  -2.297  0.00  0.00    +0.147 A 
ATOM     13  C   UNL     1      -5.410  -2.196  -2.201  0.00  0.00    +0.027 A 
ATOM     14  C   UNL     1      -5.755  -2.542  -3.586  0.00  0.00    -0.002 A 
ATOM     15  C   UNL     1      -4.984  -1.770  -4.365  0.00  0.00    +0.106 A 
ATOM     16  O   UNL     1      -4.200  -0.985  -3.605  0.00  0.00    -0.459 OA
ATOM     17  C   UNL     1      -4.995  -1.781  -5.872  0.00  0.00    +0.086 C 
ATOM     18  C   UNL     1      -6.770  -3.559  -4.039  0.00  0.00    +0.048 C 
ENDROOT
BRANCH   7  19
ATOM     19  C   UNL     1      -1.306   1.916   0.017  0.00  0.00    +0.138 C 
BRANCH  19  20
ATOM     20  C   UNL     1       0.054   1.268   0.019  0.00  0.00    +0.218 C 
ATOM     21  O   UNL     1       0.150   0.059   0.019  0.00  0.00    -0.275 OA
ATOM     22  N   UNL     1       1.164   2.032   0.017  0.00  0.00    -0.313 N 
ATOM     23  H   UNL     1       1.088   2.999   0.017  0.00  0.00    +0.149 HD
BRANCH  22  24
ATOM     24  C   UNL     1       2.487   1.401   0.013  0.00  0.00    +0.067 C 
ATOM     25  C   UNL     1       2.889   1.069  -1.426  0.00  0.00    +0.027 C 
ATOM     26  C   UNL     1       3.511   2.362   0.620  0.00  0.00    +0.027 C 
ENDBRANCH  22  24
ENDBRANCH  19  20
ENDBRANCH   7  19
TORSDOF 3
