REMARK  Name = ZINC23039952
REMARK  7 active torsions:
REMARK  status: ('A' for Active; 'I' for Inactive)
REMARK    1  A    between atoms: C_1  and  C_2
REMARK    2  A    between atoms: C_2  and  C_25
REMARK    3  A    between atoms: C_3  and  C_4
REMARK    4  A    between atoms: C_6  and  C_11
REMARK    5  A    between atoms: C_8  and  C_9
REMARK    6  A    between atoms: C_8  and  C_10
REMARK    7  A    between atoms: N_13  and  C_14
REMARK                            x       y       z     vdW  Elec       q    Type
REMARK                         _______ _______ _______ _____ _____    ______ ____
ROOT
ATOM      1  C   UNL     1      -2.599   0.169   0.348  0.00  0.00    +0.221 C 
ATOM      2  O   UNL     1      -3.050   0.752  -0.615  0.00  0.00    -0.275 OA
ATOM      3  N   UNL     1      -3.182   0.310   1.555  0.00  0.00    -0.284 N 
ATOM      4  H   UNL     1      -2.717  -0.137   2.446  0.00  0.00    +0.155 HD
ENDROOT
BRANCH   3   5
ATOM      5  C   UNL     1      -4.380   1.027   1.675  0.00  0.00    +0.051 A 
ATOM      6  C   UNL     1      -5.228   1.150   0.583  0.00  0.00    +0.073 A 
ATOM      7  C   UNL     1      -6.414   1.858   0.702  0.00  0.00    +0.164 A 
ATOM      8  C   UNL     1      -6.753   2.444   1.916  0.00  0.00    +0.163 A 
ATOM      9  C   UNL     1      -5.903   2.320   3.005  0.00  0.00    +0.066 A 
ATOM     10  C   UNL     1      -4.723   1.610   2.888  0.00  0.00    +0.043 A 
ATOM     11 BR   UNL     1      -3.571   1.438   4.378  0.00  0.00    -0.048 Br
ATOM     12  O   UNL     1      -7.916   3.139   2.053  0.00  0.00    -0.485 OA
ATOM     13  C   UNL     1      -8.560   3.559   0.846  0.00  0.00    +0.270 C 
ATOM     14  C   UNL     1      -8.584   2.370  -0.124  0.00  0.00    +0.270 C 
ATOM     15  O   UNL     1      -7.233   1.973  -0.380  0.00  0.00    -0.485 OA
ENDBRANCH   3   5
BRANCH   1  17
ATOM     16  C   UNL     1      -0.029  -0.024   0.032  0.00  0.00    +0.030 C 
ATOM     17  C   UNL     1      -1.386  -0.712   0.196  0.00  0.00    +0.089 C 
ATOM     18  C   UNL     1      -0.684  -0.719  -1.164  0.00  0.00    -0.016 C 
ATOM     19  C   UNL     1      -1.268   0.169  -2.264  0.00  0.00    +0.012 C 
ATOM     20  C   UNL     1      -0.072  -2.039  -1.636  0.00  0.00    +0.012 C 
BRANCH  16  23
ATOM     21  C   UNL     1       2.429   1.350   0.103  0.00  0.00    +0.038 C 
ATOM     22  C   UNL     1       1.135   2.122   0.068  0.00  0.00    -0.079 C 
ATOM     23  C   UNL     1      -0.008   1.483   0.035  0.00  0.00    -0.023 C 
ATOM     24  C   UNL     1       1.156   3.629   0.071  0.00  0.00    +0.038 C 
ENDBRANCH  16  23
ENDBRANCH   1  17
TORSDOF 3
