REMARK  Name = ZINC40019021
REMARK  16 active torsions:
REMARK  status: ('A' for Active; 'I' for Inactive)
REMARK    1  A    between atoms: C_1  and  C_2
REMARK    2  A    between atoms: C_2  and  C_3
REMARK    3  A    between atoms: C_3  and  C_4
REMARK    4  A    between atoms: C_4  and  N_5
REMARK    5  A    between atoms: N_5  and  C_6
REMARK    6  A    between atoms: N_5  and  C_10
REMARK    7  A    between atoms: C_6  and  C_7
REMARK    8  A    between atoms: C_7  and  C_8
REMARK    9  A    between atoms: C_8  and  C_9
REMARK   10  A    between atoms: C_10  and  C_11
REMARK   11  A    between atoms: C_11  and  C_12
REMARK   12  A    between atoms: C_12  and  N_13
REMARK   13  A    between atoms: C_14  and  C_29
REMARK   14  A    between atoms: C_16  and  C_21
REMARK   15  A    between atoms: C_21  and  C_23
REMARK   16  A    between atoms: C_26  and  C_28
REMARK                            x       y       z     vdW  Elec       q    Type
REMARK                         _______ _______ _______ _____ _____    ______ ____
ROOT
ATOM      1  N   UNL     1      -1.721  -5.994  -2.958  0.00  0.00    -0.284 N 
ATOM      2  C   UNL     1      -2.788  -6.381  -2.026  0.00  0.00    +0.146 C 
ATOM      3  C   UNL     1      -4.021  -6.607  -2.870  0.00  0.00    +0.079 C 
ATOM      4  C   UNL     1      -3.666  -6.365  -4.152  0.00  0.00    +0.249 C 
ATOM      5  C   UNL     1      -2.241  -5.981  -4.198  0.00  0.00    +0.288 C 
ATOM      6  O   UNL     1      -1.628  -5.697  -5.208  0.00  0.00    -0.266 OA
ATOM      7  O   UNL     1      -4.489  -6.457  -5.224  0.00  0.00    -0.282 OA
ENDROOT
BRANCH   2   8
ATOM      8  C   UNL     1      -2.411  -7.651  -1.306  0.00  0.00    -0.004 A 
ATOM      9  C   UNL     1      -1.569  -8.565  -1.911  0.00  0.00    +0.008 A 
ATOM     10  C   UNL     1      -1.223  -9.729  -1.251  0.00  0.00    +0.020 A 
ATOM     11  C   UNL     1      -1.720  -9.980   0.015  0.00  0.00    +0.042 A 
ATOM     12  C   UNL     1      -2.563  -9.066   0.621  0.00  0.00    +0.040 A 
ATOM     13  C   UNL     1      -2.905  -7.898  -0.038  0.00  0.00    +0.048 A 
ATOM     14 CL   UNL     1      -3.957  -6.747   0.724  0.00  0.00    -0.083 Cl
ATOM     15 CL   UNL     1      -1.286 -11.443   0.844  0.00  0.00    -0.083 Cl
ENDBRANCH   2   8
BRANCH   3  16
ATOM     16  C   UNL     1      -5.348  -7.011  -2.389  0.00  0.00    +0.230 C 
ATOM     17  O   UNL     1      -5.802  -8.098  -2.697  0.00  0.00    -0.283 OA
BRANCH  16  18
ATOM     18  C   UNL     1      -6.126  -6.105  -1.540  0.00  0.00    +0.175 A 
ATOM     19  C   UNL     1      -7.332  -6.393  -0.937  0.00  0.00    +0.053 A 
ATOM     20  C   UNL     1      -7.708  -5.244  -0.226  0.00  0.00    +0.045 A 
ATOM     21  C   UNL     1      -6.738  -4.320  -0.418  0.00  0.00    +0.103 A 
ATOM     22  O   UNL     1      -5.788  -4.843  -1.203  0.00  0.00    -0.457 OA
ATOM     23  C   UNL     1      -6.727  -2.930   0.163  0.00  0.00    +0.086 C 
ENDBRANCH  16  18
ENDBRANCH   3  16
BRANCH   1  24
ATOM     24  C   UNL     1      -0.338  -5.673  -2.599  0.00  0.00    +0.107 C 
BRANCH  24  25
ATOM     25  C   UNL     1      -0.221  -4.176  -2.307  0.00  0.00    +0.000 C 
BRANCH  25  26
ATOM     26  C   UNL     1       1.224  -3.841  -1.932  0.00  0.00    -0.077 C 
BRANCH  26  27
ATOM     27  N   UNL     1       1.337  -2.403  -1.651  0.00  0.00    +0.380 N 
ATOM     28  H   UNL     1       0.994  -1.879  -2.442  0.00  0.00    -0.082 HD
BRANCH  27  29
ATOM     29  C   UNL     1       0.540  -2.073  -0.462  0.00  0.00    -0.079 C 
BRANCH  29  30
ATOM     30  C   UNL     1       0.556  -0.559  -0.242  0.00  0.00    -0.019 C 
BRANCH  30  32
ATOM     31  C   UNL     1      -0.365   1.313   1.133  0.00  0.00    +0.004 C 
ATOM     32  C   UNL     1      -0.382  -0.201   0.913  0.00  0.00    -0.005 C 
ENDBRANCH  30  32
ENDBRANCH  29  30
ENDBRANCH  27  29
BRANCH  27  33
ATOM     33  C   UNL     1       2.744  -2.060  -1.409  0.00  0.00    -0.079 C 
BRANCH  33  34
ATOM     34  C   UNL     1       3.552  -2.285  -2.689  0.00  0.00    -0.019 C 
BRANCH  34  35
ATOM     35  C   UNL     1       4.987  -1.800  -2.478  0.00  0.00    -0.005 C 
ATOM     36  C   UNL     1       5.795  -2.025  -3.758  0.00  0.00    +0.004 C 
ENDBRANCH  34  35
ENDBRANCH  33  34
ENDBRANCH  27  33
ENDBRANCH  26  27
ENDBRANCH  25  26
ENDBRANCH  24  25
ENDBRANCH   1  24
TORSDOF 13
