REMARK  Name = ZINC18084576
REMARK  6 active torsions:
REMARK  status: ('A' for Active; 'I' for Inactive)
REMARK    1  A    between atoms: C_1  and  C_2
REMARK    2  A    between atoms: C_5  and  S_9
REMARK    3  A    between atoms: C_6  and  C_8
REMARK    4  A    between atoms: S_9  and  N_12
REMARK    5  A    between atoms: C_14  and  C_21
REMARK    6  A    between atoms: C_17  and  C_20
REMARK                            x       y       z     vdW  Elec       q    Type
REMARK                         _______ _______ _______ _____ _____    ______ ____
ROOT
ATOM      1  S   UNL     1       0.103  -4.440   0.034  0.00  0.00    +0.061 S 
ATOM      2  O   UNL     1      -0.919  -4.808   0.950  0.00  0.00    -0.153 OA
ATOM      3  O   UNL     1       0.097  -4.859  -1.324  0.00  0.00    -0.153 OA
ENDROOT
BRANCH   1   8
ATOM      4  C   UNL     1       0.278   1.591  -0.023  0.00  0.00    +0.044 C 
ATOM      5  C   UNL     1       0.235   0.084  -0.009  0.00  0.00    -0.050 A 
ATOM      6  C   UNL     1       0.268  -0.619  -1.198  0.00  0.00    +0.005 A 
ATOM      7  C   UNL     1       0.228  -2.001  -1.185  0.00  0.00    +0.029 A 
ATOM      8  C   UNL     1       0.155  -2.679   0.018  0.00  0.00    +0.108 A 
ATOM      9  C   UNL     1       0.123  -1.976   1.207  0.00  0.00    -0.024 A 
ATOM     10  C   UNL     1       0.167  -0.594   1.194  0.00  0.00    +0.008 A 
ATOM     11  C   UNL     1       0.043  -2.715   2.518  0.00  0.00    +0.046 C 
ENDBRANCH   1   8
BRANCH   1  12
ATOM     12  N   UNL     1       1.533  -4.966   0.684  0.00  0.00    -0.176 NA
ATOM     13  C   UNL     1       2.733  -5.098  -0.153  0.00  0.00    +0.112 C 
ATOM     14  C   UNL     1       3.876  -4.311   0.496  0.00  0.00    +0.002 C 
ATOM     15  C   UNL     1       4.061  -4.786   1.939  0.00  0.00    +0.009 C 
ATOM     16  C   UNL     1       2.780  -4.521   2.733  0.00  0.00    +0.002 C 
ATOM     17  C   UNL     1       1.627  -5.304   2.111  0.00  0.00    +0.112 C 
ATOM     18  C   UNL     1       2.978  -4.965   4.184  0.00  0.00    +0.009 C 
ATOM     19  C   UNL     1       5.168  -4.545  -0.290  0.00  0.00    +0.009 C 
ENDBRANCH   1  12
TORSDOF 2
