REMARK  Name = ZINC36783016
REMARK  9 active torsions:
REMARK  status: ('A' for Active; 'I' for Inactive)
REMARK    1  A    between atoms: C_1  and  C_2
REMARK    2  A    between atoms: C_2  and  C_4
REMARK    3  A    between atoms: C_2  and  N_7
REMARK    4  A    between atoms: N_7  and  C_8
REMARK    5  A    between atoms: N_7  and  C_9
REMARK    6  A    between atoms: C_9  and  C_10
REMARK    7  A    between atoms: C_10  and  C_11
REMARK    8  A    between atoms: N_13  and  C_14
REMARK    9  A    between atoms: C_17  and  N_21
REMARK                            x       y       z     vdW  Elec       q    Type
REMARK                         _______ _______ _______ _____ _____    ______ ____
ROOT
ATOM      1  C   UNL     1      -3.515  -3.939  -1.244  0.00  0.00    +0.215 C 
ATOM      2  O   UNL     1      -3.042  -4.455  -2.235  0.00  0.00    -0.276 OA
ATOM      3  N   UNL     1      -3.921  -4.706  -0.213  0.00  0.00    -0.283 N 
ATOM      4  H   UNL     1      -4.231  -4.292   0.607  0.00  0.00    +0.155 HD
ENDROOT
BRANCH   3   5
ATOM      5  C   UNL     1      -3.896  -6.104  -0.327  0.00  0.00    +0.071 A 
ATOM      6  C   UNL     1      -2.770  -6.813   0.071  0.00  0.00    +0.065 A 
ATOM      7  C   UNL     1      -2.746  -8.190  -0.041  0.00  0.00    +0.044 A 
ATOM      8  C   UNL     1      -3.847  -8.865  -0.551  0.00  0.00    +0.027 A 
ATOM      9  C   UNL     1      -4.973  -8.156  -0.949  0.00  0.00    +0.044 A 
ATOM     10  C   UNL     1      -5.000  -6.780  -0.831  0.00  0.00    +0.065 A 
ATOM     11 CL   UNL     1      -6.411  -5.894  -1.322  0.00  0.00    -0.082 Cl
ATOM     12 CL   UNL     1      -1.393  -5.970   0.708  0.00  0.00    -0.082 Cl
BRANCH   8  13
ATOM     13  N   UNL     1      -3.822 -10.259  -0.664  0.00  0.00    -0.358 N 
ATOM     14  H   UNL     1      -3.036 -10.754  -0.386  0.00  0.00    +0.142 HD
ATOM     15  H   UNL     1      -4.592 -10.731  -1.020  0.00  0.00    +0.142 HD
ENDBRANCH   8  13
ENDBRANCH   3   5
BRANCH   1  16
ATOM     16  C   UNL     1      -3.647  -2.440  -1.166  0.00  0.00    +0.077 C 
BRANCH  16  17
ATOM     17  C   UNL     1      -3.117  -1.813  -2.457  0.00  0.00    -0.070 C 
BRANCH  17  18
ATOM     18  N   UNL     1      -3.246  -0.352  -2.381  0.00  0.00    +0.380 N 
ATOM     19  C   UNL     1      -2.377   0.162  -1.314  0.00  0.00    -0.096 C 
ATOM     20  H   UNL     1      -4.205  -0.109  -2.180  0.00  0.00    -0.082 HD
BRANCH  18  22
ATOM     21  C   UNL     1      -2.984   1.764  -3.585  0.00  0.00    -0.013 C 
ATOM     22  C   UNL     1      -2.849   0.242  -3.664  0.00  0.00    -0.069 C 
BRANCH  22  23
ATOM     23  C   UNL     1      -3.754  -0.292  -4.776  0.00  0.00    -0.025 C 
ATOM     24  C   UNL     1      -3.124  -1.222  -5.814  0.00  0.00    +0.002 C 
ATOM     25  C   UNL     1      -3.499   0.211  -6.198  0.00  0.00    +0.002 C 
ENDBRANCH  22  23
ENDBRANCH  18  22
ENDBRANCH  17  18
ENDBRANCH  16  17
ENDBRANCH   1  16
TORSDOF 7
