REMARK  Name = ZINC66613998
REMARK  9 active torsions:
REMARK  status: ('A' for Active; 'I' for Inactive)
REMARK    1  A    between atoms: C_1  and  C_2
REMARK    2  A    between atoms: C_2  and  C_4
REMARK    3  A    between atoms: C_2  and  N_14
REMARK    4  A    between atoms: C_7  and  N_10
REMARK    5  A    between atoms: C_15  and  C_17
REMARK    6  A    between atoms: C_17  and  C_18
REMARK    7  A    between atoms: C_18  and  C_19
REMARK    8  A    between atoms: C_24  and  O_25
REMARK    9  A    between atoms: O_25  and  C_26
REMARK                            x       y       z     vdW  Elec       q    Type
REMARK                         _______ _______ _______ _____ _____    ______ ____
ROOT
ATOM      1  N   UNL     1       0.577  -0.661  -1.205  0.00  0.00    -0.309 N 
ATOM      2  C   UNL     1      -0.172  -0.793  -2.317  0.00  0.00    +0.214 C 
ATOM      3  O   UNL     1      -1.314  -0.385  -2.331  0.00  0.00    -0.276 OA
ATOM      4  H   UNL     1       1.490  -0.988  -1.194  0.00  0.00    +0.149 HD
ENDROOT
BRANCH   1   6
ATOM      5  C   UNL     1       0.169   1.493  -0.121  0.00  0.00    +0.033 C 
ATOM      6  C   UNL     1       0.012  -0.025  -0.012  0.00  0.00    +0.100 C 
BRANCH   6   7
ATOM      7  C   UNL     1       0.738  -0.518   1.212  0.00  0.00    -0.027 A 
ATOM      8  C   UNL     1       2.110  -0.692   1.178  0.00  0.00    +0.007 A 
ATOM      9  C   UNL     1       2.778  -1.144   2.299  0.00  0.00    +0.023 A 
ATOM     10  C   UNL     1       2.072  -1.425   3.461  0.00  0.00    +0.035 A 
ATOM     11  C   UNL     1       0.694  -1.250   3.492  0.00  0.00    +0.023 A 
ATOM     12  C   UNL     1       0.032  -0.792   2.370  0.00  0.00    +0.007 A 
BRANCH  10  13
ATOM     13  N   UNL     1       2.746  -1.884   4.598  0.00  0.00    -0.270 N 
ATOM     14  C   UNL     1       3.998  -1.458   4.857  0.00  0.00    +0.301 C 
ATOM     15  O   UNL     1       4.506  -0.603   4.157  0.00  0.00    -0.253 OA
ATOM     16  N   UNL     1       4.688  -1.980   5.891  0.00  0.00    -0.313 N 
ATOM     17  H   UNL     1       2.312  -2.509   5.200  0.00  0.00    +0.156 HD
ATOM     18  H   UNL     1       4.282  -2.662   6.449  0.00  0.00    +0.146 HD
ATOM     19  H   UNL     1       5.589  -1.673   6.077  0.00  0.00    +0.146 HD
ENDBRANCH  10  13
ENDBRANCH   6   7
ENDBRANCH   1   6
BRANCH   2  20
ATOM     20  C   UNL     1       0.409  -1.448  -3.544  0.00  0.00    +0.100 C 
BRANCH  20  21
ATOM     21  C   UNL     1      -0.642  -1.470  -4.656  0.00  0.00    +0.048 C 
BRANCH  21  22
ATOM     22  C   UNL     1      -0.060  -2.125  -5.883  0.00  0.00    -0.005 A 
ATOM     23  C   UNL     1       0.505  -1.351  -6.878  0.00  0.00    +0.007 A 
ATOM     24  C   UNL     1       1.038  -1.950  -8.003  0.00  0.00    +0.000 A 
ATOM     25  C   UNL     1       1.007  -3.326  -8.137  0.00  0.00    +0.004 A 
ATOM     26  C   UNL     1       0.443  -4.105  -7.145  0.00  0.00    +0.046 A 
ATOM     27  C   UNL     1      -0.088  -3.506  -6.011  0.00  0.00    +0.133 A 
BRANCH  27  28
ATOM     28  O   UNL     1      -0.638  -4.270  -5.032  0.00  0.00    -0.405 OA
BRANCH  28  29
ATOM     29  C   UNL     1      -0.631  -5.685  -5.232  0.00  0.00    +0.575 C 
ATOM     30  F   UNL     1       0.689  -6.131  -5.360  0.00  0.00    -0.133 F 
ATOM     31  F   UNL     1      -1.231  -6.314  -4.135  0.00  0.00    -0.133 F 
ATOM     32  F   UNL     1      -1.343  -5.995  -6.395  0.00  0.00    -0.133 F 
ENDBRANCH  28  29
ENDBRANCH  27  28
ENDBRANCH  21  22
ENDBRANCH  20  21
ENDBRANCH   2  20
TORSDOF 8
