REMARK  Name = ZINC13397046
REMARK  9 active torsions:
REMARK  status: ('A' for Active; 'I' for Inactive)
REMARK    1  A    between atoms: C_1  and  O_2
REMARK    2  A    between atoms: O_2  and  C_3
REMARK    3  A    between atoms: C_6  and  C_9
REMARK    4  A    between atoms: N_17  and  C_20
REMARK    5  A    between atoms: C_27  and  C_29
REMARK    6  A    between atoms: C_27  and  C_36
REMARK    7  A    between atoms: C_29  and  C_30
REMARK    8  A    between atoms: C_36  and  O_38
REMARK    9  A    between atoms: O_38  and  C_39
REMARK                            x       y       z     vdW  Elec       q    Type
REMARK                         _______ _______ _______ _____ _____    ______ ____
ROOT
ATOM      1  C   UNL     1      -4.979  -2.699   0.151  0.00  0.00    +0.098 C 
ATOM      2  C   UNL     1      -5.254  -3.179  -1.289  0.00  0.00    +0.111 C 
ATOM      3  C   UNL     1      -6.016  -4.521  -1.123  0.00  0.00    +0.121 C 
ATOM      4  C   UNL     1      -5.056  -5.541  -1.691  0.00  0.00    +0.232 C 
ATOM      5  O   UNL     1      -5.260  -6.734  -1.758  0.00  0.00    -0.274 OA
ATOM      6  N   UNL     1      -3.946  -4.922  -2.110  0.00  0.00    -0.210 N 
ATOM      7  C   UNL     1      -3.948  -3.580  -1.938  0.00  0.00    +0.232 C 
ATOM      8  O   UNL     1      -3.056  -2.819  -2.247  0.00  0.00    -0.274 OA
ATOM      9  C   UNL     1      -6.145  -4.717   0.402  0.00  0.00    +0.133 C 
ATOM     10  N   UNL     1      -5.011  -3.934   0.976  0.00  0.00    -0.293 NA
ATOM     11  H   UNL     1      -4.140  -4.439   0.905  0.00  0.00    +0.124 HD
ENDROOT
BRANCH   6  12
ATOM     12  C   UNL     1      -2.867  -5.607  -2.687  0.00  0.00    +0.044 A 
ATOM     13  C   UNL     1      -2.553  -5.409  -4.024  0.00  0.00    +0.025 A 
ATOM     14  C   UNL     1      -1.490  -6.084  -4.591  0.00  0.00    +0.022 A 
ATOM     15  C   UNL     1      -0.738  -6.959  -3.826  0.00  0.00    +0.041 A 
ATOM     16  C   UNL     1      -1.050  -7.159  -2.492  0.00  0.00    +0.022 A 
ATOM     17  C   UNL     1      -2.108  -6.480  -1.920  0.00  0.00    +0.025 A 
ATOM     18 CL   UNL     1       0.597  -7.807  -4.540  0.00  0.00    -0.084 Cl
ENDBRANCH   6  12
BRANCH   1  22
ATOM     19  C   UNL     1      -1.136  -0.845   0.395  0.00  0.00    +0.120 A 
ATOM     20  C   UNL     1      -2.282  -0.065   0.337  0.00  0.00    +0.046 A 
ATOM     21  C   UNL     1      -3.523  -0.666   0.258  0.00  0.00    +0.009 A 
ATOM     22  C   UNL     1      -3.624  -2.045   0.237  0.00  0.00    -0.029 A 
ATOM     23  C   UNL     1      -2.483  -2.825   0.296  0.00  0.00    +0.009 A 
ATOM     24  C   UNL     1      -1.240  -2.228   0.369  0.00  0.00    +0.046 A 
BRANCH  19  26
ATOM     25  C   UNL     1       0.116   1.173   0.496  0.00  0.00    +0.277 C 
ATOM     26  O   UNL     1       0.086  -0.255   0.473  0.00  0.00    -0.495 OA
ENDBRANCH  19  26
ENDBRANCH   1  22
BRANCH   9  27
ATOM     27  C   UNL     1      -5.992  -6.173   0.759  0.00  0.00    +0.328 C 
ATOM     28  O   UNL     1      -6.968  -6.882   0.834  0.00  0.00    -0.249 OA
BRANCH  27  29
ATOM     29  O   UNL     1      -4.773  -6.683   0.993  0.00  0.00    -0.467 OA
ATOM     30  C   UNL     1      -4.702  -8.070   1.326  0.00  0.00    +0.280 C 
ENDBRANCH  27  29
ENDBRANCH   9  27
BRANCH   9  31
ATOM     31  C   UNL     1      -7.491  -4.184   0.896  0.00  0.00    +0.069 C 
BRANCH  31  32
ATOM     32  C   UNL     1      -7.545  -4.273   2.400  0.00  0.00    -0.045 A 
ATOM     33  C   UNL     1      -8.030  -5.416   3.008  0.00  0.00    +0.004 A 
ATOM     34  C   UNL     1      -8.079  -5.497   4.387  0.00  0.00    +0.000 A 
ATOM     35  C   UNL     1      -7.644  -4.436   5.158  0.00  0.00    +0.000 A 
ATOM     36  C   UNL     1      -7.158  -3.293   4.550  0.00  0.00    +0.000 A 
ATOM     37  C   UNL     1      -7.104  -3.214   3.171  0.00  0.00    +0.004 A 
ENDBRANCH  31  32
ENDBRANCH   9  31
TORSDOF 7
