REMARK  Name = ZINC40156437
REMARK  4 active torsions:
REMARK  status: ('A' for Active; 'I' for Inactive)
REMARK    1  A    between atoms: C_1  and  C_2
REMARK    2  A    between atoms: C_10  and  C_12
REMARK    3  A    between atoms: N_23  and  C_24
REMARK    4  A    between atoms: C_24  and  C_25
REMARK                            x       y       z     vdW  Elec       q    Type
REMARK                         _______ _______ _______ _____ _____    ______ ____
ROOT
ATOM      1  C   UNL     1       0.087  -2.854   4.887  0.00  0.00    +0.196 C 
ATOM      2  N   UNL     1      -0.585  -4.152   4.747  0.00  0.00    -0.321 N 
ATOM      3  C   UNL     1      -1.974  -4.177   4.682  0.00  0.00    +0.041 A 
ATOM      4  C   UNL     1      -2.657  -5.157   3.983  0.00  0.00    +0.024 A 
ATOM      5  C   UNL     1      -4.038  -5.134   3.948  0.00  0.00    +0.002 A 
ATOM      6  C   UNL     1      -4.743  -4.139   4.606  0.00  0.00    +0.001 A 
ATOM      7  C   UNL     1      -4.078  -3.155   5.308  0.00  0.00    +0.015 A 
ATOM      8  C   UNL     1      -2.686  -3.167   5.353  0.00  0.00    +0.058 A 
ATOM      9  C   UNL     1      -1.925  -2.146   6.095  0.00  0.00    +0.251 C 
ATOM     10  O   UNL     1      -2.488  -1.412   6.884  0.00  0.00    -0.270 OA
ATOM     11  N   UNL     1      -0.599  -2.037   5.888  0.00  0.00    -0.264 N 
ATOM     12  H   UNL     1      -0.071  -4.973   4.700  0.00  0.00    +0.148 HD
ENDROOT
BRANCH   1  22
ATOM     13  C   UNL     1       1.257  -0.562  -1.120  0.00  0.00    +0.046 C 
ATOM     14  C   UNL     1       0.165  -0.252  -0.129  0.00  0.00    -0.024 A 
ATOM     15  C   UNL     1      -0.805   0.650  -0.442  0.00  0.00    +0.005 A 
ATOM     16  C   UNL     1      -1.824   0.951   0.459  0.00  0.00    +0.001 A 
ATOM     17  C   UNL     1      -1.877   0.351   1.681  0.00  0.00    +0.010 A 
ATOM     18  C   UNL     1      -0.892  -0.585   2.037  0.00  0.00    +0.001 A 
ATOM     19  C   UNL     1       0.141  -0.897   1.119  0.00  0.00    +0.076 A 
ATOM     20  N   UNL     1       1.079  -1.791   1.451  0.00  0.00    -0.235 NA
ATOM     21  C   UNL     1       1.062  -2.396   2.615  0.00  0.00    +0.136 A 
ATOM     22  C   UNL     1       0.069  -2.138   3.562  0.00  0.00    +0.028 A 
ATOM     23  C   UNL     1      -0.911  -1.227   3.290  0.00  0.00    +0.020 A 
ATOM     24 CL   UNL     1       2.306  -3.547   2.988  0.00  0.00    -0.062 Cl
ENDBRANCH   1  22
BRANCH  11  25
ATOM     25  C   UNL     1       0.171  -1.078   6.684  0.00  0.00    +0.199 C 
BRANCH  25  26
ATOM     26  C   UNL     1       0.093   0.252   6.058  0.00  0.00    -0.086 C 
ATOM     27  C   UNL     1       0.032   1.313   5.559  0.00  0.00    +0.005 C 
ENDBRANCH  25  26
ENDBRANCH  11  25
TORSDOF 3
