REMARK  Name = ZINC28831379
REMARK  6 active torsions:
REMARK  status: ('A' for Active; 'I' for Inactive)
REMARK    1  A    between atoms: C_6  and  C_7
REMARK    2  A    between atoms: C_10  and  S_13
REMARK    3  A    between atoms: S_13  and  C_14
REMARK    4  A    between atoms: C_14  and  C_15
REMARK    5  A    between atoms: N_17  and  C_18
REMARK    6  A    between atoms: C_23  and  C_24
REMARK                            x       y       z     vdW  Elec       q    Type
REMARK                         _______ _______ _______ _____ _____    ______ ____
ROOT
ATOM      1  C   UNL     1       4.032  -1.293  -0.026  0.00  0.00    +0.173 C 
ENDROOT
BRANCH   1   2
ATOM      2  C   UNL     1       5.504  -1.616  -0.053  0.00  0.00    +0.227 C 
ATOM      3  O   UNL     1       6.321  -0.720  -0.060  0.00  0.00    -0.275 OA
ATOM      4  N   UNL     1       5.912  -2.900  -0.070  0.00  0.00    -0.284 N 
ATOM      5  H   UNL     1       5.175  -3.712   0.011  0.00  0.00    +0.155 HD
BRANCH   4   6
ATOM      6  C   UNL     1       7.274  -3.200  -0.189  0.00  0.00    +0.045 A 
ATOM      7  C   UNL     1       8.223  -2.374   0.398  0.00  0.00    +0.025 A 
ATOM      8  C   UNL     1       9.566  -2.672   0.279  0.00  0.00    +0.022 A 
ATOM      9  C   UNL     1       9.966  -3.795  -0.426  0.00  0.00    +0.042 A 
ATOM     10  C   UNL     1       9.023  -4.620  -1.012  0.00  0.00    +0.034 A 
ATOM     11  C   UNL     1       7.678  -4.328  -0.891  0.00  0.00    +0.077 A 
ATOM     12 CL   UNL     1      11.655  -4.167  -0.574  0.00  0.00    -0.084 Cl
BRANCH  11  13
ATOM     13  C   UNL     1       6.651  -5.231  -1.525  0.00  0.00    +0.419 C 
ATOM     14  F   UNL     1       7.296  -6.291  -2.170  0.00  0.00    -0.166 F 
ATOM     15  F   UNL     1       5.800  -5.735  -0.535  0.00  0.00    -0.166 F 
ATOM     16  F   UNL     1       5.903  -4.504  -2.457  0.00  0.00    -0.166 F 
ENDBRANCH  11  13
ENDBRANCH   4   6
ENDBRANCH   1   2
BRANCH   1  17
ATOM     17  S   UNL     1       3.809   0.503  -0.009  0.00  0.00    -0.077 S 
BRANCH  17  21
ATOM     18  C   UNL     1      -0.014   1.310   0.060  0.00  0.00    +0.182 A 
ATOM     19  N   UNL     1       1.296   1.731   0.042  0.00  0.00    -0.201 NA
ATOM     20  H   UNL     1       1.423  -1.506   0.015  0.00  0.00    +0.191 HD
ATOM     21  C   UNL     1       2.049   0.592   0.021  0.00  0.00    +0.185 A 
ATOM     22  N   UNL     1       1.217  -0.425   0.027  0.00  0.00    -0.253 N 
ATOM     23  N   UNL     1       0.004  -0.002   0.050  0.00  0.00    -0.152 NA
BRANCH  18  29
ATOM     24  C   UNL     1      -1.078   3.562   0.101  0.00  0.00    +0.013 A 
ATOM     25  C   UNL     1      -2.202   4.362   0.120  0.00  0.00    +0.021 A 
ATOM     26  C   UNL     1      -3.462   3.789   0.138  0.00  0.00    +0.041 A 
ATOM     27  C   UNL     1      -3.603   2.412   0.131  0.00  0.00    +0.021 A 
ATOM     28  C   UNL     1      -2.487   1.601   0.106  0.00  0.00    +0.013 A 
ATOM     29  C   UNL     1      -1.214   2.173   0.087  0.00  0.00    +0.021 A 
ATOM     30 CL   UNL     1      -4.872   4.802   0.171  0.00  0.00    -0.084 Cl
ENDBRANCH  18  29
ENDBRANCH  17  21
ENDBRANCH   1  17
TORSDOF 6
