REMARK  Name = ZINC04124952
REMARK  6 active torsions:
REMARK  status: ('A' for Active; 'I' for Inactive)
REMARK    1  A    between atoms: C_1  and  C_2
REMARK    2  A    between atoms: C_2  and  N_58
REMARK    3  A    between atoms: C_10  and  O_31
REMARK    4  A    between atoms: C_12  and  C_15
REMARK    5  A    between atoms: N_17  and  C_24
REMARK    6  A    between atoms: C_24  and  C_25
REMARK                            x       y       z     vdW  Elec       q    Type
REMARK                         _______ _______ _______ _____ _____    ______ ____
ROOT
ATOM      1  C   UNL     1       1.677   7.448   6.528  0.00  0.00    -0.074 C 
ATOM      2  C   UNL     1       1.839   6.681   5.213  0.00  0.00    +0.018 C 
ATOM      3  C   UNL     1       0.851   7.255   4.203  0.00  0.00    -0.027 A 
ATOM      4  C   UNL     1      -0.194   8.003   4.630  0.00  0.00    -0.021 A 
ATOM      5  S   UNL     1      -1.059   8.462   3.152  0.00  0.00    -0.080 S 
ATOM      6  C   UNL     1      -0.057   7.681   2.005  0.00  0.00    +0.080 A 
ATOM      7  C   UNL     1       0.942   7.062   2.768  0.00  0.00    +0.067 A 
ATOM      8  C   UNL     1       1.972   6.282   2.035  0.00  0.00    +0.220 C 
ATOM      9  N   UNL     1       1.775   6.056   0.766  0.00  0.00    -0.223 NA
ATOM     10  C   UNL     1       0.571   6.426   0.033  0.00  0.00    +0.226 C 
ATOM     11  N   UNL     1      -0.096   7.596   0.634  0.00  0.00    -0.313 N 
ATOM     12  C   UNL     1      -0.520   8.350   6.048  0.00  0.00    -0.035 C 
ATOM     13  H   UNL     1      -0.538   8.267   0.092  0.00  0.00    +0.149 HD
ATOM     14  N   UNL     1       0.255   7.441   6.928  0.00  0.00    +0.383 N 
ATOM     15  H   UNL     1      -0.114   6.487   6.831  0.00  0.00    -0.081 HD
ENDROOT
BRANCH  10  16
ATOM     16  C   UNL     1      -0.384   5.261   0.035  0.00  0.00    +0.020 A 
ATOM     17  C   UNL     1      -1.724   5.326   0.048  0.00  0.00    +0.094 A 
ATOM     18  N   UNL     1      -2.254   4.064   0.045  0.00  0.00    -0.342 N 
ATOM     19  C   UNL     1      -1.240   3.132   0.031  0.00  0.00    +0.050 A 
ATOM     20  C   UNL     1      -0.025   3.840   0.023  0.00  0.00    +0.007 A 
ATOM     21  C   UNL     1       1.186   3.146   0.008  0.00  0.00    +0.010 A 
ATOM     22  C   UNL     1       1.184   1.779   0.000  0.00  0.00    +0.001 A 
ATOM     23  C   UNL     1      -0.013   1.076   0.008  0.00  0.00    +0.002 A 
ATOM     24  C   UNL     1      -1.219   1.742   0.017  0.00  0.00    +0.026 A 
BRANCH  18  25
ATOM     25  C   UNL     1      -3.685   3.752   0.057  0.00  0.00    +0.157 C 
BRANCH  25  26
ATOM     26  C   UNL     1      -4.136   3.515   1.475  0.00  0.00    -0.028 A 
ATOM     27  C   UNL     1      -4.095   2.241   2.010  0.00  0.00    +0.005 A 
ATOM     28  C   UNL     1      -4.504   2.025   3.313  0.00  0.00    +0.000 A 
ATOM     29  C   UNL     1      -4.964   3.081   4.077  0.00  0.00    +0.000 A 
ATOM     30  C   UNL     1      -5.010   4.354   3.541  0.00  0.00    +0.000 A 
ATOM     31  C   UNL     1      -4.596   4.571   2.240  0.00  0.00    +0.005 A 
ENDBRANCH  25  26
ENDBRANCH  18  25
ENDBRANCH  10  16
BRANCH  14  33
ATOM     32  C   UNL     1      -1.322   7.644   8.789  0.00  0.00    -0.017 C 
ATOM     33  C   UNL     1       0.123   7.867   8.338  0.00  0.00    -0.082 C 
ENDBRANCH  14  33
BRANCH   8  34
ATOM     34  O   UNL     1       3.078   5.822   2.663  0.00  0.00    -0.492 OA
ATOM     35  H   UNL     1       3.680   5.327   2.090  0.00  0.00    +0.294 HD
ENDBRANCH   8  34
TORSDOF 5
