REMARK  Name = ZINC35758154
REMARK  14 active torsions:
REMARK  status: ('A' for Active; 'I' for Inactive)
REMARK    1  A    between atoms: C_1  and  C_2
REMARK    2  A    between atoms: N_5  and  C_8
REMARK    3  A    between atoms: C_9  and  C_19
REMARK    4  A    between atoms: C_10  and  C_13
REMARK    5  A    between atoms: C_19  and  N_20
REMARK    6  A    between atoms: N_20  and  C_21
REMARK    7  A    between atoms: N_20  and  C_28
REMARK    8  A    between atoms: C_21  and  C_22
REMARK    9  A    between atoms: C_28  and  C_29
REMARK   10  A    between atoms: C_29  and  C_31
REMARK   11  A    between atoms: C_29  and  O_39
REMARK   12  A    between atoms: C_31  and  O_32
REMARK   13  A    between atoms: O_32  and  C_33
REMARK   14  A    between atoms: C_33  and  C_34
REMARK                            x       y       z     vdW  Elec       q    Type
REMARK                         _______ _______ _______ _____ _____    ______ ____
ROOT
ATOM      1  N   UNL     1       1.680  -5.196   3.631  0.00  0.00    +0.387 N 
ATOM      2  H   UNL     1       1.974  -6.149   3.787  0.00  0.00    -0.081 HD
ENDROOT
BRANCH   1   3
ATOM      3  C   UNL     1       2.672  -4.508   2.795  0.00  0.00    -0.035 C 
BRANCH   3   5
ATOM      4  C   UNL     1       4.872  -5.696   3.316  0.00  0.00    +0.222 A 
ATOM      5  C   UNL     1       4.035  -4.633   3.427  0.00  0.00    +0.025 A 
ATOM      6  C   UNL     1       4.665  -3.667   4.238  0.00  0.00    +0.117 A 
ATOM      7  N   UNL     1       5.836  -4.140   4.596  0.00  0.00    -0.076 NA
ATOM      8  O   UNL     1       5.981  -5.428   4.025  0.00  0.00    -0.339 OA
BRANCH   4  13
ATOM      9  C   UNL     1       6.018 -10.614   1.180  0.00  0.00    +0.007 C 
ATOM     10  C   UNL     1       5.142  -9.394   1.471  0.00  0.00    -0.011 C 
ATOM     11  C   UNL     1       4.969  -9.240   2.984  0.00  0.00    +0.022 C 
ATOM     12  C   UNL     1       4.064  -8.039   3.271  0.00  0.00    +0.108 C 
ATOM     13  N   UNL     1       4.623  -6.855   2.603  0.00  0.00    -0.299 N 
ATOM     14  C   UNL     1       4.913  -6.926   1.165  0.00  0.00    +0.108 C 
ATOM     15  C   UNL     1       5.809  -8.140   0.902  0.00  0.00    +0.022 C 
ENDBRANCH   4  13
BRANCH   6  16
ATOM     16  C   UNL     1       4.104  -2.346   4.619  0.00  0.00    +0.004 A 
ATOM     17  C   UNL     1       3.485  -1.546   3.661  0.00  0.00    +0.010 A 
ATOM     18  C   UNL     1       2.965  -0.320   4.021  0.00  0.00    +0.001 A 
ATOM     19  C   UNL     1       3.055   0.115   5.330  0.00  0.00    +0.000 A 
ATOM     20  C   UNL     1       3.668  -0.675   6.286  0.00  0.00    +0.001 A 
ATOM     21  C   UNL     1       4.188  -1.905   5.938  0.00  0.00    +0.010 A 
ENDBRANCH   6  16
ENDBRANCH   3   5
ENDBRANCH   1   3
BRANCH   1  22
ATOM     22  C   UNL     1       0.378  -5.190   2.951  0.00  0.00    -0.042 C 
BRANCH  22  23
ATOM     23  C   UNL     1       0.496  -5.909   1.632  0.00  0.00    -0.064 A 
ATOM     24  C   UNL     1       0.796  -5.201   0.483  0.00  0.00    +0.002 A 
ATOM     25  C   UNL     1       0.904  -5.861  -0.726  0.00  0.00    +0.000 A 
ATOM     26  C   UNL     1       0.715  -7.229  -0.787  0.00  0.00    +0.000 A 
ATOM     27  C   UNL     1       0.416  -7.937   0.362  0.00  0.00    +0.000 A 
ATOM     28  C   UNL     1       0.312  -7.278   1.573  0.00  0.00    +0.002 A 
ENDBRANCH  22  23
ENDBRANCH   1  22
BRANCH   1  29
ATOM     29  C   UNL     1       1.562  -4.504   4.921  0.00  0.00    -0.044 C 
BRANCH  29  30
ATOM     30  C   UNL     1       0.696  -5.336   5.870  0.00  0.00    +0.124 C 
BRANCH  30  31
ATOM     31  O   UNL     1      -0.655  -5.338   5.403  0.00  0.00    -0.391 OA
ATOM     32  H   UNL     1      -1.054  -4.459   5.350  0.00  0.00    +0.210 HD
ENDBRANCH  30  31
BRANCH  30  33
ATOM     33  C   UNL     1       0.750  -4.730   7.274  0.00  0.00    +0.189 C 
BRANCH  33  34
ATOM     34  O   UNL     1       0.037  -5.571   8.183  0.00  0.00    -0.370 OA
BRANCH  34  35
ATOM     35  C   UNL     1       0.027  -5.094   9.530  0.00  0.00    +0.234 C 
BRANCH  35  36
ATOM     36  C   UNL     1      -0.748  -6.052  10.397  0.00  0.00    +0.130 A 
ATOM     37  C   UNL     1      -0.235  -7.105  11.058  0.00  0.00    +0.047 A 
ATOM     38  C   UNL     1      -1.308  -7.724  11.739  0.00  0.00    +0.041 A 
ATOM     39  C   UNL     1      -2.413  -7.012  11.454  0.00  0.00    +0.195 A 
ATOM     40  O   UNL     1      -2.067  -5.997  10.645  0.00  0.00    -0.465 OA
ENDBRANCH  35  36
ENDBRANCH  34  35
ENDBRANCH  33  34
ENDBRANCH  30  33
ENDBRANCH  29  30
ENDBRANCH   1  29
TORSDOF 13
