REMARK  Name = ZINC63994398
REMARK  13 active torsions:
REMARK  status: ('A' for Active; 'I' for Inactive)
REMARK    1  A    between atoms: CB_1  and  CA_2
REMARK    2  A    between atoms: CA_2  and  C_4
REMARK    3  A    between atoms: CA_2  and  N_6
REMARK    4  A    between atoms: C_4  and  O_5
REMARK    5  A    between atoms: N_6  and  C_7
REMARK    6  A    between atoms: N_13  and  C_26
REMARK    7  A    between atoms: C_14  and  C_22
REMARK    8  A    between atoms: C_16  and  N_18
REMARK    9  A    between atoms: C_19  and  C_21
REMARK   10  A    between atoms: C_22  and  O_24
REMARK   11  A    between atoms: O_24  and  C_25
REMARK   12  A    between atoms: C_26  and  C_27
REMARK   13  A    between atoms: C_27  and  C_28
REMARK                            x       y       z     vdW  Elec       q    Type
REMARK                         _______ _______ _______ _____ _____    ______ ____
ROOT
ATOM      1  C   UNK A   0      -0.020  -0.613  -2.404  0.00  0.00    +0.044 A 
ATOM      2  C   UNK A   0       0.618  -1.067  -3.557  0.00  0.00    +0.033 A 
ATOM      3  C   UNK A   0      -0.124  -1.185  -4.717  0.00  0.00    +0.015 A 
ATOM      4  C   UNK A   0      -1.472  -0.856  -4.717  0.00  0.00    +0.105 A 
ATOM      5  N   UNK A   0      -2.043  -0.425  -3.592  0.00  0.00    -0.348 N 
ATOM      6  C   UNK A   0      -1.371  -0.305  -2.466  0.00  0.00    +0.107 A 
ATOM      7  N   UNK A   0      -2.043  -1.040  -5.974  0.00  0.00    -0.301 N 
ATOM      8  C   UNK A   0      -1.037  -1.531  -6.920  0.00  0.00    +0.208 C 
ATOM      9  C   UNK A   0       0.263  -1.639  -6.105  0.00  0.00    +0.138 C 
ATOM     10  H   UNK A   0      -2.986  -0.198  -3.602  0.00  0.00    +0.167 HD
ENDROOT
BRANCH   9  11
ATOM     11  N   UNK A   0       0.736  -3.025  -6.078  0.00  0.00    -0.306 N 
ATOM     12  C   UNK A   0       2.031  -3.290  -5.813  0.00  0.00    +0.210 C 
ATOM     13  O   UNK A   0       2.804  -2.381  -5.598  0.00  0.00    -0.276 OA
ATOM     14  C   UNK A   0       2.518  -4.716  -5.785  0.00  0.00    +0.109 C 
ATOM     15  H   UNK A   0       0.118  -3.752  -6.250  0.00  0.00    +0.149 HD
ENDBRANCH   9  11
BRANCH   1  16
ATOM     16  N   ALA A   1       0.688  -0.476  -1.203  0.00  0.00    -0.338 N 
ATOM     17  H   ALA A   1       1.632  -0.695  -1.170  0.00  0.00    +0.146 HD
BRANCH  16  19
ATOM     18  CB  ALA A   1      -0.019   1.526   0.010  0.00  0.00    +0.030 C 
ATOM     19  CA  ALA A   1       0.002  -0.004   0.002  0.00  0.00    +0.093 C 
BRANCH  19  20
ATOM     20  C   ALA A   1       0.742  -0.511   1.242  0.00  0.00    +0.177 C 
BRANCH  20  21
ATOM     21  O   ALA A   1       2.044   0.076   1.292  0.00  0.00    -0.393 OA
ATOM     22  H   ALA A   1       2.571  -0.201   2.054  0.00  0.00    +0.209 HD
ENDBRANCH  20  21
ENDBRANCH  19  20
ENDBRANCH  16  19
ENDBRANCH   1  16
BRANCH   8  23
ATOM     23  C   UNK A   0      -1.436  -2.883  -7.453  0.00  0.00    +0.330 C 
ATOM     24  O   UNK A   0      -2.255  -3.547  -6.864  0.00  0.00    -0.249 OA
BRANCH  23  25
ATOM     25  O   UNK A   0      -0.880  -3.349  -8.582  0.00  0.00    -0.467 OA
ATOM     26  C   UNK A   0      -1.305  -4.638  -9.030  0.00  0.00    +0.280 C 
ENDBRANCH  23  25
ENDBRANCH   8  23
BRANCH   7  27
ATOM     27  C   UNK A   0      -3.447  -0.783  -6.303  0.00  0.00    +0.112 C 
BRANCH  27  28
ATOM     28  C   UNK A   0      -3.604   0.666  -6.769  0.00  0.00    +0.052 C 
BRANCH  28  29
ATOM     29  C   UNK A   0      -5.048   0.931  -7.107  0.00  0.00    -0.040 C 
ATOM     30  C   UNK A   0      -5.987   1.475  -6.298  0.00  0.00    -0.001 A 
ATOM     31  C   UNK A   0      -5.945   1.962  -4.915  0.00  0.00    +0.010 A 
ATOM     32  C   UNK A   0      -7.072   2.464  -4.362  0.00  0.00    +0.001 A 
ATOM     33  C   UNK A   0      -8.277   2.529  -5.075  0.00  0.00    +0.002 A 
ATOM     34  C   UNK A   0      -8.394   2.101  -6.350  0.00  0.00    +0.026 A 
ATOM     35  C   UNK A   0      -7.271   1.556  -7.030  0.00  0.00    +0.043 A 
ATOM     36  N   UNK A   0      -7.132   1.080  -8.244  0.00  0.00    -0.380 N 
ATOM     37  C   UNK A   0      -5.741   0.649  -8.422  0.00  0.00    +0.144 C 
ATOM     38  H   UNK A   0      -7.831   1.026  -8.914  0.00  0.00    +0.160 HD
ENDBRANCH  28  29
ENDBRANCH  27  28
ENDBRANCH   7  27
TORSDOF 10
