REMARK  Name = ZINC03849965
REMARK  9 active torsions:
REMARK  status: ('A' for Active; 'I' for Inactive)
REMARK    1  A    between atoms: C_1  and  C_2
REMARK    2  A    between atoms: C_2  and  O_4
REMARK    3  A    between atoms: O_4  and  C_5
REMARK    4  A    between atoms: C_9  and  C_35
REMARK    5  A    between atoms: C_21  and  C_34
REMARK    6  A    between atoms: C_28  and  C_29
REMARK    7  A    between atoms: C_28  and  O_30
REMARK    8  A    between atoms: O_30  and  C_31
REMARK    9  A    between atoms: C_31  and  C_33
REMARK                            x       y       z     vdW  Elec       q    Type
REMARK                         _______ _______ _______ _____ _____    ______ ____
ROOT
ATOM      1  C   UNL     1       2.172   1.437   1.711  0.00  0.00    +0.177 C 
ATOM      2  C   UNL     1       1.470   2.008   0.480  0.00  0.00    +0.045 C 
ATOM      3  C   UNL     1       0.049   1.465   0.378  0.00  0.00    +0.011 C 
ATOM      4  C   UNL     1       0.045  -0.070   0.322  0.00  0.00    -0.026 C 
ATOM      5  C   UNL     1       0.749  -0.612   1.564  0.00  0.00    -0.001 C 
ATOM      6  C   UNL     1       2.184  -0.090   1.638  0.00  0.00    +0.048 C 
ATOM      7  C   UNL     1       0.761  -2.138   1.585  0.00  0.00    +0.004 C 
ATOM      8  C   UNL     1      -0.652  -2.681   1.331  0.00  0.00    +0.004 C 
ATOM      9  C   UNL     1      -1.645  -1.536   1.441  0.00  0.00    -0.004 C 
ATOM     10  C   UNL     1      -1.416  -0.527   0.318  0.00  0.00    -0.001 C 
ATOM     11  C   UNL     1      -1.840  -1.130  -1.015  0.00  0.00    +0.005 C 
ATOM     12  C   UNL     1      -3.337  -1.459  -0.962  0.00  0.00    +0.011 C 
ATOM     13  C   UNL     1      -3.631  -2.463   0.149  0.00  0.00    +0.018 C 
ATOM     14  C   UNL     1      -3.107  -1.976   1.488  0.00  0.00    +0.003 C 
ATOM     15  C   UNL     1      -3.890  -0.748   1.982  0.00  0.00    +0.012 C 
ATOM     16  C   UNL     1      -5.369  -1.084   2.162  0.00  0.00    +0.079 C 
ATOM     17  C   UNL     1      -5.876  -1.586   0.827  0.00  0.00    +0.177 C 
ATOM     18  O   UNL     1      -6.834  -1.077   0.296  0.00  0.00    -0.293 OA
ATOM     19  C   UNL     1      -5.144  -2.736   0.188  0.00  0.00    +0.173 C 
ATOM     20  C   UNL     1      -5.405  -4.024   0.976  0.00  0.00    +0.065 C 
ATOM     21  C   UNL     1      -2.989  -3.815  -0.214  0.00  0.00    +0.016 C 
ATOM     22  C   UNL     1       0.762  -0.529  -0.944  0.00  0.00    +0.012 C 
ENDROOT
BRANCH   1  23
ATOM     23  O   UNL     1       3.538   1.930   1.759  0.00  0.00    -0.462 OA
BRANCH  23  25
ATOM     24  C   UNL     1       5.139   3.653   2.509  0.00  0.00    +0.136 C 
ATOM     25  C   UNL     1       3.748   3.081   2.417  0.00  0.00    +0.304 C 
ATOM     26  O   UNL     1       2.821   3.658   2.935  0.00  0.00    -0.251 OA
ENDBRANCH  23  25
ENDBRANCH   1  23
BRANCH  19  27
ATOM     27  O   UNL     1      -5.623  -2.916  -1.175  0.00  0.00    -0.450 OA
BRANCH  27  28
ATOM     28  C   UNL     1      -6.933  -3.165  -1.332  0.00  0.00    +0.305 C 
ATOM     29  O   UNL     1      -7.655  -3.232  -0.366  0.00  0.00    -0.251 OA
ATOM     30  C   UNL     1      -7.502  -3.363  -2.713  0.00  0.00    +0.136 C 
ENDBRANCH  27  28
ENDBRANCH  19  27
TORSDOF 4
