REMARK  Name = ZINC00177617
REMARK  5 active torsions:
REMARK  status: ('A' for Active; 'I' for Inactive)
REMARK    1  A    between atoms: C_1  and  S_2
REMARK    2  A    between atoms: S_2  and  C_3
REMARK    3  A    between atoms: C_6  and  C_9
REMARK    4  A    between atoms: C_14  and  C_16
REMARK    5  A    between atoms: C_20  and  N_22
REMARK                            x       y       z     vdW  Elec       q    Type
REMARK                         _______ _______ _______ _____ _____    ______ ____
ROOT
ATOM      1  C   UNL     1       1.681   3.081   0.003  0.00  0.00    +0.043 C 
ATOM      2  C   UNL     1       1.280   1.785  -0.255  0.00  0.00    +0.152 C 
ATOM      3  C   UNL     1       2.136   0.644  -0.623  0.00  0.00    +0.364 C 
ATOM      4  O   UNL     1       3.345   0.642  -0.764  0.00  0.00    -0.243 OA
ATOM      5  O   UNL     1       1.292  -0.400  -0.770  0.00  0.00    -0.402 OA
ATOM      6  C   UNL     1       0.036   0.022  -0.524  0.00  0.00    +0.232 C 
ATOM      7  N   UNL     1       0.009   1.291  -0.223  0.00  0.00    -0.205 NA
ENDROOT
BRANCH   1  11
ATOM      8  C   UNL     1       5.795   4.005   0.286  0.00  0.00    +0.008 A 
ATOM      9  C   UNL     1       4.919   4.912  -0.309  0.00  0.00    +0.015 A 
ATOM     10  C   UNL     1       3.589   4.618  -0.404  0.00  0.00    +0.009 A 
ATOM     11  C   UNL     1       3.105   3.401   0.101  0.00  0.00    -0.023 A 
ATOM     12  C   UNL     1       3.990   2.494   0.704  0.00  0.00    +0.009 A 
ATOM     13  C   UNL     1       5.318   2.795   0.789  0.00  0.00    +0.015 A 
BRANCH   8  15
ATOM     14  C   UNL     1       8.229   2.946   1.233  0.00  0.00    +0.090 C 
ATOM     15  S   UNL     1       7.510   4.391   0.404  0.00  0.00    -0.129 S 
ENDBRANCH   8  15
ENDBRANCH   1  11
BRANCH   6  16
ATOM     16  C   UNL     1      -1.159  -0.843  -0.587  0.00  0.00    +0.039 A 
ATOM     17  C   UNL     1      -2.422  -0.315  -0.309  0.00  0.00    +0.013 A 
ATOM     18  C   UNL     1      -3.534  -1.128  -0.374  0.00  0.00    +0.003 A 
ATOM     19  C   UNL     1      -3.400  -2.465  -0.705  0.00  0.00    +0.033 A 
ATOM     20  C   UNL     1      -2.151  -2.995  -0.976  0.00  0.00    +0.127 A 
ATOM     21  C   UNL     1      -1.031  -2.193  -0.919  0.00  0.00    +0.046 A 
BRANCH  20  22
ATOM     22  N   UNL     1      -2.018  -4.427  -1.327  0.00  0.00    +0.056 N 
ATOM     23  O   UNL     1      -0.919  -4.895  -1.566  0.00  0.00    -0.126 OA
ATOM     24  O   UNL     1      -3.006  -5.136  -1.378  0.00  0.00    -0.126 OA
ENDBRANCH  20  22
ENDBRANCH   6  16
TORSDOF 4
