REMARK  Name = ZINC08872396
REMARK  6 active torsions:
REMARK  status: ('A' for Active; 'I' for Inactive)
REMARK    1  A    between atoms: C_1  and  C_2
REMARK    2  A    between atoms: C_6  and  C_9
REMARK    3  A    between atoms: C_7  and  O_8
REMARK    4  A    between atoms: N_10  and  N_11
REMARK    5  A    between atoms: N_18  and  C_19
REMARK    6  A    between atoms: N_25  and  C_26
REMARK                            x       y       z     vdW  Elec       q    Type
REMARK                         _______ _______ _______ _____ _____    ______ ____
ROOT
ATOM      1  N   UNL     1      -0.476  -2.796   4.491  0.00  0.00    -0.205 N 
ATOM      2  C   UNL     1      -0.456  -2.249   5.759  0.00  0.00    +0.241 A 
ATOM      3  N   UNL     1       0.065  -1.042   5.954  0.00  0.00    -0.179 NA
ATOM      4  C   UNL     1       0.084  -0.515   7.175  0.00  0.00    +0.225 A 
ATOM      5  N   UNL     1      -0.417  -1.196   8.200  0.00  0.00    -0.181 NA
ATOM      6  C   UNL     1      -0.939  -2.404   8.005  0.00  0.00    +0.225 A 
ATOM      7  N   UNL     1      -0.963  -2.928   6.784  0.00  0.00    -0.179 NA
ATOM      8  N   UNL     1      -1.460  -3.112   9.071  0.00  0.00    -0.283 N 
ATOM      9  N   UNL     1       0.626   0.739   7.378  0.00  0.00    -0.283 N 
ATOM     10  H   UNL     1      -0.932  -3.638   4.333  0.00  0.00    +0.177 HD
ATOM     11  H   UNL     1      -1.525  -2.695   9.945  0.00  0.00    +0.155 HD
ATOM     12  H   UNL     1       0.905   1.276   6.619  0.00  0.00    +0.155 HD
ENDROOT
BRANCH   8  13
ATOM     13  C   UNL     1      -1.893  -4.429   8.891  0.00  0.00    +0.034 A 
ATOM     14  C   UNL     1      -1.266  -5.246   7.959  0.00  0.00    +0.023 A 
ATOM     15  C   UNL     1      -1.696  -6.547   7.784  0.00  0.00    +0.002 A 
ATOM     16  C   UNL     1      -2.749  -7.036   8.535  0.00  0.00    +0.000 A 
ATOM     17  C   UNL     1      -3.375  -6.225   9.464  0.00  0.00    +0.002 A 
ATOM     18  C   UNL     1      -2.946  -4.925   9.648  0.00  0.00    +0.023 A 
ENDBRANCH   8  13
BRANCH   9  19
ATOM     19  C   UNL     1       0.772   1.236   8.677  0.00  0.00    +0.034 A 
ATOM     20  C   UNL     1       1.072   0.373   9.723  0.00  0.00    +0.023 A 
ATOM     21  C   UNL     1       1.216   0.867  11.004  0.00  0.00    +0.002 A 
ATOM     22  C   UNL     1       1.061   2.220  11.247  0.00  0.00    +0.000 A 
ATOM     23  C   UNL     1       0.761   3.082  10.208  0.00  0.00    +0.002 A 
ATOM     24  C   UNL     1       0.622   2.595   8.923  0.00  0.00    +0.023 A 
ENDBRANCH   9  19
BRANCH   1  26
ATOM     25  C   UNL     1       0.229  -2.695   2.265  0.00  0.00    +0.142 C 
ATOM     26  N   UNL     1       0.162  -2.135   3.433  0.00  0.00    -0.187 NA
BRANCH  25  32
ATOM     27  C   UNL     1       3.259   0.950   0.686  0.00  0.00    +0.047 C 
ATOM     28  C   UNL     1       2.457  -0.296   0.415  0.00  0.00    -0.007 A 
ATOM     29  C   UNL     1       2.438  -0.843  -0.855  0.00  0.00    +0.022 A 
ATOM     30  C   UNL     1       1.704  -1.988  -1.113  0.00  0.00    +0.019 A 
ATOM     31  C   UNL     1       0.984  -2.595  -0.104  0.00  0.00    +0.028 A 
ATOM     32  C   UNL     1       0.996  -2.053   1.182  0.00  0.00    +0.037 A 
ATOM     33  C   UNL     1       1.745  -0.896   1.440  0.00  0.00    +0.128 A 
ATOM     34 BR   UNL     1       1.687  -2.723  -2.856  0.00  0.00    -0.050 Br
BRANCH  33  35
ATOM     35  O   UNL     1       1.768  -0.363   2.689  0.00  0.00    -0.506 OA
ATOM     36  H   UNL     1       1.040   0.247   2.870  0.00  0.00    +0.292 HD
ENDBRANCH  33  35
ENDBRANCH  25  32
ENDBRANCH   1  26
TORSDOF 5
