REMARK  Name = ZINC33887992
REMARK  8 active torsions:
REMARK  status: ('A' for Active; 'I' for Inactive)
REMARK    1  A    between atoms: C_1  and  O_2
REMARK    2  A    between atoms: O_2  and  C_3
REMARK    3  A    between atoms: C_7  and  C_10
REMARK    4  A    between atoms: C_8  and  O_9
REMARK    5  A    between atoms: N_18  and  C_21
REMARK    6  A    between atoms: C_27  and  C_29
REMARK    7  A    between atoms: C_27  and  C_36
REMARK    8  A    between atoms: C_29  and  C_30
REMARK                            x       y       z     vdW  Elec       q    Type
REMARK                         _______ _______ _______ _____ _____    ______ ____
ROOT
ATOM      1  C   UNL     1      -2.470  -4.447  -0.497  0.00  0.00    -0.023 C 
ATOM      2  C   UNL     1      -2.613  -5.238  -1.786  0.00  0.00    +0.077 C 
ATOM      3  C   UNL     1      -4.167  -5.069  -1.993  0.00  0.00    +0.086 C 
ATOM      4  C   UNL     1      -4.321  -5.448  -3.375  0.00  0.00    +0.225 C 
ATOM      5  O   UNL     1      -5.262  -6.019  -3.882  0.00  0.00    -0.275 OA
ATOM      6  N   UNL     1      -3.172  -5.020  -3.993  0.00  0.00    -0.239 N 
ATOM      7  C   UNL     1      -2.181  -4.672  -3.102  0.00  0.00    +0.225 C 
ATOM      8  O   UNL     1      -1.173  -4.038  -3.329  0.00  0.00    -0.275 OA
ATOM      9  C   UNL     1      -4.691  -5.415  -0.661  0.00  0.00    +0.048 C 
ATOM     10  N   UNL     1      -3.743  -4.667   0.254  0.00  0.00    +0.396 N 
ATOM     11  H   UNL     1      -3.563  -5.220   1.078  0.00  0.00    -0.083 HD
ATOM     12  H   UNL     1      -4.142  -3.779   0.518  0.00  0.00    -0.083 HD
ENDROOT
BRANCH   1  17
ATOM     13  C   UNL     1      -0.856  -1.105  -1.241  0.00  0.00    +0.161 A 
ATOM     14  C   UNL     1      -1.969  -0.287  -1.361  0.00  0.00    +0.049 A 
ATOM     15  C   UNL     1      -3.236  -0.817  -1.201  0.00  0.00    +0.004 A 
ATOM     16  C   UNL     1      -3.397  -2.161  -0.922  0.00  0.00    +0.006 A 
ATOM     17  C   UNL     1      -2.291  -2.982  -0.801  0.00  0.00    -0.015 A 
ATOM     18  C   UNL     1      -1.018  -2.459  -0.966  0.00  0.00    +0.160 A 
BRANCH  13  20
ATOM     19  C   UNL     1       0.481   0.812  -1.678  0.00  0.00    +0.277 C 
ATOM     20  O   UNL     1       0.391  -0.586  -1.398  0.00  0.00    -0.491 OA
ENDBRANCH  13  20
BRANCH  18  21
ATOM     21  O   UNL     1       0.070  -3.267  -0.853  0.00  0.00    -0.503 OA
ATOM     22  H   UNL     1       0.422  -3.329   0.045  0.00  0.00    +0.292 HD
ENDBRANCH  18  21
ENDBRANCH   1  17
BRANCH   6  23
ATOM     23  C   UNL     1      -3.010  -4.952  -5.447  0.00  0.00    +0.084 C 
ATOM     24  C   UNL     1      -1.849  -5.853  -5.874  0.00  0.00    +0.023 C 
ATOM     25  C   UNL     1      -1.680  -5.781  -7.393  0.00  0.00    +0.002 C 
ATOM     26  C   UNL     1      -1.384  -4.338  -7.806  0.00  0.00    +0.000 C 
ATOM     27  C   UNL     1      -2.544  -3.437  -7.379  0.00  0.00    +0.002 C 
ATOM     28  C   UNL     1      -2.714  -3.508  -5.860  0.00  0.00    +0.023 C 
ENDBRANCH   6  23
BRANCH   9  29
ATOM     29  C   UNL     1      -4.625  -6.903  -0.429  0.00  0.00    +0.346 C 
ATOM     30  O   UNL     1      -4.043  -7.342   0.548  0.00  0.00    -0.248 OA
ATOM     31  O   UNL     1      -5.153  -7.667  -1.219  0.00  0.00    -0.248 OA
ENDBRANCH   9  29
BRANCH   9  32
ATOM     32  C   UNL     1      -6.122  -4.899  -0.489  0.00  0.00    +0.003 C 
BRANCH  32  33
ATOM     33  C   UNL     1      -6.675  -5.372   0.857  0.00  0.00    -0.012 C 
ATOM     34  C   UNL     1      -8.159  -5.013   0.952  0.00  0.00    +0.003 C 
ATOM     35  C   UNL     1      -8.713  -5.485   2.298  0.00  0.00    +0.000 C 
ATOM     36  C   UNL     1      -7.949  -4.800   3.433  0.00  0.00    +0.000 C 
ATOM     37  C   UNL     1      -6.465  -5.159   3.337  0.00  0.00    +0.000 C 
ATOM     38  C   UNL     1      -5.911  -4.686   1.992  0.00  0.00    +0.003 C 
ENDBRANCH  32  33
ENDBRANCH   9  32
TORSDOF 7
