REMARK  Name = ZINC14992625
REMARK  8 active torsions:
REMARK  status: ('A' for Active; 'I' for Inactive)
REMARK    1  A    between atoms: C_1  and  C_2
REMARK    2  A    between atoms: C_2  and  C_3
REMARK    3  A    between atoms: C_2  and  C_4
REMARK    4  A    between atoms: C_4  and  N_53
REMARK    5  A    between atoms: C_5  and  N_53
REMARK    6  A    between atoms: N_16  and  C_19
REMARK    7  A    between atoms: C_19  and  C_20
REMARK    8  A    between atoms: C_24  and  C_26
REMARK                            x       y       z     vdW  Elec       q    Type
REMARK                         _______ _______ _______ _____ _____    ______ ____
ROOT
ATOM      1  C   UNL     1      -4.537   7.089  -6.054  0.00  0.00    -0.067 C 
ATOM      2  C   UNL     1      -4.799   7.449  -4.588  0.00  0.00    -0.011 C 
ATOM      3  C   UNL     1      -3.869   6.642  -3.681  0.00  0.00    +0.035 C 
ATOM      4  C   UNL     1      -2.432   6.829  -4.159  0.00  0.00    -0.023 A 
ATOM      5  C   UNL     1      -2.172   7.280  -5.404  0.00  0.00    -0.006 A 
ATOM      6  S   UNL     1      -0.404   7.338  -5.512  0.00  0.00    -0.073 S 
ATOM      7  C   UNL     1      -0.018   6.755  -3.881  0.00  0.00    +0.116 A 
ATOM      8  C   UNL     1      -1.280   6.535  -3.307  0.00  0.00    +0.076 A 
ATOM      9  C   UNL     1      -1.272   6.049  -1.958  0.00  0.00    +0.263 A 
ATOM     10  O   UNL     1      -2.318   5.828  -1.373  0.00  0.00    -0.267 OA
ATOM     11  N   UNL     1      -0.090   5.842  -1.348  0.00  0.00    -0.294 N 
ATOM     12  C   UNL     1       1.085   6.089  -1.983  0.00  0.00    +0.203 A 
ATOM     13  N   UNL     1       1.109   6.527  -3.214  0.00  0.00    -0.230 NA
ATOM     14  C   UNL     1      -3.167   7.649  -6.461  0.00  0.00    +0.027 C 
ENDROOT
BRANCH   1  15
ATOM     15  N   UNL     1      -5.589   7.688  -6.897  0.00  0.00    +0.381 N 
ATOM     16  H   UNL     1      -6.482   7.666  -6.392  0.00  0.00    -0.086 HD
ATOM     17  H   UNL     1      -5.339   8.661  -7.109  0.00  0.00    -0.086 HD
BRANCH  15  18
ATOM     18  C   UNL     1      -5.724   6.935  -8.159  0.00  0.00    -0.079 C 
BRANCH  18  20
ATOM     19  C   UNL     1      -6.386   8.987  -9.421  0.00  0.00    +0.005 C 
ATOM     20  C   UNL     1      -6.820   7.578  -9.011  0.00  0.00    -0.034 C 
ATOM     21  C   UNL     1      -7.054   6.732 -10.264  0.00  0.00    +0.005 C 
ENDBRANCH  18  20
ENDBRANCH  15  18
ENDBRANCH   1  15
BRANCH  11  22
ATOM     22  C   UNL     1      -0.070   5.347   0.030  0.00  0.00    +0.161 C 
BRANCH  22  23
ATOM     23  C   UNL     1      -0.050   3.840   0.022  0.00  0.00    -0.027 A 
ATOM     24  C   UNL     1       1.157   3.165   0.008  0.00  0.00    +0.005 A 
ATOM     25  C   UNL     1       1.175   1.783   0.000  0.00  0.00    +0.001 A 
ATOM     26  C   UNL     1      -0.013   1.076   0.008  0.00  0.00    +0.012 A 
ATOM     27  C   UNL     1      -1.219   1.750   0.017  0.00  0.00    +0.055 A 
ATOM     28  C   UNL     1      -1.238   3.133   0.030  0.00  0.00    +0.017 A 
BRANCH  27  29
ATOM     29  C   UNL     1      -2.514   0.979   0.019  0.00  0.00    +0.417 C 
ATOM     30  F   UNL     1      -2.239  -0.392   0.010  0.00  0.00    -0.166 F 
ATOM     31  F   UNL     1      -3.246   1.301   1.167  0.00  0.00    -0.166 F 
ATOM     32  F   UNL     1      -3.257   1.314  -1.118  0.00  0.00    -0.166 F 
ENDBRANCH  27  29
ENDBRANCH  22  23
ENDBRANCH  11  22
TORSDOF 6
