REMARK  Name = ZINC39725782
REMARK  8 active torsions:
REMARK  status: ('A' for Active; 'I' for Inactive)
REMARK    1  A    between atoms: C_1  and  O_2
REMARK    2  A    between atoms: O_2  and  C_3
REMARK    3  A    between atoms: C_8  and  N_9
REMARK    4  A    between atoms: C_10  and  S_24
REMARK    5  A    between atoms: S_24  and  C_25
REMARK    6  A    between atoms: C_25  and  C_26
REMARK    7  A    between atoms: N_28  and  C_29
REMARK    8  A    between atoms: C_32  and  C_35
REMARK                            x       y       z     vdW  Elec       q    Type
REMARK                         _______ _______ _______ _____ _____    ______ ____
ROOT
ATOM      1  N   UNL     1      -0.348  -2.749   0.123  0.00  0.00    -0.231 N 
ATOM      2  C   UNL     1       0.564  -3.070   1.224  0.00  0.00    +0.259 C 
ATOM      3  N   UNL     1       1.826  -3.764   0.957  0.00  0.00    -0.248 NA
ATOM      4  C   UNL     1       2.150  -4.101  -0.245  0.00  0.00    +0.101 C 
ATOM      5  C   UNL     1       3.308  -4.790  -0.862  0.00  0.00    +0.028 A 
ATOM      6  C   UNL     1       4.481  -5.332  -0.373  0.00  0.00    +0.012 A 
ATOM      7  C   UNL     1       5.384  -5.924  -1.244  0.00  0.00    +0.001 A 
ATOM      8  C   UNL     1       5.114  -5.972  -2.599  0.00  0.00    +0.002 A 
ATOM      9  C   UNL     1       3.946  -5.436  -3.105  0.00  0.00    +0.028 A 
ATOM     10  C   UNL     1       3.020  -4.834  -2.244  0.00  0.00    +0.074 A 
ATOM     11  N   UNL     1       1.822  -4.243  -2.477  0.00  0.00    -0.240 NA
ATOM     12  C   UNL     1       1.253  -3.795  -1.392  0.00  0.00    +0.152 C 
ATOM     13  C   UNL     1      -0.026  -3.099  -1.140  0.00  0.00    +0.274 C 
ATOM     14  O   UNL     1      -0.778  -2.842  -2.061  0.00  0.00    -0.268 OA
ENDROOT
BRANCH   1  20
ATOM     15  C   UNL     1      -2.724  -2.816   0.580  0.00  0.00    +0.141 A 
ATOM     16  C   UNL     1      -3.913  -2.154   0.841  0.00  0.00    +0.047 A 
ATOM     17  C   UNL     1      -3.937  -0.773   0.898  0.00  0.00    +0.004 A 
ATOM     18  C   UNL     1      -2.777  -0.047   0.695  0.00  0.00    +0.002 A 
ATOM     19  C   UNL     1      -1.587  -0.700   0.434  0.00  0.00    +0.027 A 
ATOM     20  C   UNL     1      -1.553  -2.086   0.381  0.00  0.00    +0.081 A 
BRANCH  15  22
ATOM     21  C   UNL     1      -3.935  -4.856   0.737  0.00  0.00    +0.277 C 
ATOM     22  O   UNL     1      -2.698  -4.174   0.524  0.00  0.00    -0.493 OA
ENDBRANCH  15  22
ENDBRANCH   1  20
BRANCH   2  23
ATOM     23  S   UNL     1       0.974  -1.511   2.055  0.00  0.00    -0.106 S 
BRANCH  23  24
ATOM     24  C   UNL     1       1.911  -0.582   0.810  0.00  0.00    +0.168 C 
BRANCH  24  25
ATOM     25  C   UNL     1       2.387   0.717   1.406  0.00  0.00    +0.227 C 
ATOM     26  O   UNL     1       2.121   0.990   2.557  0.00  0.00    -0.275 OA
ATOM     27  N   UNL     1       3.109   1.576   0.660  0.00  0.00    -0.285 N 
ATOM     28  H   UNL     1       3.381   1.329  -0.238  0.00  0.00    +0.155 HD
BRANCH  27  29
ATOM     29  C   UNL     1       3.466   2.821   1.178  0.00  0.00    +0.033 A 
ATOM     30  C   UNL     1       3.774   2.948   2.529  0.00  0.00    +0.024 A 
ATOM     31  C   UNL     1       4.126   4.176   3.043  0.00  0.00    +0.015 A 
ATOM     32  C   UNL     1       4.174   5.294   2.207  0.00  0.00    +0.037 A 
ATOM     33  C   UNL     1       3.864   5.163   0.851  0.00  0.00    +0.015 A 
ATOM     34  C   UNL     1       3.518   3.932   0.342  0.00  0.00    +0.024 A 
BRANCH  32  35
ATOM     35  C   UNL     1       4.550   6.612   2.756  0.00  0.00    +0.242 C 
ATOM     36  O   UNL     1       4.819   6.725   3.936  0.00  0.00    -0.270 OA
ATOM     37  N   UNL     1       4.596   7.690   1.948  0.00  0.00    -0.325 N 
ATOM     38  H   UNL     1       4.382   7.600   1.006  0.00  0.00    +0.145 HD
ATOM     39  H   UNL     1       4.844   8.556   2.308  0.00  0.00    +0.145 HD
ENDBRANCH  32  35
ENDBRANCH  27  29
ENDBRANCH  24  25
ENDBRANCH  23  24
ENDBRANCH   2  23
TORSDOF 7
