REMARK  Name = ZINC48892264
REMARK  9 active torsions:
REMARK  status: ('A' for Active; 'I' for Inactive)
REMARK    1  A    between atoms: C_1  and  C_2
REMARK    2  A    between atoms: C_2  and  C_3
REMARK    3  A    between atoms: C_3  and  N_4
REMARK    4  A    between atoms: C_7  and  C_10
REMARK    5  A    between atoms: C_7  and  N_12
REMARK    6  A    between atoms: C_10  and  N_11
REMARK    7  A    between atoms: N_12  and  C_13
REMARK    8  A    between atoms: N_12  and  C_14
REMARK    9  A    between atoms: C_14  and  C_15
REMARK                            x       y       z     vdW  Elec       q    Type
REMARK                         _______ _______ _______ _____ _____    ______ ____
ROOT
ATOM      1  N   UNL     1       0.586  -2.043  -1.138  0.00  0.00    -0.302 NA
ATOM      2  C   UNL     1       1.399  -2.533  -0.018  0.00  0.00    +0.083 C 
ATOM      3  C   UNL     1       1.369  -4.063   0.005  0.00  0.00    +0.002 C 
ATOM      4  C   UNL     1       1.917  -4.599  -1.321  0.00  0.00    -0.079 C 
ATOM      5  C   UNL     1       1.083  -4.035  -2.474  0.00  0.00    +0.002 C 
ATOM      6  C   UNL     1       1.121  -2.506  -2.425  0.00  0.00    +0.083 C 
ENDROOT
BRANCH   4   7
ATOM      7  N   UNL     1       1.837  -6.066  -1.328  0.00  0.00    +0.383 N 
ATOM      8  C   UNL     1       2.438  -6.583  -2.564  0.00  0.00    -0.095 C 
ATOM      9  H   UNL     1       2.336  -6.434  -0.532  0.00  0.00    -0.081 HD
BRANCH   7  10
ATOM     10  C   UNL     1       0.429  -6.479  -1.258  0.00  0.00    -0.042 C 
BRANCH  10  11
ATOM     11  C   UNL     1       0.352  -7.978  -1.123  0.00  0.00    -0.050 A 
ATOM     12  C   UNL     1       0.086  -8.759  -2.233  0.00  0.00    +0.003 A 
ATOM     13  C   UNL     1       0.016 -10.134  -2.110  0.00  0.00    +0.000 A 
ATOM     14  C   UNL     1       0.211 -10.729  -0.878  0.00  0.00    +0.001 A 
ATOM     15  C   UNL     1       0.477  -9.950   0.232  0.00  0.00    +0.015 A 
ATOM     16  C   UNL     1       0.552  -8.574   0.109  0.00  0.00    +0.019 A 
ATOM     17 BR   UNL     1       0.923  -7.507   1.625  0.00  0.00    -0.050 Br
ENDBRANCH  10  11
ENDBRANCH   7  10
ENDBRANCH   4   7
BRANCH   1  18
ATOM     18  C   UNL     1       0.478  -0.578  -1.109  0.00  0.00    +0.084 C 
BRANCH  18  20
ATOM     19  C   UNL     1      -0.419   1.377   0.162  0.00  0.00    +0.005 C 
ATOM     20  C   UNL     1      -0.306  -0.149   0.132  0.00  0.00    +0.012 C 
ENDBRANCH  18  20
ENDBRANCH   1  18
BRANCH   4  21
ATOM     21  C   UNL     1       3.375  -4.165  -1.484  0.00  0.00    -0.099 C 
BRANCH  21  22
ATOM     22  N   UNL     1       4.196  -4.804  -0.447  0.00  0.00    +0.377 N 
ATOM     23  H   UNL     1       4.183  -5.805  -0.577  0.00  0.00    -0.090 HD
ATOM     24  H   UNL     1       5.145  -4.469  -0.514  0.00  0.00    -0.090 HD
ATOM     25  H   UNL     1       3.823  -4.579   0.463  0.00  0.00    -0.090 HD
ENDBRANCH  21  22
ENDBRANCH   4  21
TORSDOF 7
