REMARK  Name = ZINC15399296
REMARK  5 active torsions:
REMARK  status: ('A' for Active; 'I' for Inactive)
REMARK    1  A    between atoms: C_1  and  C_2
REMARK    2  A    between atoms: C_2  and  C_22
REMARK    3  A    between atoms: N_5  and  C_9
REMARK    4  A    between atoms: C_9  and  C_10
REMARK    5  A    between atoms: C_13  and  C_15
REMARK                            x       y       z     vdW  Elec       q    Type
REMARK                         _______ _______ _______ _____ _____    ______ ____
ROOT
ATOM      1  C   UNL     1       2.877   4.521  -1.434  0.00  0.00    +0.047 C 
ATOM      2  C   UNL     1       2.448   4.209   0.001  0.00  0.00    +0.135 C 
ATOM      3  C   UNL     1       2.314   5.484   0.810  0.00  0.00    +0.251 C 
ATOM      4  O   UNL     1       1.560   6.409   0.600  0.00  0.00    -0.272 OA
ATOM      5  N   UNL     1       3.210   5.375   1.811  0.00  0.00    -0.215 N 
ATOM      6  C   UNL     1       3.884   4.221   1.747  0.00  0.00    +0.310 C 
ATOM      7  O   UNL     1       4.745   3.896   2.542  0.00  0.00    -0.252 OA
ATOM      8  N   UNL     1       3.502   3.460   0.706  0.00  0.00    -0.281 N 
ATOM      9  H   UNL     1       3.853   2.588   0.466  0.00  0.00    +0.152 HD
ENDROOT
BRANCH   2  10
ATOM     10  C   UNL     1       1.153   3.438   0.010  0.00  0.00    -0.013 A 
ATOM     11  C   UNL     1      -0.053   4.113   0.025  0.00  0.00    +0.009 A 
ATOM     12  C   UNL     1      -1.242   3.408   0.032  0.00  0.00    +0.041 A 
ATOM     13  C   UNL     1      -1.226   2.024   0.019  0.00  0.00    +0.158 A 
ATOM     14  C   UNL     1      -0.016   1.347   0.009  0.00  0.00    +0.159 A 
ATOM     15  C   UNL     1       1.172   2.056   0.002  0.00  0.00    +0.047 A 
ATOM     16  F   UNL     1       0.002  -0.004   0.002  0.00  0.00    -0.202 F 
ATOM     17  F   UNL     1      -2.387   1.335   0.021  0.00  0.00    -0.202 F 
ENDBRANCH   2  10
BRANCH   5  18
ATOM     18  C   UNL     1       3.420   6.394   2.842  0.00  0.00    +0.214 C 
BRANCH  18  19
ATOM     19  C   UNL     1       4.477   7.364   2.382  0.00  0.00    +0.214 A 
ATOM     20  N   UNL     1       4.259   8.457   1.705  0.00  0.00    -0.220 NA
ATOM     21  C   UNL     1       5.431   9.067   1.473  0.00  0.00    +0.161 A 
ATOM     22  C   UNL     1       6.405   8.307   2.037  0.00  0.00    +0.155 A 
ATOM     23  O   UNL     1       5.793   7.246   2.607  0.00  0.00    -0.438 OA
BRANCH  22  24
ATOM     24  C   UNL     1       7.856   8.590   2.032  0.00  0.00    +0.019 A 
ATOM     25  C   UNL     1       8.345   9.733   1.399  0.00  0.00    +0.013 A 
ATOM     26  C   UNL     1       9.700   9.994   1.403  0.00  0.00    +0.021 A 
ATOM     27  C   UNL     1      10.575   9.119   2.024  0.00  0.00    +0.041 A 
ATOM     28  C   UNL     1      10.096   7.980   2.649  0.00  0.00    +0.021 A 
ATOM     29  C   UNL     1       8.743   7.711   2.657  0.00  0.00    +0.013 A 
ATOM     30 CL   UNL     1      12.278   9.451   2.019  0.00  0.00    -0.084 Cl
ENDBRANCH  22  24
ENDBRANCH  18  19
ENDBRANCH   5  18
TORSDOF 4
