REMARK  Name = ZINC57464280
REMARK  4 active torsions:
REMARK  status: ('A' for Active; 'I' for Inactive)
REMARK    1  A    between atoms: C_9  and  O_25
REMARK    2  A    between atoms: C_10  and  C_11
REMARK    3  A    between atoms: N_12  and  C_13
REMARK    4  A    between atoms: C_16  and  N_19
REMARK                            x       y       z     vdW  Elec       q    Type
REMARK                         _______ _______ _______ _____ _____    ______ ____
ROOT
ATOM      1  C   UNL     1       4.979   0.088  -0.045  0.00  0.00    +0.123 C 
ATOM      2  N   UNL     1       6.111  -0.563  -0.059  0.00  0.00    -0.255 NA
ENDROOT
BRANCH   1  12
ATOM      3  C   UNL     1      -0.016   1.358   0.009  0.00  0.00    +0.001 A 
ATOM      4  C   UNL     1       1.167   2.091   0.002  0.00  0.00    +0.001 A 
ATOM      5  C   UNL     1       2.378   1.464  -0.013  0.00  0.00    +0.009 A 
ATOM      6  C   UNL     1       2.434   0.066  -0.021  0.00  0.00    -0.006 A 
ATOM      7  C   UNL     1       1.232  -0.682  -0.013  0.00  0.00    -0.017 A 
ATOM      8  C   UNL     1       0.002  -0.004   0.002  0.00  0.00    +0.008 A 
ATOM      9  C   UNL     1       1.290  -2.088  -0.021  0.00  0.00    +0.012 A 
ATOM     10  C   UNL     1       2.485  -2.736  -0.036  0.00  0.00    +0.046 A 
ATOM     11  C   UNL     1       3.696  -2.044  -0.044  0.00  0.00    +0.126 A 
ATOM     12  C   UNL     1       3.712  -0.646  -0.036  0.00  0.00    +0.042 A 
BRANCH  11  13
ATOM     13  O   UNL     1       4.865  -2.732  -0.058  0.00  0.00    -0.506 OA
ATOM     14  H   UNL     1       5.196  -2.926  -0.946  0.00  0.00    +0.292 HD
ENDBRANCH  11  13
ENDBRANCH   1  12
BRANCH   2  15
ATOM     15  C   UNL     1       7.295   0.123  -0.067  0.00  0.00    +0.064 A 
ATOM     16  C   UNL     1       7.462   1.222  -0.914  0.00  0.00    +0.029 A 
ATOM     17  C   UNL     1       8.655   1.910  -0.919  0.00  0.00    +0.026 A 
ATOM     18  C   UNL     1       9.692   1.513  -0.083  0.00  0.00    +0.040 A 
ATOM     19  C   UNL     1       9.530   0.420   0.761  0.00  0.00    +0.026 A 
ATOM     20  C   UNL     1       8.338  -0.270   0.776  0.00  0.00    +0.029 A 
BRANCH  18  21
ATOM     21  N   UNL     1      10.903   2.215  -0.091  0.00  0.00    -0.234 N 
ATOM     22  C   UNL     1      12.091   1.911   0.731  0.00  0.00    +0.158 C 
ATOM     23  C   UNL     1      13.193   2.741   0.032  0.00  0.00    +0.253 C 
ATOM     24  O   UNL     1      12.425   3.772  -0.620  0.00  0.00    -0.448 OA
ATOM     25  C   UNL     1      11.195   3.284  -0.855  0.00  0.00    +0.407 C 
ATOM     26  O   UNL     1      10.427   3.761  -1.667  0.00  0.00    -0.226 OA
ENDBRANCH  18  21
ENDBRANCH   2  15
TORSDOF 4
