REMARK  Name = ZINC36357850
REMARK  6 active torsions:
REMARK  status: ('A' for Active; 'I' for Inactive)
REMARK    1  A    between atoms: C_1  and  C_2
REMARK    2  A    between atoms: C_2  and  C_3
REMARK    3  A    between atoms: C_3  and  N_4
REMARK    4  A    between atoms: C_15  and  O_31
REMARK    5  A    between atoms: C_20  and  C_28
REMARK    6  A    between atoms: C_21  and  C_22
REMARK                            x       y       z     vdW  Elec       q    Type
REMARK                         _______ _______ _______ _____ _____    ______ ____
ROOT
ATOM      1  N   UNL     1      -1.413  -1.998   0.005  0.00  0.00    -0.270 N 
ATOM      2  C   UNL     1      -1.408  -2.766  -1.147  0.00  0.00    +0.041 A 
ATOM      3  C   UNL     1      -1.420  -2.360  -2.482  0.00  0.00    +0.025 A 
ATOM      4  C   UNL     1      -1.411  -3.353  -3.448  0.00  0.00    +0.022 A 
ATOM      5  C   UNL     1      -1.393  -4.694  -3.117  0.00  0.00    +0.041 A 
ATOM      6  C   UNL     1      -1.383  -5.112  -1.790  0.00  0.00    +0.026 A 
ATOM      7  C   UNL     1      -1.389  -4.129  -0.824  0.00  0.00    -0.004 A 
ATOM      8  C   UNL     1      -1.381  -4.203   0.669  0.00  0.00    +0.115 C 
ATOM      9  C   UNL     1      -1.392  -2.759   1.120  0.00  0.00    +0.236 C 
ATOM     10  O   UNL     1      -1.385  -2.360   2.265  0.00  0.00    -0.274 OA
ATOM     11  C   UNL     1      -0.115  -4.896   1.179  0.00  0.00    +0.121 C 
ATOM     12  C   UNL     1      -0.274  -6.388   1.157  0.00  0.00    +0.189 C 
ATOM     13  N   UNL     1      -1.392  -7.009   1.328  0.00  0.00    -0.216 NA
ATOM     14  C   UNL     1      -2.567  -6.288   1.518  0.00  0.00    +0.087 A 
ATOM     15  C   UNL     1      -2.571  -4.936   1.197  0.00  0.00    +0.036 A 
ATOM     16  S   UNL     1      -4.108  -4.392   1.523  0.00  0.00    -0.082 S 
ATOM     17  C   UNL     1      -4.832  -5.911   2.117  0.00  0.00    +0.110 A 
ATOM     18  C   UNL     1      -3.765  -6.810   2.013  0.00  0.00    +0.029 A 
ATOM     19 CL   UNL     1      -1.385  -5.882  -4.383  0.00  0.00    -0.084 Cl
ENDROOT
BRANCH  18  20
ATOM     20  C   UNL     1      -3.898  -8.231   2.404  0.00  0.00    -0.015 A 
ATOM     21  C   UNL     1      -3.779  -9.236   1.443  0.00  0.00    +0.008 A 
ATOM     22  C   UNL     1      -3.904 -10.559   1.814  0.00  0.00    +0.001 A 
ATOM     23  C   UNL     1      -4.146 -10.890   3.135  0.00  0.00    +0.000 A 
ATOM     24  C   UNL     1      -4.264  -9.899   4.093  0.00  0.00    +0.001 A 
ATOM     25  C   UNL     1      -4.137  -8.572   3.736  0.00  0.00    +0.008 A 
ENDBRANCH  18  20
BRANCH  17  26
ATOM     26  C   UNL     1      -6.148  -6.146   2.576  0.00  0.00    +0.394 C 
ATOM     27  O   UNL     1      -6.962  -5.229   2.599  0.00  0.00    -0.240 OA
ATOM     28  O   UNL     1      -6.476  -7.265   2.952  0.00  0.00    -0.240 OA
ENDBRANCH  17  26
BRANCH  12  29
ATOM     29  O   UNL     1       0.832  -7.134   0.942  0.00  0.00    -0.495 OA
ATOM     30  H   UNL     1       0.669  -8.087   0.938  0.00  0.00    +0.293 HD
ENDBRANCH  12  29
BRANCH   1  31
ATOM     31  C   UNL     1      -1.433  -0.534   0.013  0.00  0.00    +0.113 C 
BRANCH  31  33
ATOM     32  C   UNL     1      -0.019   1.526   0.010  0.00  0.00    +0.005 C 
ATOM     33  C   UNL     1       0.002  -0.004   0.002  0.00  0.00    +0.016 C 
ENDBRANCH  31  33
ENDBRANCH   1  31
TORSDOF 5
