REMARK  Name = ZINC04087986
REMARK  9 active torsions:
REMARK  status: ('A' for Active; 'I' for Inactive)
REMARK    1  A    between atoms: C_1  and  C_2
REMARK    2  A    between atoms: C_7  and  C_33
REMARK    3  A    between atoms: C_20  and  C_22
REMARK    4  A    between atoms: C_22  and  N_61
REMARK    5  A    between atoms: C_23  and  C_24
REMARK    6  A    between atoms: C_23  and  N_61
REMARK    7  A    between atoms: C_24  and  C_25
REMARK    8  A    between atoms: C_28  and  O_31
REMARK    9  A    between atoms: O_31  and  C_32
REMARK                            x       y       z     vdW  Elec       q    Type
REMARK                         _______ _______ _______ _____ _____    ______ ____
ROOT
ATOM      1  C   UNL     1      -2.191  -9.300   4.168  0.00  0.00    +0.010 C 
ATOM      2  C   UNL     1      -1.326  -8.556   5.187  0.00  0.00    +0.021 C 
ATOM      3  C   UNL     1      -0.567  -9.564   6.012  0.00  0.00    +0.006 C 
ATOM      4  C   UNL     1       0.699  -8.957   6.613  0.00  0.00    +0.001 C 
ATOM      5  C   UNL     1       1.622  -8.576   5.457  0.00  0.00    +0.010 C 
ATOM      6  C   UNL     1       1.015  -7.466   4.633  0.00  0.00    +0.003 C 
ATOM      7  C   UNL     1      -0.489  -7.531   4.438  0.00  0.00    +0.104 C 
ATOM      8  C   UNL     1      -1.197  -6.216   4.096  0.00  0.00    +0.159 C 
ATOM      9  O   UNL     1      -0.958  -7.218   3.108  0.00  0.00    -0.363 OA
ATOM     10  C   UNL     1      -0.457  -4.902   3.978  0.00  0.00    +0.073 C 
ATOM     11  C   UNL     1       1.050  -5.012   4.229  0.00  0.00    +0.183 C 
ATOM     12  C   UNL     1       1.384  -6.106   5.229  0.00  0.00    +0.054 C 
ATOM     13  O   UNL     1       1.624  -5.314   2.924  0.00  0.00    -0.461 OA
ATOM     14  C   UNL     1       0.883  -4.730   1.964  0.00  0.00    +0.309 C 
ATOM     15  O   UNL     1       1.262  -4.483   0.844  0.00  0.00    -0.251 OA
ATOM     16  C   UNL     1      -0.500  -4.430   2.503  0.00  0.00    +0.090 C 
ATOM     17  C   UNL     1       1.653  -7.533   3.244  0.00  0.00    +0.014 C 
ENDROOT
BRANCH  16  18
ATOM     18  C   UNL     1      -0.787  -2.929   2.431  0.00  0.00    -0.067 C 
BRANCH  18  19
ATOM     19  N   UNL     1      -0.900  -2.526   1.017  0.00  0.00    +0.380 N 
ATOM     20  H   UNL     1      -1.666  -3.048   0.576  0.00  0.00    -0.086 HD
ATOM     21  H   UNL     1      -0.020  -2.736   0.533  0.00  0.00    -0.086 HD
BRANCH  19  22
ATOM     22  C   UNL     1      -1.177  -1.080   0.917  0.00  0.00    -0.078 C 
BRANCH  22  23
ATOM     23  C   UNL     1      -1.290  -0.692  -0.559  0.00  0.00    +0.016 C 
BRANCH  23  24
ATOM     24  C   UNL     1      -1.573   0.784  -0.669  0.00  0.00    -0.049 A 
ATOM     25  C   UNL     1      -2.879   1.237  -0.695  0.00  0.00    +0.007 A 
ATOM     26  C   UNL     1      -3.141   2.590  -0.791  0.00  0.00    +0.046 A 
ATOM     27  C   UNL     1      -2.092   3.494  -0.873  0.00  0.00    +0.120 A 
ATOM     28  C   UNL     1      -0.782   3.037  -0.853  0.00  0.00    +0.046 A 
ATOM     29  C   UNL     1      -0.525   1.683  -0.751  0.00  0.00    +0.007 A 
BRANCH  27  30
ATOM     30  O   UNL     1      -2.347   4.825  -0.972  0.00  0.00    -0.495 OA
ATOM     31  C   UNL     1      -3.719   5.223  -0.987  0.00  0.00    +0.277 C 
ENDBRANCH  27  30
ENDBRANCH  23  24
ENDBRANCH  22  23
ENDBRANCH  19  22
ENDBRANCH  18  19
ENDBRANCH  16  18
TORSDOF 6
