REMARK  Name = ZINC65567636
REMARK  7 active torsions:
REMARK  status: ('A' for Active; 'I' for Inactive)
REMARK    1  A    between atoms: C_1  and  C_2
REMARK    2  A    between atoms: C_4  and  C_27
REMARK    3  A    between atoms: C_12  and  C_14
REMARK    4  A    between atoms: N_16  and  C_17
REMARK    5  A    between atoms: C_17  and  C_18
REMARK    6  A    between atoms: C_17  and  C_19
REMARK    7  A    between atoms: C_19  and  C_20
REMARK                            x       y       z     vdW  Elec       q    Type
REMARK                         _______ _______ _______ _____ _____    ______ ____
ROOT
ATOM      1  C   UNL     1      -0.050   1.542   0.020  0.00  0.00    +0.028 C 
ATOM      2  C   UNL     1       0.002   0.013   0.008  0.00  0.00    +0.080 C 
ATOM      3  C   UNL     1       0.780  -0.470  -1.223  0.00  0.00    +0.040 C 
ATOM      4  C   UNL     1       2.171   0.164  -1.209  0.00  0.00    +0.108 C 
ATOM      5  C   UNL     1       2.836  -0.054   0.124  0.00  0.00    -0.014 A 
ATOM      6  C   UNL     1       4.215   0.047   0.210  0.00  0.00    +0.006 A 
ATOM      7  C   UNL     1       4.854  -0.145   1.419  0.00  0.00    +0.000 A 
ATOM      8  C   UNL     1       4.121  -0.440   2.554  0.00  0.00    +0.002 A 
ATOM      9  C   UNL     1       2.747  -0.543   2.478  0.00  0.00    +0.024 A 
ATOM     10  C   UNL     1       2.100  -0.352   1.261  0.00  0.00    +0.041 A 
ATOM     11  N   UNL     1       0.707  -0.470   1.203  0.00  0.00    -0.261 N 
ATOM     12  C   UNL     1       0.023  -1.018   2.227  0.00  0.00    +0.306 C 
ATOM     13  O   UNL     1       0.607  -1.355   3.236  0.00  0.00    -0.265 OA
ENDROOT
BRANCH   4  14
ATOM     14  C   UNL     1       3.013  -0.458  -2.293  0.00  0.00    +0.218 C 
ATOM     15  O   UNL     1       2.879  -1.632  -2.567  0.00  0.00    -0.275 OA
ATOM     16  N   UNL     1       3.913   0.291  -2.959  0.00  0.00    -0.329 N 
ATOM     17  H   UNL     1       3.970   1.245  -2.792  0.00  0.00    +0.145 HD
ATOM     18  H   UNL     1       4.506  -0.124  -3.606  0.00  0.00    +0.145 HD
ENDBRANCH   4  14
BRANCH  12  19
ATOM     19  C   UNL     1      -1.454  -1.209   2.121  0.00  0.00    +0.300 C 
ATOM     20  O   UNL     1      -2.023  -0.976   1.074  0.00  0.00    -0.265 OA
ATOM     21  N   UNL     1      -2.157  -1.641   3.187  0.00  0.00    -0.305 N 
ATOM     22  H   UNL     1      -1.703  -1.827   4.024  0.00  0.00    +0.149 HD
BRANCH  21  23
ATOM     23  C   UNL     1      -3.606  -1.828   3.083  0.00  0.00    +0.075 C 
ATOM     24  C   UNL     1      -3.900  -3.217   2.511  0.00  0.00    +0.028 C 
BRANCH  23  25
ATOM     25  C   UNL     1      -4.238  -1.703   4.471  0.00  0.00    +0.060 C 
BRANCH  25  26
ATOM     26  C   UNL     1      -4.054  -0.297   4.981  0.00  0.00    -0.010 A 
ATOM     27  C   UNL     1      -2.981   0.006   5.799  0.00  0.00    +0.006 A 
ATOM     28  C   UNL     1      -2.812   1.296   6.268  0.00  0.00    +0.000 A 
ATOM     29  C   UNL     1      -3.715   2.283   5.919  0.00  0.00    +0.003 A 
ATOM     30  C   UNL     1      -4.788   1.982   5.102  0.00  0.00    +0.038 A 
ATOM     31  C   UNL     1      -4.955   0.692   4.628  0.00  0.00    +0.127 A 
ATOM     32  F   UNL     1      -6.001   0.397   3.825  0.00  0.00    -0.205 F 
ENDBRANCH  25  26
ENDBRANCH  23  25
ENDBRANCH  21  23
ENDBRANCH  12  19
TORSDOF 5
