REMARK  Name = ZINC63513982
REMARK  10 active torsions:
REMARK  status: ('A' for Active; 'I' for Inactive)
REMARK    1  A    between atoms: C_1  and  C_2
REMARK    2  A    between atoms: C_6  and  C_37
REMARK    3  A    between atoms: C_7  and  N_8
REMARK    4  A    between atoms: C_9  and  C_14
REMARK    5  A    between atoms: C_14  and  C_16
REMARK    6  A    between atoms: C_14  and  N_23
REMARK    7  A    between atoms: N_23  and  C_24
REMARK    8  A    between atoms: C_24  and  C_25
REMARK    9  A    between atoms: C_25  and  C_26
REMARK   10  A    between atoms: C_34  and  C_36
REMARK                            x       y       z     vdW  Elec       q    Type
REMARK                         _______ _______ _______ _____ _____    ______ ____
ROOT
ATOM      1  C   UNL     1       1.810   2.272   1.634  0.00  0.00    +0.001 C 
ENDROOT
BRANCH   1   2
ATOM      2  C   UNL     1       0.607   3.160   1.443  0.00  0.00    -0.058 A 
ATOM      3  C   UNL     1       0.384   4.216   2.307  0.00  0.00    +0.003 A 
ATOM      4  C   UNL     1      -0.718   5.031   2.132  0.00  0.00    +0.020 A 
ATOM      5  C   UNL     1      -1.598   4.790   1.092  0.00  0.00    +0.041 A 
ATOM      6  C   UNL     1      -1.374   3.733   0.228  0.00  0.00    +0.020 A 
ATOM      7  C   UNL     1      -0.269   2.922   0.400  0.00  0.00    +0.003 A 
ATOM      8 CL   UNL     1      -2.983   5.813   0.872  0.00  0.00    -0.084 Cl
ENDBRANCH   1   2
BRANCH   1  10
ATOM      9  N   UNL     1       0.565   0.591   2.955  0.00  0.00    -0.184 N 
ATOM     10  C   UNL     1       1.695   1.540   2.973  0.00  0.00    +0.191 C 
ATOM     11  N   UNL     1       1.323   2.474   4.053  0.00  0.00    -0.229 N 
ATOM     12  N   UNL     1       0.091   2.023   4.541  0.00  0.00    -0.063 NA
ATOM     13  N   UNL     1      -0.315   1.025   3.954  0.00  0.00    -0.056 NA
ATOM     14  H   UNL     1       1.829   3.242   4.361  0.00  0.00    +0.172 HD
BRANCH   9  21
ATOM     15  C   UNL     1       2.429  -1.548   3.167  0.00  0.00    +0.046 C 
ATOM     16  C   UNL     1       1.291  -1.576   2.180  0.00  0.00    -0.027 A 
ATOM     17  C   UNL     1       1.125  -2.665   1.347  0.00  0.00    +0.005 A 
ATOM     18  C   UNL     1       0.081  -2.691   0.441  0.00  0.00    +0.001 A 
ATOM     19  C   UNL     1      -0.800  -1.628   0.364  0.00  0.00    +0.005 A 
ATOM     20  C   UNL     1      -0.641  -0.536   1.194  0.00  0.00    -0.027 A 
ATOM     21  C   UNL     1       0.404  -0.508   2.111  0.00  0.00    +0.061 A 
ATOM     22  C   UNL     1      -1.601   0.623   1.110  0.00  0.00    +0.046 C 
ENDBRANCH   9  21
ENDBRANCH   1  10
BRANCH   1  23
ATOM     23  N   UNL     1       3.030   3.090   1.626  0.00  0.00    +0.386 N 
ATOM     24  H   UNL     1       2.951   3.817   2.322  0.00  0.00    -0.085 HD
ATOM     25  H   UNL     1       3.826   2.508   1.836  0.00  0.00    -0.085 HD
BRANCH  23  26
ATOM     26  C   UNL     1       3.203   3.698   0.300  0.00  0.00    -0.077 C 
BRANCH  26  27
ATOM     27  C   UNL     1       4.473   4.550   0.292  0.00  0.00    +0.014 C 
BRANCH  27  28
ATOM     28  C   UNL     1       4.651   5.174  -1.068  0.00  0.00    -0.041 C 
ATOM     29  C   UNL     1       3.837   5.035  -2.139  0.00  0.00    -0.001 A 
ATOM     30  C   UNL     1       2.591   4.289  -2.351  0.00  0.00    +0.010 A 
ATOM     31  C   UNL     1       1.991   4.343  -3.562  0.00  0.00    +0.001 A 
ATOM     32  C   UNL     1       2.529   5.091  -4.618  0.00  0.00    +0.002 A 
ATOM     33  C   UNL     1       3.670   5.803  -4.500  0.00  0.00    +0.026 A 
ATOM     34  C   UNL     1       4.384   5.818  -3.270  0.00  0.00    +0.043 A 
ATOM     35  N   UNL     1       5.493   6.418  -2.912  0.00  0.00    -0.378 N 
ATOM     36  C   UNL     1       5.772   6.088  -1.510  0.00  0.00    +0.103 C 
ATOM     37  C   UNL     1       7.116   5.365  -1.399  0.00  0.00    +0.035 C 
ATOM     38  H   UNL     1       6.037   6.988  -3.478  0.00  0.00    +0.160 HD
ENDBRANCH  27  28
ENDBRANCH  26  27
ENDBRANCH  23  26
ENDBRANCH   1  23
TORSDOF 7
