REMARK  Name = ZINC40733477
REMARK  10 active torsions:
REMARK  status: ('A' for Active; 'I' for Inactive)
REMARK    1  A    between atoms: C_1  and  C_2
REMARK    2  A    between atoms: C_2  and  C_3
REMARK    3  A    between atoms: C_4  and  C_21
REMARK    4  A    between atoms: N_6  and  C_9
REMARK    5  A    between atoms: C_7  and  C_8
REMARK    6  A    between atoms: C_14  and  C_15
REMARK    7  A    between atoms: C_15  and  N_16
REMARK    8  A    between atoms: N_16  and  C_17
REMARK    9  A    between atoms: C_17  and  C_18
REMARK   10  A    between atoms: C_17  and  C_19
REMARK                            x       y       z     vdW  Elec       q    Type
REMARK                         _______ _______ _______ _____ _____    ______ ____
ROOT
ATOM      1  C   UNL     1       3.491  -1.500  -3.202  0.00  0.00    +0.068 A 
ATOM      2  C   UNL     1       4.657  -1.366  -2.459  0.00  0.00    +0.043 A 
ATOM      3  C   UNL     1       5.873  -1.714  -3.016  0.00  0.00    +0.020 A 
ATOM      4  C   UNL     1       5.929  -2.195  -4.312  0.00  0.00    +0.015 A 
ATOM      5  C   UNL     1       4.770  -2.330  -5.053  0.00  0.00    +0.005 A 
ATOM      6  C   UNL     1       3.551  -1.990  -4.500  0.00  0.00    -0.039 A 
ATOM      7 BR   UNL     1       7.461  -1.531  -2.006  0.00  0.00    -0.050 Br
ENDROOT
BRANCH   1  11
ATOM      8  C   UNL     1       0.678  -0.040  -1.614  0.00  0.00    -0.004 A 
ATOM      9  C   UNL     1       0.152  -1.270  -2.023  0.00  0.00    +0.064 A 
ATOM     10  N   UNL     1       1.097  -1.935  -2.639  0.00  0.00    -0.171 NA
ATOM     11  N   UNL     1       2.256  -1.148  -2.641  0.00  0.00    -0.236 N 
ATOM     12  C   UNL     1       1.971   0.014  -2.010  0.00  0.00    +0.045 A 
ATOM     13  C   UNL     1       2.922   1.161  -1.787  0.00  0.00    +0.066 C 
ATOM     14  C   UNL     1      -1.258  -1.748  -1.795  0.00  0.00    +0.068 C 
BRANCH   8  16
ATOM     15  C   UNL     1      -0.727   1.988  -1.871  0.00  0.00    +0.009 C 
ATOM     16  C   UNL     1      -0.066   1.038  -0.869  0.00  0.00    +0.035 C 
ENDBRANCH   8  16
ENDBRANCH   1  11
BRANCH   6  17
ATOM     17  C   UNL     1       2.288  -2.143  -5.307  0.00  0.00    -0.044 C 
BRANCH  17  18
ATOM     18  N   UNL     1       1.896  -0.838  -5.856  0.00  0.00    +0.383 N 
ATOM     19  H   UNL     1       1.735  -0.190  -5.100  0.00  0.00    -0.085 HD
ATOM     20  H   UNL     1       2.633  -0.488  -6.449  0.00  0.00    -0.085 HD
BRANCH  18  21
ATOM     21  C   UNL     1       0.664  -0.988  -6.643  0.00  0.00    -0.078 C 
ATOM     22  C   UNL     1       0.187   0.388  -7.111  0.00  0.00    -0.014 C 
ATOM     23  C   UNL     1       0.941  -1.873  -7.860  0.00  0.00    -0.014 C 
ENDBRANCH  18  21
ENDBRANCH  17  18
ENDBRANCH   6  17
TORSDOF 5
