REMARK  Name = ZINC09074883
REMARK  7 active torsions:
REMARK  status: ('A' for Active; 'I' for Inactive)
REMARK    1  A    between atoms: C_1  and  C_2
REMARK    2  A    between atoms: C_2  and  C_4
REMARK    3  A    between atoms: C_2  and  O_16
REMARK    4  A    between atoms: N_6  and  C_7
REMARK    5  A    between atoms: C_10  and  N_13
REMARK    6  A    between atoms: O_16  and  C_17
REMARK    7  A    between atoms: C_17  and  C_19
REMARK                            x       y       z     vdW  Elec       q    Type
REMARK                         _______ _______ _______ _____ _____    ______ ____
ROOT
ATOM      1  C   UNL     1       1.416   2.748   1.324  0.00  0.00    +0.062 C 
ATOM      2  C   UNL     1       1.280   1.980   0.007  0.00  0.00    +0.259 C 
ENDROOT
BRANCH   2   3
ATOM      3  C   UNL     1      -0.014   1.209   0.007  0.00  0.00    +0.258 C 
ATOM      4  O   UNL     1       0.002  -0.004  -0.008  0.00  0.00    -0.271 OA
ATOM      5  N   UNL     1      -1.191   1.867   0.018  0.00  0.00    -0.282 N 
ATOM      6  H   UNL     1      -1.205   2.833   0.098  0.00  0.00    +0.155 HD
BRANCH   5   7
ATOM      7  C   UNL     1      -2.391   1.155  -0.086  0.00  0.00    +0.034 A 
ATOM      8  C   UNL     1      -3.468   1.704  -0.769  0.00  0.00    +0.025 A 
ATOM      9  C   UNL     1      -4.650   0.997  -0.874  0.00  0.00    +0.034 A 
ATOM     10  C   UNL     1      -4.765  -0.251  -0.290  0.00  0.00    +0.126 A 
ATOM     11  C   UNL     1      -3.696  -0.798   0.395  0.00  0.00    +0.034 A 
ATOM     12  C   UNL     1      -2.510  -0.099   0.499  0.00  0.00    +0.025 A 
BRANCH  10  13
ATOM     13  N   UNL     1      -6.035  -1.003  -0.399  0.00  0.00    +0.056 N 
ATOM     14  O   UNL     1      -6.138  -2.103   0.114  0.00  0.00    -0.126 OA
ATOM     15  O   UNL     1      -6.978  -0.523  -1.003  0.00  0.00    -0.126 OA
ENDBRANCH  10  13
ENDBRANCH   5   7
ENDBRANCH   2   3
BRANCH   2  16
ATOM     16  O   UNL     1       2.393   1.058  -0.131  0.00  0.00    -0.449 OA
BRANCH  16  17
ATOM     17  C   UNL     1       3.497   1.520  -0.752  0.00  0.00    +0.340 C 
ATOM     18  O   UNL     1       3.529   2.662  -1.165  0.00  0.00    -0.245 OA
BRANCH  17  19
ATOM     19  C   UNL     1       4.665   0.640  -0.928  0.00  0.00    +0.061 A 
ATOM     20  C   UNL     1       4.630  -0.673  -0.447  0.00  0.00    +0.016 A 
ATOM     21  C   UNL     1       5.721  -1.495  -0.620  0.00  0.00    +0.017 A 
ATOM     22  C   UNL     1       6.857  -1.018  -1.260  0.00  0.00    +0.030 A 
ATOM     23  C   UNL     1       6.910   0.296  -1.740  0.00  0.00    +0.048 A 
ATOM     24  C   UNL     1       5.809   1.120  -1.571  0.00  0.00    +0.039 A 
ATOM     25  N   UNL     1       8.044   0.793  -2.377  0.00  0.00    -0.284 N 
ATOM     26  C   UNL     1       8.996   0.074  -2.965  0.00  0.00    +0.227 C 
ATOM     27  O   UNL     1       9.919   0.663  -3.487  0.00  0.00    -0.275 OA
ATOM     28  C   UNL     1       8.991  -1.429  -3.019  0.00  0.00    +0.170 C 
ATOM     29  S   UNL     1       8.259  -2.068  -1.482  0.00  0.00    -0.114 S 
ATOM     30  H   UNL     1       8.151   1.757  -2.393  0.00  0.00    +0.155 HD
ENDBRANCH  17  19
ENDBRANCH  16  17
ENDBRANCH   2  16
TORSDOF 6
