REMARK  Name = ZINC44169606
REMARK  6 active torsions:
REMARK  status: ('A' for Active; 'I' for Inactive)
REMARK    1  A    between atoms: C_4  and  C_7
REMARK    2  A    between atoms: C_7  and  C_8
REMARK    3  A    between atoms: C_7  and  C_31
REMARK    4  A    between atoms: C_8  and  N_9
REMARK    5  A    between atoms: C_10  and  C_12
REMARK    6  A    between atoms: C_17  and  C_20
REMARK                            x       y       z     vdW  Elec       q    Type
REMARK                         _______ _______ _______ _____ _____    ______ ____
ROOT
ATOM      1  C   UNL     1       6.485  -3.097   1.594  0.00  0.00    +0.027 C 
ATOM      2  C   UNL     1       6.580  -3.747   0.208  0.00  0.00    +0.062 C 
ATOM      3  S   UNL     1       5.382  -5.114   0.135  0.00  0.00    -0.163 S 
ATOM      4  C   UNL     1       5.740  -6.040   1.660  0.00  0.00    +0.058 C 
ATOM      5  C   UNL     1       5.770  -5.048   2.829  0.00  0.00    -0.030 C 
ATOM      6  N   UNL     1       6.842  -4.074   2.625  0.00  0.00    +0.392 N 
ATOM      7  H   UNL     1       7.681  -4.559   2.344  0.00  0.00    -0.084 HD
ATOM      8  H   UNL     1       7.016  -3.590   3.493  0.00  0.00    -0.084 HD
ENDROOT
BRANCH   5   9
ATOM      9  C   UNL     1       6.012  -5.795   4.115  0.00  0.00    -0.057 A 
ATOM     10  C   UNL     1       7.295  -6.179   4.458  0.00  0.00    +0.006 A 
ATOM     11  C   UNL     1       7.525  -6.866   5.637  0.00  0.00    +0.049 A 
ATOM     12  C   UNL     1       6.463  -7.167   6.473  0.00  0.00    +0.162 A 
ATOM     13  C   UNL     1       5.176  -6.781   6.130  0.00  0.00    +0.162 A 
ATOM     14  C   UNL     1       4.950  -6.090   4.951  0.00  0.00    +0.051 A 
ATOM     15  O   UNL     1       4.137  -7.082   6.962  0.00  0.00    -0.488 OA
ATOM     16  C   UNL     1       3.805  -8.468   7.072  0.00  0.00    +0.232 C 
ATOM     17  C   UNL     1       4.686  -9.152   8.106  0.00  0.00    +0.082 C 
ATOM     18  C   UNL     1       6.151  -9.170   7.698  0.00  0.00    +0.232 C 
ATOM     19  O   UNL     1       6.676  -7.842   7.640  0.00  0.00    -0.488 OA
ENDBRANCH   5   9
BRANCH   1  21
ATOM     20  N   UNL     1       4.616  -2.457   3.083  0.00  0.00    -0.316 N 
ATOM     21  C   UNL     1       5.075  -2.618   1.826  0.00  0.00    +0.200 C 
ATOM     22  O   UNL     1       4.353  -2.377   0.881  0.00  0.00    -0.278 OA
ATOM     23  H   UNL     1       5.193  -2.650   3.838  0.00  0.00    +0.149 HD
BRANCH  20  24
ATOM     24  C   UNL     1       3.245  -1.991   3.308  0.00  0.00    +0.117 C 
BRANCH  24  25
ATOM     25  C   UNL     1       2.980  -1.895   4.812  0.00  0.00    +0.066 C 
BRANCH  25  29
ATOM     26  C   UNL     1      -1.114  -0.873   5.476  0.00  0.00    +0.000 A 
ATOM     27  C   UNL     1      -0.573  -1.990   6.084  0.00  0.00    +0.000 A 
ATOM     28  C   UNL     1       0.752  -2.321   5.869  0.00  0.00    +0.004 A 
ATOM     29  C   UNL     1       1.536  -1.535   5.045  0.00  0.00    -0.038 A 
ATOM     30  C   UNL     1       0.995  -0.418   4.436  0.00  0.00    +0.004 A 
ATOM     31  C   UNL     1      -0.330  -0.086   4.652  0.00  0.00    +0.000 A 
ENDBRANCH  25  29
BRANCH  25  32
ATOM     32  C   UNL     1       3.866  -0.834   5.412  0.00  0.00    -0.038 A 
ATOM     33  C   UNL     1       3.891   0.435   4.865  0.00  0.00    +0.004 A 
ATOM     34  C   UNL     1       4.703   1.409   5.415  0.00  0.00    +0.000 A 
ATOM     35  C   UNL     1       5.491   1.113   6.512  0.00  0.00    +0.000 A 
ATOM     36  C   UNL     1       5.465  -0.156   7.060  0.00  0.00    +0.000 A 
ATOM     37  C   UNL     1       4.649  -1.128   6.512  0.00  0.00    +0.004 A 
ENDBRANCH  25  32
ENDBRANCH  24  25
ENDBRANCH  20  24
ENDBRANCH   1  21
TORSDOF 6
