REMARK  Name = ZINC59006329
REMARK  6 active torsions:
REMARK  status: ('A' for Active; 'I' for Inactive)
REMARK    1  A    between atoms: C_7  and  C_11
REMARK    2  A    between atoms: N_12  and  N_13
REMARK    3  A    between atoms: C_16  and  S_19
REMARK    4  A    between atoms: S_19  and  C_20
REMARK    5  A    between atoms: C_20  and  C_21
REMARK    6  A    between atoms: C_21  and  C_23
REMARK                            x       y       z     vdW  Elec       q    Type
REMARK                         _______ _______ _______ _____ _____    ______ ____
ROOT
ATOM      1  N   UNL     1      -1.479  -4.112   0.748  0.00  0.00    -0.205 N 
ATOM      2  C   UNL     1      -2.845  -3.918   0.663  0.00  0.00    +0.232 A 
ATOM      3  N   UNL     1      -3.453  -2.767   0.464  0.00  0.00    -0.186 NA
ATOM      4  C   UNL     1      -4.777  -2.956   0.439  0.00  0.00    +0.210 A 
ATOM      5  N   UNL     1      -5.029  -4.230   0.621  0.00  0.00    -0.144 NA
ATOM      6  N   UNL     1      -3.791  -4.877   0.763  0.00  0.00    -0.245 N 
ATOM      7  H   UNL     1      -1.124  -5.002   0.892  0.00  0.00    +0.177 HD
ATOM      8  H   UNL     1      -3.643  -5.825   0.907  0.00  0.00    +0.192 HD
ENDROOT
BRANCH   1  10
ATOM      9  C   UNL     1       0.675  -3.203   0.706  0.00  0.00    +0.140 C 
ATOM     10  N   UNL     1      -0.608  -3.021   0.626  0.00  0.00    -0.187 NA
BRANCH   9  17
ATOM     11  C   UNL     1      -0.018   1.367   0.011  0.00  0.00    +0.001 A 
ATOM     12  C   UNL     1       1.169   2.084  -0.043  0.00  0.00    +0.002 A 
ATOM     13  C   UNL     1       2.382   1.447   0.101  0.00  0.00    +0.026 A 
ATOM     14  C   UNL     1       2.419   0.070   0.302  0.00  0.00    +0.047 A 
ATOM     15  C   UNL     1       1.214  -0.649   0.356  0.00  0.00    +0.008 A 
ATOM     16  C   UNL     1      -0.002   0.015   0.208  0.00  0.00    +0.010 A 
ATOM     17  C   UNL     1       1.591  -2.057   0.577  0.00  0.00    +0.020 A 
ATOM     18  C   UNL     1       2.949  -2.090   0.639  0.00  0.00    +0.093 A 
ATOM     19  N   UNL     1       3.448  -0.831   0.476  0.00  0.00    -0.360 N 
ATOM     20  H   UNL     1       4.390  -0.603   0.483  0.00  0.00    +0.165 HD
ENDBRANCH   9  17
ENDBRANCH   1  10
BRANCH   4  21
ATOM     21  S   UNL     1      -5.986  -1.697   0.200  0.00  0.00    -0.077 S 
BRANCH  21  22
ATOM     22  C   UNL     1      -7.565  -2.587   0.270  0.00  0.00    +0.152 C 
BRANCH  22  23
ATOM     23  C   UNL     1      -8.699  -1.613   0.077  0.00  0.00    +0.147 C 
ATOM     24  O   UNL     1      -8.466  -0.440  -0.090  0.00  0.00    -0.296 OA
BRANCH  23  25
ATOM     25  C   UNL     1     -10.124  -2.103   0.093  0.00  0.00    +0.062 C 
ATOM     26  C   UNL     1     -10.423  -2.845  -1.212  0.00  0.00    +0.000 C 
ATOM     27  C   UNL     1     -11.869  -3.343  -1.196  0.00  0.00    +0.007 C 
ATOM     28  C   UNL     1     -12.818  -2.150  -1.059  0.00  0.00    -0.010 C 
ATOM     29  C   UNL     1     -12.618  -1.201  -2.242  0.00  0.00    +0.007 C 
ATOM     30  C   UNL     1     -11.171  -0.703  -2.258  0.00  0.00    -0.010 C 
ATOM     31  C   UNL     1     -10.223  -1.896  -2.395  0.00  0.00    +0.007 C 
ATOM     32  C   UNL     1     -10.873   0.038  -0.954  0.00  0.00    +0.007 C 
ATOM     33  C   UNL     1     -11.072  -0.911   0.230  0.00  0.00    +0.000 C 
ATOM     34  C   UNL     1     -12.519  -1.408   0.246  0.00  0.00    +0.007 C 
ENDBRANCH  23  25
ENDBRANCH  22  23
ENDBRANCH  21  22
ENDBRANCH   4  21
TORSDOF 6
