REMARK  Name = ZINC03896148
REMARK  5 active torsions:
REMARK  status: ('A' for Active; 'I' for Inactive)
REMARK    1  A    between atoms: C_1  and  C_2
REMARK    2  A    between atoms: C_2  and  C_23
REMARK    3  A    between atoms: C_6  and  C_12
REMARK    4  A    between atoms: C_17  and  O_18
REMARK    5  A    between atoms: O_18  and  C_19
REMARK                            x       y       z     vdW  Elec       q    Type
REMARK                         _______ _______ _______ _____ _____    ______ ____
ROOT
ATOM      1  C   UNL     1      -0.029   1.478  -0.045  0.00  0.00    +0.011 C 
ATOM      2  C   UNL     1       0.009  -0.052  -0.073  0.00  0.00    -0.023 C 
ATOM      3  C   UNL     1       0.764  -0.523  -1.318  0.00  0.00    +0.058 C 
ATOM      4  C   UNL     1       2.186  -0.021  -1.267  0.00  0.00    +0.019 C 
ATOM      5  C   UNL     1       2.805   0.164  -0.079  0.00  0.00    +0.037 C 
ATOM      6  C   UNL     1       4.234   0.665  -0.086  0.00  0.00    +0.141 C 
ATOM      7  N   UNL     1       4.844   0.917  -1.403  0.00  0.00    -0.315 N 
ATOM      8  C   UNL     1       4.100   0.689  -2.504  0.00  0.00    +0.135 C 
ATOM      9  S   UNL     1       4.792   0.978  -4.043  0.00  0.00    -0.019 S 
ATOM     10  N   UNL     1       2.841   0.244  -2.437  0.00  0.00    -0.300 N 
ATOM     11  C   UNL     1       2.164  -0.089   1.139  0.00  0.00    +0.163 C 
ATOM     12  O   UNL     1       2.765   0.081   2.181  0.00  0.00    -0.292 OA
ATOM     13  C   UNL     1       0.736  -0.570   1.172  0.00  0.00    +0.086 C 
ATOM     14  C   UNL     1      -1.419  -0.600  -0.099  0.00  0.00    +0.011 C 
ATOM     15  H   UNL     1       5.756   1.239  -1.477  0.00  0.00    +0.149 HD
ATOM     16  H   UNL     1       2.363   0.101  -3.269  0.00  0.00    +0.154 HD
ENDROOT
BRANCH   6  17
ATOM     17  C   UNL     1       5.086  -0.348   0.633  0.00  0.00    +0.019 A 
ATOM     18  C   UNL     1       5.562  -0.075   1.901  0.00  0.00    +0.009 A 
ATOM     19  C   UNL     1       6.345  -1.005   2.562  0.00  0.00    +0.001 A 
ATOM     20  C   UNL     1       6.652  -2.209   1.956  0.00  0.00    +0.004 A 
ATOM     21  C   UNL     1       6.178  -2.487   0.689  0.00  0.00    +0.046 A 
ATOM     22  C   UNL     1       5.388  -1.558   0.026  0.00  0.00    +0.125 A 
BRANCH  22  23
ATOM     23  O   UNL     1       4.916  -1.831  -1.219  0.00  0.00    -0.495 OA
ATOM     24  C   UNL     1       5.266  -3.096  -1.783  0.00  0.00    +0.277 C 
ENDBRANCH  22  23
ENDBRANCH   6  17
TORSDOF 2
