REMARK  Name = ZINC59290421
REMARK  7 active torsions:
REMARK  status: ('A' for Active; 'I' for Inactive)
REMARK    1  A    between atoms: C_4  and  C_7
REMARK    2  A    between atoms: C_7  and  C_9
REMARK    3  A    between atoms: C_7  and  N_12
REMARK    4  A    between atoms: C_13  and  C_15
REMARK    5  A    between atoms: C_15  and  C_16
REMARK    6  A    between atoms: C_19  and  N_22
REMARK    7  A    between atoms: C_23  and  C_25
REMARK                            x       y       z     vdW  Elec       q    Type
REMARK                         _______ _______ _______ _____ _____    ______ ____
ROOT
ATOM      1  C   UNL     1       4.675  -3.562   2.296  0.00  0.00    +0.130 C 
ENDROOT
BRANCH   1   2
ATOM      2  C   UNL     1       6.056  -3.938   2.769  0.00  0.00    -0.039 A 
ATOM      3  C   UNL     1       6.748  -4.956   2.139  0.00  0.00    +0.006 A 
ATOM      4  C   UNL     1       8.013  -5.303   2.570  0.00  0.00    +0.023 A 
ATOM      5  C   UNL     1       8.591  -4.627   3.637  0.00  0.00    +0.034 A 
ATOM      6  C   UNL     1       7.893  -3.605   4.268  0.00  0.00    +0.023 A 
ATOM      7  C   UNL     1       6.630  -3.260   3.828  0.00  0.00    +0.006 A 
BRANCH   5   8
ATOM      8  N   UNL     1       9.872  -4.976   4.077  0.00  0.00    -0.279 N 
ATOM      9  C   UNL     1      10.185  -4.881   5.384  0.00  0.00    +0.284 C 
ATOM     10  O   UNL     1       9.328  -4.583   6.195  0.00  0.00    -0.266 OA
ATOM     11  H   UNL     1      10.535  -5.287   3.440  0.00  0.00    +0.155 HD
BRANCH   9  12
ATOM     12  C   UNL     1      11.558  -5.135   5.829  0.00  0.00    +0.191 A 
ATOM     13  C   UNL     1      12.008  -5.078   7.117  0.00  0.00    +0.056 A 
ATOM     14  C   UNL     1      13.375  -5.389   7.082  0.00  0.00    +0.058 A 
ATOM     15  C   UNL     1      13.697  -5.620   5.788  0.00  0.00    +0.171 A 
ATOM     16  O   UNL     1      12.598  -5.471   5.037  0.00  0.00    -0.444 OA
ATOM     17 BR   UNL     1      15.415  -6.084   5.147  0.00  0.00    -0.008 Br
ENDBRANCH   9  12
ENDBRANCH   5   8
ENDBRANCH   1   2
BRANCH   1  19
ATOM     18  N   UNL     1       3.664  -2.007   0.659  0.00  0.00    -0.300 N 
ATOM     19  C   UNL     1       4.780  -2.500   1.232  0.00  0.00    +0.218 C 
ATOM     20  O   UNL     1       5.869  -2.089   0.891  0.00  0.00    -0.275 OA
ATOM     21  H   UNL     1       2.793  -2.337   0.931  0.00  0.00    +0.150 HD
BRANCH  18  22
ATOM     22  C   UNL     1       3.767  -0.975  -0.376  0.00  0.00    +0.189 C 
BRANCH  22  26
ATOM     23  C   UNL     1       0.147   1.291  -0.490  0.00  0.00    +0.000 A 
ATOM     24  C   UNL     1       1.366   1.928  -0.631  0.00  0.00    +0.000 A 
ATOM     25  C   UNL     1       2.537   1.194  -0.594  0.00  0.00    +0.006 A 
ATOM     26  C   UNL     1       2.490  -0.176  -0.415  0.00  0.00    -0.018 A 
ATOM     27  C   UNL     1       1.271  -0.812  -0.273  0.00  0.00    +0.006 A 
ATOM     28  C   UNL     1       0.100  -0.079  -0.312  0.00  0.00    +0.000 A 
ENDBRANCH  22  26
BRANCH  22  29
ATOM     29  C   UNL     1       3.993  -1.627  -1.715  0.00  0.00    +0.235 C 
ATOM     30  O   UNL     1       4.062  -2.835  -1.798  0.00  0.00    -0.274 OA
ATOM     31  N   UNL     1       4.119  -0.868  -2.822  0.00  0.00    -0.328 N 
ATOM     32  H   UNL     1       4.063   0.099  -2.756  0.00  0.00    +0.145 HD
ATOM     33  H   UNL     1       4.264  -1.287  -3.684  0.00  0.00    +0.145 HD
ENDBRANCH  22  29
ENDBRANCH  18  22
ENDBRANCH   1  19
TORSDOF 7
