REMARK  Name = ZINC01016734
REMARK  3 active torsions:
REMARK  status: ('A' for Active; 'I' for Inactive)
REMARK    1  A    between atoms: C_4  and  C_7
REMARK    2  A    between atoms: N_16  and  C_24
REMARK    3  A    between atoms: C_17  and  C_18
REMARK                            x       y       z     vdW  Elec       q    Type
REMARK                         _______ _______ _______ _____ _____    ______ ____
ROOT
ATOM      1  C   UNL     1      -1.074   3.873   1.993  0.00  0.00    +0.103 A 
ATOM      2  C   UNL     1      -1.742   3.027   1.002  0.00  0.00    +0.061 A 
ATOM      3  C   UNL     1      -3.104   3.390   0.579  0.00  0.00    +0.161 A 
ATOM      4  C   UNL     1      -3.701   4.586   1.187  0.00  0.00    +0.293 A 
ATOM      5  O   UNL     1      -4.825   4.941   0.880  0.00  0.00    -0.264 OA
ATOM      6  N   UNL     1      -2.984   5.285   2.090  0.00  0.00    -0.241 N 
ATOM      7  H   UNL     1      -3.394   6.098   2.502  0.00  0.00    +0.192 HD
ATOM      8  N   UNL     1      -1.695   4.921   2.474  0.00  0.00    -0.170 NA
ATOM      9  N   UNL     1      -3.470   2.488  -0.300  0.00  0.00    -0.160 NA
ATOM     10  N   UNL     1      -2.540   1.621  -0.492  0.00  0.00    -0.231 N 
ATOM     11  C   UNL     1      -1.445   1.883   0.280  0.00  0.00    +0.085 A 
ENDROOT
BRANCH   1  15
ATOM     12  C   UNL     1       2.860   2.936   3.301  0.00  0.00    +0.000 A 
ATOM     13  C   UNL     1       2.545   4.234   2.942  0.00  0.00    +0.001 A 
ATOM     14  C   UNL     1       1.269   4.544   2.516  0.00  0.00    +0.010 A 
ATOM     15  C   UNL     1       0.298   3.546   2.449  0.00  0.00    +0.003 A 
ATOM     16  C   UNL     1       0.621   2.240   2.817  0.00  0.00    +0.010 A 
ATOM     17  C   UNL     1       1.901   1.941   3.236  0.00  0.00    +0.001 A 
ENDBRANCH   1  15
BRANCH  11  18
ATOM     18  C   UNL     1      -0.191   1.106   0.330  0.00  0.00    +0.001 A 
ATOM     19  C   UNL     1       1.030   1.725   0.056  0.00  0.00    +0.010 A 
ATOM     20  C   UNL     1       2.197   0.991   0.100  0.00  0.00    +0.001 A 
ATOM     21  C   UNL     1       2.159  -0.356   0.412  0.00  0.00    +0.000 A 
ATOM     22  C   UNL     1       0.953  -0.977   0.684  0.00  0.00    +0.001 A 
ATOM     23  C   UNL     1      -0.222  -0.255   0.645  0.00  0.00    +0.010 A 
ENDBRANCH  11  18
BRANCH  10  24
ATOM     24  C   UNL     1      -2.639   0.543  -1.379  0.00  0.00    +0.066 A 
ATOM     25  C   UNL     1      -1.519   0.113  -2.079  0.00  0.00    +0.028 A 
ATOM     26  C   UNL     1      -1.619  -0.955  -2.950  0.00  0.00    +0.002 A 
ATOM     27  C   UNL     1      -2.835  -1.588  -3.132  0.00  0.00    +0.000 A 
ATOM     28  C   UNL     1      -3.952  -1.160  -2.440  0.00  0.00    +0.002 A 
ATOM     29  C   UNL     1      -3.858  -0.096  -1.564  0.00  0.00    +0.028 A 
ENDBRANCH  10  24
TORSDOF 3
