REMARK  Name = ZINC08962237
REMARK  6 active torsions:
REMARK  status: ('A' for Active; 'I' for Inactive)
REMARK    1  A    between atoms: C_1  and  C_2
REMARK    2  A    between atoms: C_2  and  C_3
REMARK    3  A    between atoms: C_10  and  N_16
REMARK    4  A    between atoms: N_16  and  S_17
REMARK    5  A    between atoms: S_17  and  C_20
REMARK    6  A    between atoms: C_20  and  C_21
REMARK                            x       y       z     vdW  Elec       q    Type
REMARK                         _______ _______ _______ _____ _____    ______ ____
ROOT
ATOM      1  C   UNL     1      -0.735   1.668   1.101  0.00  0.00    +0.110 C 
ATOM      2  C   UNL     1      -0.198   1.152   2.429  0.00  0.00    +0.251 C 
ATOM      3  O   UNL     1      -0.552  -0.209   2.644  0.00  0.00    -0.489 OA
ATOM      4  C   UNL     1      -0.404  -1.061   1.598  0.00  0.00    +0.133 A 
ATOM      5  C   UNL     1       0.631  -1.981   1.570  0.00  0.00    +0.048 A 
ATOM      6  C   UNL     1       0.771  -2.831   0.491  0.00  0.00    +0.028 A 
ATOM      7  C   UNL     1      -0.124  -2.773  -0.573  0.00  0.00    +0.049 A 
ATOM      8  C   UNL     1      -1.166  -1.860  -0.557  0.00  0.00    +0.041 A 
ATOM      9  C   UNL     1      -1.313  -1.000   0.530  0.00  0.00    +0.080 A 
ATOM     10  C   UNL     1      -2.413  -0.019   0.582  0.00  0.00    +0.248 C 
ATOM     11  O   UNL     1      -3.555  -0.356   0.333  0.00  0.00    -0.270 OA
ATOM     12  N   UNL     1      -2.129   1.264   0.912  0.00  0.00    -0.305 N 
ATOM     13  H   UNL     1      -2.844   1.909   1.022  0.00  0.00    +0.149 HD
ENDROOT
BRANCH   1  15
ATOM     14  C   UNL     1       1.524   1.689   0.034  0.00  0.00    +0.006 C 
ATOM     15  C   UNL     1       0.114   1.102  -0.040  0.00  0.00    +0.022 C 
ENDBRANCH   1  15
BRANCH   7  16
ATOM     16  N   UNL     1       0.029  -3.639  -1.661  0.00  0.00    -0.220 N 
ATOM     17  H   UNL     1       0.365  -3.301  -2.506  0.00  0.00    +0.173 HD
BRANCH  16  18
ATOM     18  S   UNL     1      -0.363  -5.240  -1.507  0.00  0.00    +0.047 S 
ATOM     19  O   UNL     1      -0.057  -5.812  -2.771  0.00  0.00    -0.155 OA
ATOM     20  O   UNL     1       0.315  -5.668  -0.334  0.00  0.00    -0.155 OA
BRANCH  18  21
ATOM     21  C   UNL     1      -2.156  -5.256  -1.232  0.00  0.00    +0.223 C 
BRANCH  21  22
ATOM     22  C   UNL     1      -2.647  -6.681  -1.199  0.00  0.00    -0.025 A 
ATOM     23  C   UNL     1      -3.059  -7.297  -2.366  0.00  0.00    +0.008 A 
ATOM     24  C   UNL     1      -3.504  -8.605  -2.337  0.00  0.00    +0.038 A 
ATOM     25  C   UNL     1      -3.548  -9.295  -1.137  0.00  0.00    +0.123 A 
ATOM     26  C   UNL     1      -3.140  -8.674   0.032  0.00  0.00    +0.038 A 
ATOM     27  C   UNL     1      -2.690  -7.368  -0.000  0.00  0.00    +0.008 A 
ATOM     28  F   UNL     1      -3.987 -10.572  -1.107  0.00  0.00    -0.205 F 
ENDBRANCH  21  22
ENDBRANCH  18  21
ENDBRANCH  16  18
ENDBRANCH   7  16
TORSDOF 5
