REMARK  Name = ZINC65963256
REMARK  7 active torsions:
REMARK  status: ('A' for Active; 'I' for Inactive)
REMARK    1  A    between atoms: C_4  and  C_7
REMARK    2  A    between atoms: C_7  and  C_8
REMARK    3  A    between atoms: C_7  and  N_11
REMARK    4  A    between atoms: C_12  and  C_14
REMARK    5  A    between atoms: C_14  and  N_15
REMARK    6  A    between atoms: C_18  and  N_21
REMARK    7  A    between atoms: C_22  and  C_24
REMARK                            x       y       z     vdW  Elec       q    Type
REMARK                         _______ _______ _______ _____ _____    ______ ____
ROOT
ATOM      1  N   UNL     1       6.016  -3.945   2.759  0.00  0.00    +0.385 N 
ATOM      2  C   UNL     1       6.825  -4.372   1.612  0.00  0.00    -0.076 C 
ATOM      3  C   UNL     1       8.253  -4.671   2.073  0.00  0.00    +0.003 C 
ATOM      4  C   UNL     1       8.222  -5.787   3.121  0.00  0.00    +0.069 C 
ATOM      5  C   UNL     1       7.315  -5.361   4.279  0.00  0.00    +0.003 C 
ATOM      6  C   UNL     1       5.922  -5.037   3.736  0.00  0.00    -0.076 C 
ATOM      7  H   UNL     1       6.447  -3.143   3.193  0.00  0.00    -0.081 HD
ENDROOT
BRANCH   4   8
ATOM      8  N   UNL     1       9.578  -6.026   3.623  0.00  0.00    -0.312 N 
ATOM      9  C   UNL     1       9.903  -7.228   4.138  0.00  0.00    +0.216 C 
ATOM     10  O   UNL     1       9.074  -8.112   4.187  0.00  0.00    -0.276 OA
ATOM     11  H   UNL     1      10.241  -5.319   3.584  0.00  0.00    +0.149 HD
BRANCH   9  12
ATOM     12  C   UNL     1      11.298  -7.474   4.654  0.00  0.00    +0.075 C 
ATOM     13  C   UNL     1      12.304  -7.274   3.519  0.00  0.00    +0.013 C 
ATOM     14  C   UNL     1      13.720  -7.523   4.043  0.00  0.00    +0.001 C 
ATOM     15  C   UNL     1      13.823  -8.956   4.570  0.00  0.00    +0.000 C 
ATOM     16  C   UNL     1      12.817  -9.156   5.705  0.00  0.00    +0.001 C 
ATOM     17  C   UNL     1      11.401  -8.906   5.181  0.00  0.00    +0.013 C 
ENDBRANCH   9  12
ENDBRANCH   4   8
BRANCH   1  18
ATOM     18  C   UNL     1       4.668  -3.585   2.299  0.00  0.00    +0.019 C 
BRANCH  18  20
ATOM     19  N   UNL     1       3.630  -1.873   0.845  0.00  0.00    -0.310 N 
ATOM     20  C   UNL     1       4.751  -2.385   1.391  0.00  0.00    +0.197 C 
ATOM     21  O   UNL     1       5.828  -1.880   1.151  0.00  0.00    -0.278 OA
ATOM     22  H   UNL     1       2.769  -2.277   1.038  0.00  0.00    +0.149 HD
BRANCH  19  23
ATOM     23  C   UNL     1       3.711  -0.707  -0.038  0.00  0.00    +0.106 C 
BRANCH  23  27
ATOM     24  C   UNL     1      -0.017   1.378   0.010  0.00  0.00    +0.000 A 
ATOM     25  C   UNL     1       1.171   2.086   0.002  0.00  0.00    +0.000 A 
ATOM     26  C   UNL     1       2.377   1.411  -0.013  0.00  0.00    +0.005 A 
ATOM     27  C   UNL     1       2.396   0.029  -0.020  0.00  0.00    -0.027 A 
ATOM     28  C   UNL     1       1.208  -0.679  -0.012  0.00  0.00    +0.005 A 
ATOM     29  C   UNL     1       0.002  -0.004   0.002  0.00  0.00    +0.000 A 
ENDBRANCH  23  27
BRANCH  23  30
ATOM     30  C   UNL     1       4.019  -1.168  -1.464  0.00  0.00    +0.014 C 
ATOM     31  C   UNL     1       3.979  -2.671  -1.745  0.00  0.00    +0.006 C 
ATOM     32  C   UNL     1       5.321  -1.938  -1.692  0.00  0.00    +0.006 C 
ENDBRANCH  23  30
ENDBRANCH  19  23
ENDBRANCH  18  20
ENDBRANCH   1  18
TORSDOF 7
