REMARK  Name = ZINC20858272
REMARK  10 active torsions:
REMARK  status: ('A' for Active; 'I' for Inactive)
REMARK    1  A    between atoms: C_1  and  O_2
REMARK    2  A    between atoms: O_2  and  C_3
REMARK    3  A    between atoms: C_6  and  S_10
REMARK    4  A    between atoms: S_10  and  C_13
REMARK    5  A    between atoms: C_13  and  C_14
REMARK    6  A    between atoms: C_15  and  C_29
REMARK    7  A    between atoms: C_16  and  C_22
REMARK    8  A    between atoms: C_25  and  O_28
REMARK    9  A    between atoms: C_29  and  O_31
REMARK   10  A    between atoms: O_31  and  C_32
REMARK                            x       y       z     vdW  Elec       q    Type
REMARK                         _______ _______ _______ _____ _____    ______ ____
ROOT
ATOM      1  C   UNL     1      -1.191   6.600   1.902  0.00  0.00    +0.045 C 
ATOM      2  C   UNL     1      -0.023   6.177   1.372  0.00  0.00    +0.080 C 
ATOM      3  C   UNL     1       0.051   6.012  -0.132  0.00  0.00    +0.144 C 
ATOM      4  N   UNL     1      -1.166   6.328  -0.899  0.00  0.00    -0.288 N 
ATOM      5  C   UNL     1      -2.259   6.741  -0.226  0.00  0.00    +0.304 C 
ATOM      6  O   UNL     1      -3.268   7.005  -0.850  0.00  0.00    -0.252 OA
ATOM      7  N   UNL     1      -2.268   6.869   1.107  0.00  0.00    -0.271 N 
ATOM      8  H   UNL     1      -1.168   6.226  -1.994  0.00  0.00    +0.151 HD
ATOM      9  H   UNL     1      -3.212   7.213   1.557  0.00  0.00    +0.156 HD
ENDROOT
BRANCH   3  10
ATOM     10  C   UNL     1       0.425   4.581  -0.424  0.00  0.00    -0.022 A 
ATOM     11  C   UNL     1       1.754   4.236  -0.590  0.00  0.00    +0.009 A 
ATOM     12  C   UNL     1       2.099   2.925  -0.858  0.00  0.00    +0.046 A 
ATOM     13  C   UNL     1       1.112   1.956  -0.960  0.00  0.00    +0.117 A 
ATOM     14  C   UNL     1      -0.220   2.306  -0.799  0.00  0.00    +0.046 A 
ATOM     15  C   UNL     1      -0.560   3.617  -0.526  0.00  0.00    +0.009 A 
BRANCH  13  16
ATOM     16  O   UNL     1       1.450   0.666  -1.224  0.00  0.00    -0.507 OA
ATOM     17  H   UNL     1       0.666  -0.102  -1.305  0.00  0.00    +0.292 HD
ENDBRANCH  13  16
ENDBRANCH   3  10
BRANCH   2  18
ATOM     18  C   UNL     1       1.094   5.897   2.194  0.00  0.00    +0.339 C 
ATOM     19  O   UNL     1       1.054   6.156   3.383  0.00  0.00    -0.245 OA
BRANCH  18  20
ATOM     20  O   UNL     1       2.203   5.343   1.661  0.00  0.00    -0.465 OA
ATOM     21  C   UNL     1       3.292   5.088   2.550  0.00  0.00    +0.280 C 
ENDBRANCH  18  20
ENDBRANCH   2  18
BRANCH   1  22
ATOM     22  C   UNL     1      -1.308   6.777   3.393  0.00  0.00    +0.223 C 
BRANCH  22  23
ATOM     23  S   UNL     1      -0.905   8.491   3.832  0.00  0.00    +0.002 S 
ATOM     24  O   UNL     1       0.472   8.747   3.593  0.00  0.00    -0.169 OA
ATOM     25  O   UNL     1      -1.903   9.371   3.333  0.00  0.00    -0.169 OA
BRANCH  23  29
ATOM     26  C   UNL     1      -1.349   8.675   8.336  0.00  0.00    +0.138 A 
ATOM     27  C   UNL     1      -0.126   8.343   7.771  0.00  0.00    +0.049 A 
ATOM     28  C   UNL     1       0.006   8.287   6.396  0.00  0.00    +0.030 A 
ATOM     29  C   UNL     1      -1.079   8.562   5.584  0.00  0.00    +0.090 A 
ATOM     30  C   UNL     1      -2.297   8.899   6.144  0.00  0.00    +0.050 A 
ATOM     31  C   UNL     1      -2.436   8.951   7.518  0.00  0.00    +0.084 A 
ATOM     32 CL   UNL     1      -3.968   9.367   8.221  0.00  0.00    -0.080 Cl
BRANCH  26  34
ATOM     33  C   UNL     1      -0.320   8.435  10.466  0.00  0.00    +0.277 C 
ATOM     34  O   UNL     1      -1.481   8.730   9.687  0.00  0.00    -0.494 OA
ENDBRANCH  26  34
ENDBRANCH  23  29
ENDBRANCH  22  23
ENDBRANCH   1  22
TORSDOF 8
