REMARK  Name = ZINC46722245
REMARK  8 active torsions:
REMARK  status: ('A' for Active; 'I' for Inactive)
REMARK    1  A    between atoms: C_1  and  N_2
REMARK    2  A    between atoms: C_6  and  C_7
REMARK    3  A    between atoms: C_7  and  C_9
REMARK    4  A    between atoms: C_7  and  N_16
REMARK    5  A    between atoms: N_16  and  S_17
REMARK    6  A    between atoms: S_17  and  C_20
REMARK    7  A    between atoms: C_23  and  O_27
REMARK    8  A    between atoms: O_27  and  C_28
REMARK                            x       y       z     vdW  Elec       q    Type
REMARK                         _______ _______ _______ _____ _____    ______ ____
ROOT
ATOM      1  N   UNL     1      -0.742  -1.296   3.336  0.00  0.00    -0.175 NA
ATOM      2  H   UNL     1      -0.318  -2.095   3.686  0.00  0.00    +0.149 HD
ENDROOT
BRANCH   1   3
ATOM      3  S   UNL     1      -2.337  -0.995   3.661  0.00  0.00    +0.059 S 
ATOM      4  O   UNL     1      -2.807  -2.087   4.439  0.00  0.00    -0.153 OA
ATOM      5  O   UNL     1      -2.413   0.350   4.113  0.00  0.00    -0.153 OA
BRANCH   3   6
ATOM      6  C   UNL     1      -3.203  -1.060   2.127  0.00  0.00    +0.107 A 
ATOM      7  C   UNL     1      -3.348   0.086   1.367  0.00  0.00    +0.032 A 
ATOM      8  C   UNL     1      -4.026   0.037   0.165  0.00  0.00    +0.049 A 
ATOM      9  C   UNL     1      -4.562  -1.162  -0.281  0.00  0.00    +0.145 A 
ATOM     10  C   UNL     1      -4.415  -2.311   0.484  0.00  0.00    +0.085 A 
ATOM     11  C   UNL     1      -3.731  -2.259   1.684  0.00  0.00    +0.052 A 
ATOM     12 CL   UNL     1      -5.084  -3.814  -0.070  0.00  0.00    -0.080 Cl
BRANCH   9  13
ATOM     13  O   UNL     1      -5.230  -1.212  -1.464  0.00  0.00    -0.433 OA
BRANCH  13  14
ATOM     14  C   UNL     1      -5.343   0.010  -2.197  0.00  0.00    +0.541 C 
ATOM     15  F   UNL     1      -6.019   0.958  -1.422  0.00  0.00    -0.166 F 
ATOM     16  F   UNL     1      -4.065   0.487  -2.507  0.00  0.00    -0.166 F 
ENDBRANCH  13  14
ENDBRANCH   9  13
ENDBRANCH   3   6
ENDBRANCH   1   3
BRANCH   1  17
ATOM     17  C   UNL     1       0.030  -0.354   2.521  0.00  0.00    +0.170 C 
BRANCH  17  23
ATOM     18  C   UNL     1      -0.018   1.461   0.010  0.00  0.00    +0.150 C 
ATOM     19  N   UNL     1       0.002  -0.004   0.002  0.00  0.00    -0.337 N 
ATOM     20  C   UNL     1       0.009  -0.810  -1.104  0.00  0.00    +0.104 A 
ATOM     21  C   UNL     1       0.029  -2.081  -0.660  0.00  0.00    +0.102 A 
ATOM     22  N   UNL     1       0.034  -2.052   0.681  0.00  0.00    -0.348 N 
ATOM     23  C   UNL     1       0.023  -0.811   1.085  0.00  0.00    +0.110 A 
ATOM     24  H   UNL     1       0.048  -2.831   1.260  0.00  0.00    +0.166 HD
ENDBRANCH  17  23
BRANCH  17  25
ATOM     25  C   UNL     1       1.449  -0.300   3.024  0.00  0.00    -0.019 A 
ATOM     26  C   UNL     1       2.087  -1.461   3.421  0.00  0.00    +0.006 A 
ATOM     27  C   UNL     1       3.389  -1.413   3.883  0.00  0.00    +0.003 A 
ATOM     28  C   UNL     1       4.055  -0.204   3.949  0.00  0.00    +0.038 A 
ATOM     29  C   UNL     1       3.417   0.960   3.552  0.00  0.00    +0.124 A 
ATOM     30  C   UNL     1       2.115   0.909   3.083  0.00  0.00    +0.044 A 
ATOM     31  F   UNL     1       4.067   2.142   3.616  0.00  0.00    -0.205 F 
ENDBRANCH  17  25
ENDBRANCH   1  17
TORSDOF 7
