REMARK  Name = ZINC37129576
REMARK  7 active torsions:
REMARK  status: ('A' for Active; 'I' for Inactive)
REMARK    1  A    between atoms: C_1  and  C_2
REMARK    2  A    between atoms: C_4  and  N_13
REMARK    3  A    between atoms: C_7  and  N_8
REMARK    4  A    between atoms: N_8  and  S_9
REMARK    5  A    between atoms: S_9  and  C_12
REMARK    6  A    between atoms: N_13  and  C_14
REMARK    7  A    between atoms: C_14  and  C_15
REMARK                            x       y       z     vdW  Elec       q    Type
REMARK                         _______ _______ _______ _____ _____    ______ ____
ROOT
ATOM      1  C   UNL     1       0.160   1.698   0.148  0.00  0.00    +0.046 C 
ATOM      2  C   UNL     1       0.269   0.200   0.024  0.00  0.00    -0.026 A 
ATOM      3  C   UNL     1       0.444  -0.378  -1.218  0.00  0.00    +0.028 A 
ATOM      4  C   UNL     1       0.545  -1.758  -1.333  0.00  0.00    +0.028 A 
ATOM      5  C   UNL     1       0.468  -2.557  -0.200  0.00  0.00    +0.025 A 
ATOM      6  C   UNL     1       0.292  -1.979   1.042  0.00  0.00    +0.026 A 
ATOM      7  C   UNL     1       0.198  -0.598   1.157  0.00  0.00    +0.051 A 
ENDROOT
BRANCH   7   8
ATOM      8  N   UNL     1       0.025  -0.011   2.417  0.00  0.00    -0.221 N 
ATOM      9  H   UNL     1      -0.524   0.783   2.511  0.00  0.00    +0.173 HD
BRANCH   8  10
ATOM     10  S   UNL     1       0.758  -0.673   3.746  0.00  0.00    +0.040 S 
ATOM     11  O   UNL     1       0.448   0.215   4.811  0.00  0.00    -0.155 OA
ATOM     12  O   UNL     1       0.311  -2.021   3.773  0.00  0.00    -0.155 OA
ATOM     13  C   UNL     1       2.534  -0.611   3.378  0.00  0.00    +0.218 C 
ENDBRANCH   8  10
ENDBRANCH   7   8
BRANCH   4  14
ATOM     14  N   UNL     1       0.722  -2.345  -2.592  0.00  0.00    -0.339 N 
ATOM     15  H   UNL     1       0.775  -1.787  -3.384  0.00  0.00    +0.146 HD
BRANCH  14  16
ATOM     16  C   UNL     1       0.828  -3.801  -2.713  0.00  0.00    +0.144 C 
BRANCH  16  17
ATOM     17  C   UNL     1       1.014  -4.172  -4.162  0.00  0.00    +0.008 A 
ATOM     18  C   UNL     1       2.163  -4.321  -4.864  0.00  0.00    +0.014 A 
ATOM     19  C   UNL     1       2.092  -4.670  -6.200  0.00  0.00    +0.028 A 
ATOM     20  C   UNL     1       0.874  -4.853  -6.768  0.00  0.00    +0.078 A 
ATOM     21  S   UNL     1      -0.224  -4.537  -5.396  0.00  0.00    -0.080 S 
ATOM     22 CL   UNL     1       0.483  -5.289  -8.403  0.00  0.00    -0.076 Cl
ENDBRANCH  16  17
ENDBRANCH  14  16
ENDBRANCH   4  14
TORSDOF 5
