REMARK  Name = ZINC38965212
REMARK  6 active torsions:
REMARK  status: ('A' for Active; 'I' for Inactive)
REMARK    1  A    between atoms: C_1  and  O_2
REMARK    2  A    between atoms: O_2  and  C_3
REMARK    3  A    between atoms: C_9  and  C_15
REMARK    4  A    between atoms: C_17  and  N_26
REMARK    5  A    between atoms: N_26  and  C_27
REMARK    6  A    between atoms: C_31  and  C_33
REMARK                            x       y       z     vdW  Elec       q    Type
REMARK                         _______ _______ _______ _____ _____    ______ ____
ROOT
ATOM      1  C   UNL     1      -1.960  -4.652   1.243  0.00  0.00    +0.135 C 
ATOM      2  C   UNL     1      -2.015  -6.188   1.338  0.00  0.00    +0.188 C 
ATOM      3  N   UNL     1      -0.603  -6.591   1.226  0.00  0.00    -0.272 N 
ATOM      4  C   UNL     1      -0.036  -7.832   1.244  0.00  0.00    +0.078 C 
ATOM      5  C   UNL     1       1.299  -7.987   1.125  0.00  0.00    +0.015 C 
ATOM      6  C   UNL     1       2.127  -6.860   0.979  0.00  0.00    +0.005 C 
ATOM      7  C   UNL     1       1.580  -5.620   0.959  0.00  0.00    +0.042 C 
ATOM      8  C   UNL     1       0.170  -5.468   1.085  0.00  0.00    +0.100 C 
ATOM      9  N   UNL     1      -0.533  -4.351   1.089  0.00  0.00    -0.366 N 
ATOM     10  H   UNL     1      -0.162  -3.460   1.002  0.00  0.00    +0.161 HD
ENDROOT
BRANCH   1  17
ATOM     11  C   UNL     1      -6.190  -4.022   1.587  0.00  0.00    +0.120 A 
ATOM     12  C   UNL     1      -6.916  -4.820   0.708  0.00  0.00    +0.046 A 
ATOM     13  C   UNL     1      -6.306  -5.394  -0.371  0.00  0.00    +0.013 A 
ATOM     14  C   UNL     1      -4.940  -5.176  -0.592  0.00  0.00    -0.005 A 
ATOM     15  C   UNL     1      -4.217  -4.369   0.303  0.00  0.00    -0.022 A 
ATOM     16  C   UNL     1      -4.832  -3.797   1.371  0.00  0.00    +0.050 A 
ATOM     17  C   UNL     1      -2.745  -4.163   0.024  0.00  0.00    +0.133 C 
ATOM     18  C   UNL     1      -2.181  -4.850  -1.202  0.00  0.00    +0.246 C 
ATOM     19  O   UNL     1      -1.007  -4.727  -1.485  0.00  0.00    -0.273 OA
ATOM     20  N   UNL     1      -2.983  -5.592  -1.970  0.00  0.00    -0.188 NA
ATOM     21  C   UNL     1      -4.254  -5.774  -1.734  0.00  0.00    +0.109 C 
BRANCH  11  23
ATOM     22  C   UNL     1      -8.201  -3.731   2.818  0.00  0.00    +0.277 C 
ATOM     23  O   UNL     1      -6.807  -3.458   2.655  0.00  0.00    -0.495 OA
ENDBRANCH  11  23
ENDBRANCH   1  17
BRANCH   2  24
ATOM     24  N   UNL     1      -2.572  -6.605   2.627  0.00  0.00    -0.324 N 
ATOM     25  H   UNL     1      -2.286  -6.167   3.444  0.00  0.00    +0.148 HD
BRANCH  24  26
ATOM     26  C   UNL     1      -3.517  -7.632   2.680  0.00  0.00    +0.029 A 
ATOM     27  C   UNL     1      -3.810  -8.368   1.538  0.00  0.00    +0.023 A 
ATOM     28  C   UNL     1      -4.744  -9.383   1.594  0.00  0.00    +0.002 A 
ATOM     29  C   UNL     1      -5.388  -9.668   2.784  0.00  0.00    +0.012 A 
ATOM     30  C   UNL     1      -5.100  -8.937   3.922  0.00  0.00    +0.057 A 
ATOM     31  C   UNL     1      -4.162  -7.924   3.875  0.00  0.00    +0.035 A 
BRANCH  30  32
ATOM     32  C   UNL     1      -5.805  -9.250   5.217  0.00  0.00    +0.417 C 
ATOM     33  F   UNL     1      -6.697 -10.309   5.017  0.00  0.00    -0.166 F 
ATOM     34  F   UNL     1      -4.863  -9.610   6.186  0.00  0.00    -0.166 F 
ATOM     35  F   UNL     1      -6.510  -8.122   5.648  0.00  0.00    -0.166 F 
ENDBRANCH  30  32
ENDBRANCH  24  26
ENDBRANCH   2  24
TORSDOF 5
