REMARK  Name = ZINC40374112
REMARK  12 active torsions:
REMARK  status: ('A' for Active; 'I' for Inactive)
REMARK    1  A    between atoms: C_1  and  C_2
REMARK    2  A    between atoms: C_2  and  C_3
REMARK    3  A    between atoms: C_2  and  C_4
REMARK    4  A    between atoms: C_2  and  C_5
REMARK    5  A    between atoms: C_8  and  C_11
REMARK    6  A    between atoms: C_11  and  C_13
REMARK    7  A    between atoms: C_11  and  N_31
REMARK    8  A    between atoms: C_13  and  N_14
REMARK    9  A    between atoms: N_14  and  C_15
REMARK   10  A    between atoms: C_16  and  C_29
REMARK   11  A    between atoms: C_18  and  C_20
REMARK   12  A    between atoms: C_25  and  N_26
REMARK                            x       y       z     vdW  Elec       q    Type
REMARK                         _______ _______ _______ _____ _____    ______ ____
ROOT
ATOM      1  C   UNL     1       3.479  -3.379  -5.144  0.00  0.00    +0.094 C 
ENDROOT
BRANCH   1   2
ATOM      2  N   UNL     1       2.726  -4.318  -4.309  0.00  0.00    -0.314 N 
ATOM      3  H   UNL     1       1.780  -4.176  -4.151  0.00  0.00    +0.149 HD
BRANCH   2   4
ATOM      4  C   UNL     1       3.362  -5.404  -3.749  0.00  0.00    +0.225 A 
ATOM      5  C   UNL     1       2.786  -6.377  -2.946  0.00  0.00    +0.201 A 
ATOM      6  N   UNL     1       3.772  -7.253  -2.617  0.00  0.00    -0.196 NA
ATOM      7  C   UNL     1       4.886  -6.856  -3.175  0.00  0.00    +0.233 A 
ATOM      8  O   UNL     1       4.661  -5.729  -3.879  0.00  0.00    -0.420 OA
BRANCH   7   9
ATOM      9  C   UNL     1       6.190  -7.542  -3.058  0.00  0.00    +0.067 A 
ATOM     10  C   UNL     1       6.304  -8.893  -3.390  0.00  0.00    +0.015 A 
ATOM     11  C   UNL     1       7.524  -9.527  -3.279  0.00  0.00    +0.001 A 
ATOM     12  C   UNL     1       8.634  -8.826  -2.839  0.00  0.00    +0.002 A 
ATOM     13  C   UNL     1       8.528  -7.487  -2.509  0.00  0.00    +0.033 A 
ATOM     14  C   UNL     1       7.314  -6.840  -2.621  0.00  0.00    +0.138 A 
BRANCH  14  15
ATOM     15  N   UNL     1       7.204  -5.404  -2.272  0.00  0.00    +0.057 N 
ATOM     16  O   UNL     1       8.195  -4.774  -1.985  0.00  0.00    -0.126 OA
ATOM     17  O   UNL     1       6.123  -4.863  -2.276  0.00  0.00    -0.126 OA
ENDBRANCH  14  15
ENDBRANCH   7   9
BRANCH   5  18
ATOM     18  C   UNL     1       1.415  -6.446  -2.540  0.00  0.00    +0.124 C 
ATOM     19  N   UNL     1       0.327  -6.501  -2.218  0.00  0.00    -0.189 NA
ENDBRANCH   5  18
ENDBRANCH   2   4
ENDBRANCH   1   2
BRANCH   1  20
ATOM     20  C   UNL     1       2.579  -2.202  -5.527  0.00  0.00    -0.020 C 
BRANCH  20  21
ATOM     21  N   UNL     1       3.310  -1.300  -6.427  0.00  0.00    +0.385 N 
ATOM     22  C   UNL     1       2.464  -0.145  -6.751  0.00  0.00    -0.078 C 
ATOM     23  C   UNL     1       3.249   0.838  -7.622  0.00  0.00    -0.019 C 
ATOM     24  C   UNL     1       3.675   0.137  -8.915  0.00  0.00    -0.004 C 
ATOM     25  C   UNL     1       4.495  -1.108  -8.563  0.00  0.00    -0.019 C 
ATOM     26  C   UNL     1       3.664  -2.019  -7.657  0.00  0.00    -0.078 C 
ATOM     27  H   UNL     1       4.151  -0.981  -5.971  0.00  0.00    -0.081 HD
ENDBRANCH  20  21
BRANCH  20  31
ATOM     28  C   UNL     1       1.435  -0.080  -2.001  0.00  0.00    -0.042 A 
ATOM     29  C   UNL     1       0.561  -0.981  -2.580  0.00  0.00    +0.004 A 
ATOM     30  C   UNL     1       0.931  -1.667  -3.721  0.00  0.00    +0.002 A 
ATOM     31  C   UNL     1       2.175  -1.453  -4.283  0.00  0.00    -0.059 A 
ATOM     32  C   UNL     1       3.050  -0.552  -3.705  0.00  0.00    +0.002 A 
ATOM     33  C   UNL     1       2.678   0.138  -2.566  0.00  0.00    +0.004 A 
BRANCH  28  35
ATOM     34  C   UNL     1       1.051   2.172  -1.037  0.00  0.00    +0.015 C 
ATOM     35  C   UNL     1       1.032   0.668  -0.757  0.00  0.00    -0.013 C 
ATOM     36  C   UNL     1       2.013   0.348   0.372  0.00  0.00    +0.015 C 
ATOM     37  C   UNL     1      -0.379   0.245  -0.342  0.00  0.00    +0.015 C 
ENDBRANCH  28  35
ENDBRANCH  20  31
ENDBRANCH   1  20
TORSDOF 9
