REMARK  Name = ZINC40569527
REMARK  11 active torsions:
REMARK  status: ('A' for Active; 'I' for Inactive)
REMARK    1  A    between atoms: C_1  and  C_2
REMARK    2  A    between atoms: C_2  and  C_3
REMARK    3  A    between atoms: C_3  and  C_4
REMARK    4  A    between atoms: N_10  and  C_11
REMARK    5  A    between atoms: C_11  and  C_12
REMARK    6  A    between atoms: C_12  and  N_13
REMARK    7  A    between atoms: N_13  and  C_14
REMARK    8  A    between atoms: N_13  and  C_15
REMARK    9  A    between atoms: C_16  and  C_24
REMARK   10  A    between atoms: C_18  and  C_22
REMARK   11  A    between atoms: C_19  and  N_21
REMARK                            x       y       z     vdW  Elec       q    Type
REMARK                         _______ _______ _______ _____ _____    ______ ____
ROOT
ATOM      1  C   UNL     1      -1.401  -2.042   0.131  0.00  0.00    +0.025 A 
ATOM      2  C   UNL     1      -1.565  -2.621   1.340  0.00  0.00    +0.068 A 
ATOM      3  C   UNL     1      -1.596  -4.027   1.445  0.00  0.00    +0.141 A 
ATOM      4  C   UNL     1      -1.457  -4.785   0.302  0.00  0.00    +0.072 A 
ATOM      5  C   UNL     1      -1.290  -4.141  -0.931  0.00  0.00    +0.259 A 
ATOM      6  O   UNL     1      -1.166  -4.799  -1.952  0.00  0.00    -0.267 OA
ATOM      7  N   UNL     1      -1.271  -2.796  -0.992  0.00  0.00    -0.314 N 
ATOM      8  C   UNL     1      -1.483  -6.287   0.368  0.00  0.00    +0.103 C 
ATOM      9  C   UNL     1      -2.058  -6.738   1.681  0.00  0.00    +0.098 C 
ATOM     10  C   UNL     1      -2.163  -5.889   2.731  0.00  0.00    +0.199 C 
ATOM     11  O   UNL     1      -1.760  -4.609   2.652  0.00  0.00    -0.441 OA
ENDROOT
BRANCH   8  12
ATOM     12  C   UNL     1      -0.079  -6.818   0.233  0.00  0.00    -0.034 A 
ATOM     13  C   UNL     1       0.886  -6.462   1.157  0.00  0.00    +0.006 A 
ATOM     14  C   UNL     1       2.174  -6.948   1.033  0.00  0.00    +0.020 A 
ATOM     15  C   UNL     1       2.498  -7.790  -0.015  0.00  0.00    +0.041 A 
ATOM     16  C   UNL     1       1.532  -8.146  -0.940  0.00  0.00    +0.020 A 
ATOM     17  C   UNL     1       0.243  -7.664  -0.812  0.00  0.00    +0.006 A 
ATOM     18 CL   UNL     1       4.115  -8.400  -0.171  0.00  0.00    -0.084 Cl
ENDBRANCH   8  12
BRANCH  10  19
ATOM     19  N   UNL     1      -2.695  -6.348   3.909  0.00  0.00    -0.328 N 
ATOM     20  H   UNL     1      -2.990  -7.270   3.982  0.00  0.00    +0.145 HD
ATOM     21  H   UNL     1      -2.776  -5.752   4.670  0.00  0.00    +0.145 HD
ENDBRANCH  10  19
BRANCH   9  22
ATOM     22  C   UNL     1      -2.506  -8.091   1.826  0.00  0.00    +0.101 C 
ATOM     23  N   UNL     1      -2.860  -9.164   1.940  0.00  0.00    -0.191 NA
ENDBRANCH   9  22
BRANCH   1  24
ATOM     24  C   UNL     1      -1.368  -0.539   0.025  0.00  0.00    +0.053 C 
BRANCH  24  26
ATOM     25  C   UNL     1      -2.768   1.514  -0.236  0.00  0.00    +0.004 C 
ATOM     26  C   UNL     1      -2.780  -0.016  -0.248  0.00  0.00    +0.003 C 
ENDBRANCH  24  26
ENDBRANCH   1  24
BRANCH   7  27
ATOM     27  C   UNL     1      -1.101  -2.135  -2.288  0.00  0.00    +0.106 C 
BRANCH  27  28
ATOM     28  C   UNL     1       0.391  -2.002  -2.601  0.00  0.00    -0.058 C 
BRANCH  28  29
ATOM     29  N   UNL     1       0.560  -1.453  -3.953  0.00  0.00    +0.377 N 
ATOM     30  C   UNL     1       0.031  -0.083  -3.995  0.00  0.00    -0.097 C 
ATOM     31  C   UNL     1       1.988  -1.437  -4.300  0.00  0.00    -0.097 C 
ATOM     32  H   UNL     1       0.060  -2.027  -4.615  0.00  0.00    -0.083 HD
ENDBRANCH  28  29
ENDBRANCH  27  28
ENDBRANCH   7  27
TORSDOF 8
