REMARK  Name = ZINC49504895
REMARK  6 active torsions:
REMARK  status: ('A' for Active; 'I' for Inactive)
REMARK    1  A    between atoms: C_5  and  C_7
REMARK    2  A    between atoms: C_12  and  C_15
REMARK    3  A    between atoms: C_15  and  C_16
REMARK    4  A    between atoms: C_16  and  N_17
REMARK    5  A    between atoms: C_18  and  C_20
REMARK    6  A    between atoms: N_22  and  C_23
REMARK                            x       y       z     vdW  Elec       q    Type
REMARK                         _______ _______ _______ _____ _____    ______ ____
ROOT
ATOM      1  N   UNL     1      -3.344  -5.868   1.418  0.00  0.00    -0.307 N 
ATOM      2  C   UNL     1      -4.019  -5.860   2.584  0.00  0.00    +0.299 C 
ATOM      3  O   UNL     1      -3.422  -5.713   3.630  0.00  0.00    -0.265 OA
ATOM      4  H   UNL     1      -3.821  -5.985   0.582  0.00  0.00    +0.149 HD
ENDROOT
BRANCH   2   5
ATOM      5  C   UNL     1      -5.502  -6.032   2.589  0.00  0.00    +0.303 C 
ATOM      6  O   UNL     1      -6.100  -6.178   1.542  0.00  0.00    -0.265 OA
ATOM      7  N   UNL     1      -6.178  -6.024   3.755  0.00  0.00    -0.278 N 
ATOM      8  H   UNL     1      -5.695  -5.973   4.595  0.00  0.00    +0.155 HD
BRANCH   7   9
ATOM      9  C   UNL     1      -7.575  -6.089   3.755  0.00  0.00    +0.034 A 
ATOM     10  C   UNL     1      -8.281  -5.380   4.723  0.00  0.00    +0.028 A 
ATOM     11  C   UNL     1      -9.655  -5.408   4.749  0.00  0.00    -0.023 A 
ATOM     12  C   UNL     1     -10.290  -6.162   3.759  0.00  0.00    +0.043 A 
ATOM     13  C   UNL     1      -9.595  -6.891   2.807  0.00  0.00    -0.022 A 
ATOM     14  C   UNL     1      -8.214  -6.859   2.778  0.00  0.00    +0.028 A 
ATOM     15  C   UNL     1     -10.602  -7.618   1.967  0.00  0.00    +0.056 C 
ATOM     16  C   UNL     1     -11.974  -7.200   2.547  0.00  0.00    +0.118 C 
ATOM     17  N   UNL     1     -11.673  -6.257   3.619  0.00  0.00    -0.271 N 
ATOM     18  C   UNL     1     -12.489  -5.500   4.384  0.00  0.00    +0.220 C 
ATOM     19  O   UNL     1     -13.679  -5.729   4.439  0.00  0.00    -0.275 OA
ATOM     20  C   UNL     1     -11.883  -4.363   5.171  0.00  0.00    +0.101 C 
ATOM     21  C   UNL     1     -10.519  -4.718   5.761  0.00  0.00    +0.046 C 
ENDBRANCH   7   9
ENDBRANCH   2   5
BRANCH   1  22
ATOM     22  C   UNL     1      -1.888  -5.699   1.413  0.00  0.00    +0.111 C 
BRANCH  22  23
ATOM     23  C   UNL     1      -1.374  -5.746  -0.027  0.00  0.00    +0.075 C 
BRANCH  23  29
ATOM     24  C   UNL     1       1.272  -2.188   0.007  0.00  0.00    +0.186 A 
ATOM     25  N   UNL     1       2.369  -2.954  -0.008  0.00  0.00    -0.200 NA
ATOM     26  C   UNL     1       2.018  -4.209  -0.023  0.00  0.00    +0.196 A 
ATOM     27  N   UNL     1       0.660  -4.308  -0.018  0.00  0.00    -0.210 N 
ATOM     28  N   UNL     1       0.210  -2.962   0.007  0.00  0.00    -0.144 NA
ATOM     29  C   UNL     1       0.123  -5.573  -0.032  0.00  0.00    +0.054 A 
ATOM     30  C   UNL     1       0.911  -6.649  -0.050  0.00  0.00    +0.072 A 
ATOM     31  S   UNL     1       2.537  -5.908  -0.048  0.00  0.00    -0.056 S 
BRANCH  24  36
ATOM     32  C   UNL     1       0.034   1.362   0.067  0.00  0.00    +0.001 A 
ATOM     33  C   UNL     1       1.226   2.065   0.065  0.00  0.00    +0.003 A 
ATOM     34  C   UNL     1       2.433   1.392   0.044  0.00  0.00    +0.039 A 
ATOM     35  C   UNL     1       2.455   0.009   0.026  0.00  0.00    +0.134 A 
ATOM     36  C   UNL     1       1.256  -0.704   0.028  0.00  0.00    +0.056 A 
ATOM     37  C   UNL     1       0.043  -0.018   0.049  0.00  0.00    +0.014 A 
ATOM     38  F   UNL     1       3.635  -0.649   0.005  0.00  0.00    -0.205 F 
ENDBRANCH  24  36
ENDBRANCH  23  29
ENDBRANCH  22  23
ENDBRANCH   1  22
TORSDOF 6
