REMARK  Name = ZINC24866556
REMARK  9 active torsions:
REMARK  status: ('A' for Active; 'I' for Inactive)
REMARK    1  A    between atoms: C_1  and  C_2
REMARK    2  A    between atoms: C_4  and  C_29
REMARK    3  A    between atoms: C_5  and  N_9
REMARK    4  A    between atoms: C_6  and  C_8
REMARK    5  A    between atoms: C_10  and  C_12
REMARK    6  A    between atoms: C_12  and  N_13
REMARK    7  A    between atoms: C_14  and  C_16
REMARK    8  A    between atoms: C_16  and  S_17
REMARK    9  A    between atoms: S_17  and  C_18
REMARK                            x       y       z     vdW  Elec       q    Type
REMARK                         _______ _______ _______ _____ _____    ______ ____
ROOT
ATOM      1  N   UNL     1      -1.601   0.240  -2.828  0.00  0.00    -0.306 N 
ATOM      2  C   UNL     1      -2.159   0.434  -1.617  0.00  0.00    +0.224 C 
ATOM      3  O   UNL     1      -2.618   1.519  -1.328  0.00  0.00    -0.275 OA
ATOM      4  H   UNL     1      -1.184  -0.744  -3.090  0.00  0.00    +0.149 HD
ENDROOT
BRANCH   1   5
ATOM      5  C   UNL     1      -1.549   1.339  -3.796  0.00  0.00    +0.200 C 
BRANCH   5   7
ATOM      6  N   UNL     1      -0.721   1.710  -6.097  0.00  0.00    -0.284 N 
ATOM      7  C   UNL     1      -0.880   0.863  -5.060  0.00  0.00    +0.234 C 
ATOM      8  O   UNL     1      -0.486  -0.281  -5.144  0.00  0.00    -0.274 OA
ATOM      9  H   UNL     1      -1.131   2.729  -6.043  0.00  0.00    +0.155 HD
BRANCH   6  14
ATOM     10  C   UNL     1       2.068   0.016 -10.738  0.00  0.00    +0.044 C 
ATOM     11  C   UNL     1       1.327   0.466  -9.505  0.00  0.00    -0.050 A 
ATOM     12  C   UNL     1       0.067   1.024  -9.623  0.00  0.00    +0.008 A 
ATOM     13  C   UNL     1      -0.614   1.438  -8.495  0.00  0.00    -0.029 A 
ATOM     14  C   UNL     1      -0.033   1.291  -7.242  0.00  0.00    +0.039 A 
ATOM     15  C   UNL     1       1.234   0.735  -7.128  0.00  0.00    -0.029 A 
ATOM     16  C   UNL     1       1.908   0.319  -8.259  0.00  0.00    +0.008 A 
ATOM     17  C   UNL     1       1.870   0.579  -5.771  0.00  0.00    +0.045 C 
ATOM     18  C   UNL     1      -1.987   2.046  -8.623  0.00  0.00    +0.045 C 
ENDBRANCH   6  14
ENDBRANCH   5   7
ENDBRANCH   1   5
BRANCH   2  19
ATOM     19  C   UNL     1      -2.212  -0.696  -0.621  0.00  0.00    +0.170 C 
BRANCH  19  20
ATOM     20  S   UNL     1      -3.017  -0.124   0.900  0.00  0.00    -0.115 S 
BRANCH  20  21
ATOM     21  C   UNL     1      -3.002  -1.540   1.949  0.00  0.00    +0.017 A 
ATOM     22  C   UNL     1      -2.449  -2.725   1.510  0.00  0.00    +0.015 A 
ATOM     23  C   UNL     1      -2.432  -3.849   2.330  0.00  0.00    +0.002 A 
ATOM     24  C   UNL     1      -2.959  -3.811   3.585  0.00  0.00    +0.008 A 
ATOM     25  C   UNL     1      -3.532  -2.623   4.071  0.00  0.00    -0.015 A 
ATOM     26  C   UNL     1      -3.550  -1.470   3.248  0.00  0.00    +0.014 A 
ATOM     27  C   UNL     1      -4.128  -0.286   3.732  0.00  0.00    +0.050 A 
ATOM     28  C   UNL     1      -4.654  -0.257   4.989  0.00  0.00    +0.020 A 
ATOM     29  C   UNL     1      -4.631  -1.389   5.801  0.00  0.00    +0.002 A 
ATOM     30  C   UNL     1      -4.083  -2.556   5.362  0.00  0.00    +0.008 A 
ATOM     31 CL   UNL     1      -4.167   1.136   2.738  0.00  0.00    -0.083 Cl
ENDBRANCH  20  21
ENDBRANCH  19  20
ENDBRANCH   2  19
TORSDOF 6
