REMARK  Name = ZINC36303052
REMARK  9 active torsions:
REMARK  status: ('A' for Active; 'I' for Inactive)
REMARK    1  A    between atoms: C_1  and  C_2
REMARK    2  A    between atoms: N_5  and  C_11
REMARK    3  A    between atoms: C_7  and  C_10
REMARK    4  A    between atoms: C_11  and  C_12
REMARK    5  A    between atoms: C_16  and  C_18
REMARK    6  A    between atoms: N_26  and  C_27
REMARK    7  A    between atoms: C_27  and  C_28
REMARK    8  A    between atoms: C_28  and  C_29
REMARK    9  A    between atoms: C_29  and  N_30
REMARK                            x       y       z     vdW  Elec       q    Type
REMARK                         _______ _______ _______ _____ _____    ______ ____
ROOT
ATOM      1  C   UNL     1      -2.526  -7.145   1.995  0.00  0.00    +0.142 A 
ATOM      2  N   UNL     1      -2.179  -6.771   3.202  0.00  0.00    -0.228 NA
ATOM      3  C   UNL     1      -2.260  -7.828   4.046  0.00  0.00    +0.090 A 
ATOM      4  C   UNL     1      -2.010  -7.987   5.413  0.00  0.00    +0.030 A 
ATOM      5  C   UNL     1      -2.185  -9.208   6.000  0.00  0.00    +0.002 A 
ATOM      6  C   UNL     1      -2.609 -10.298   5.253  0.00  0.00    +0.002 A 
ATOM      7  C   UNL     1      -2.861 -10.166   3.904  0.00  0.00    +0.028 A 
ATOM      8  C   UNL     1      -2.690  -8.932   3.290  0.00  0.00    +0.069 A 
ATOM      9  N   UNL     1      -2.856  -8.473   1.998  0.00  0.00    -0.324 N 
ENDROOT
BRANCH   1  14
ATOM     10  C   UNL     1      -2.679  -4.061  -0.144  0.00  0.00    -0.033 A 
ATOM     11  C   UNL     1      -2.628  -4.611  -1.413  0.00  0.00    +0.005 A 
ATOM     12  C   UNL     1      -2.543  -5.982  -1.577  0.00  0.00    +0.001 A 
ATOM     13  C   UNL     1      -2.510  -6.810  -0.474  0.00  0.00    +0.011 A 
ATOM     14  C   UNL     1      -2.561  -6.263   0.808  0.00  0.00    +0.018 A 
ATOM     15  C   UNL     1      -2.640  -4.878   0.966  0.00  0.00    +0.016 A 
BRANCH  10  16
ATOM     16  C   UNL     1      -2.771  -2.567   0.025  0.00  0.00    +0.119 C 
BRANCH  16  20
ATOM     17  C   UNL     1      -0.070   1.547   0.037  0.00  0.00    +0.039 C 
ATOM     18  C   UNL     1      -0.031   0.018   0.033  0.00  0.00    +0.130 C 
ATOM     19  C   UNL     1      -1.461  -0.529   0.019  0.00  0.00    +0.116 C 
ATOM     20  N   UNL     1      -1.419  -1.997   0.093  0.00  0.00    -0.293 NA
ATOM     21  C   UNL     1      -0.722  -2.438   1.310  0.00  0.00    +0.116 C 
ATOM     22  C   UNL     1       0.700  -1.871   1.311  0.00  0.00    +0.130 C 
ATOM     23  O   UNL     1       0.641  -0.446   1.207  0.00  0.00    -0.371 OA
ATOM     24  C   UNL     1       1.404  -2.261   2.613  0.00  0.00    +0.039 C 
ENDBRANCH  16  20
ENDBRANCH  10  16
ENDBRANCH   1  14
BRANCH   9  25
ATOM     25  C   UNL     1      -3.300  -9.262   0.846  0.00  0.00    +0.122 C 
BRANCH  25  26
ATOM     26  C   UNL     1      -2.096  -9.967   0.217  0.00  0.00    +0.002 C 
BRANCH  26  27
ATOM     27  C   UNL     1      -2.559 -10.790  -0.987  0.00  0.00    -0.085 C 
BRANCH  27  28
ATOM     28  N   UNL     1      -1.404 -11.468  -1.591  0.00  0.00    +0.378 N 
ATOM     29  H   UNL     1      -0.731 -10.780  -1.893  0.00  0.00    -0.090 HD
ATOM     30  H   UNL     1      -0.978 -12.078  -0.909  0.00  0.00    -0.090 HD
ATOM     31  H   UNL     1      -1.710 -12.011  -2.384  0.00  0.00    -0.090 HD
ENDBRANCH  27  28
ENDBRANCH  26  27
ENDBRANCH  25  26
ENDBRANCH   9  25
TORSDOF 7
