REMARK  Name = ZINC03849934
REMARK  7 active torsions:
REMARK  status: ('A' for Active; 'I' for Inactive)
REMARK    1  A    between atoms: C_1  and  C_2
REMARK    2  A    between atoms: C_2  and  C_3
REMARK    3  A    between atoms: C_3  and  O_27
REMARK    4  A    between atoms: C_6  and  C_26
REMARK    5  A    between atoms: C_18  and  C_25
REMARK    6  A    between atoms: O_27  and  C_28
REMARK    7  A    between atoms: C_28  and  C_30
REMARK                            x       y       z     vdW  Elec       q    Type
REMARK                         _______ _______ _______ _____ _____    ______ ____
ROOT
ATOM      1  C   UNL     1       2.512  -0.275  -3.803  0.00  0.00    +0.114 C 
ATOM      2  C   UNL     1       2.710   1.224  -4.035  0.00  0.00    +0.048 C 
ATOM      3  C   UNL     1       1.670   2.007  -3.231  0.00  0.00    +0.011 C 
ATOM      4  C   UNL     1       0.266   1.601  -3.683  0.00  0.00    -0.026 C 
ATOM      5  C   UNL     1       0.067   0.102  -3.451  0.00  0.00    -0.001 C 
ATOM      6  C   UNL     1       1.108  -0.680  -4.255  0.00  0.00    +0.052 C 
ATOM      7  C   UNL     1      -1.337  -0.304  -3.903  0.00  0.00    +0.004 C 
ATOM      8  C   UNL     1      -2.378   0.480  -3.102  0.00  0.00    +0.004 C 
ATOM      9  C   UNL     1      -2.177   1.979  -3.335  0.00  0.00    -0.003 C 
ATOM     10  C   UNL     1      -0.776   2.383  -2.878  0.00  0.00    -0.001 C 
ATOM     11  C   UNL     1      -0.629   2.036  -1.392  0.00  0.00    +0.005 C 
ATOM     12  C   UNL     1      -1.633   2.871  -0.599  0.00  0.00    +0.015 C 
ATOM     13  C   UNL     1      -3.051   2.599  -1.050  0.00  0.00    +0.029 C 
ATOM     14  C   UNL     1      -3.243   2.764  -2.569  0.00  0.00    +0.006 C 
ATOM     15  C   UNL     1      -4.591   2.014  -2.788  0.00  0.00    +0.012 C 
ATOM     16  C   UNL     1      -4.488   0.805  -1.833  0.00  0.00    +0.075 C 
ATOM     17  C   UNL     1      -3.500   1.189  -0.746  0.00  0.00    +0.139 C 
ATOM     18  O   UNL     1      -3.143   0.502   0.180  0.00  0.00    -0.297 OA
ATOM     19  C   UNL     1      -3.982   3.575  -0.329  0.00  0.00    +0.019 C 
ATOM     20  C   UNL     1       0.099   1.913  -5.172  0.00  0.00    +0.012 C 
ENDROOT
BRANCH   1  22
ATOM     21  C   UNL     1       2.522  -2.092  -2.088  0.00  0.00    +0.008 C 
ATOM     22  C   UNL     1       2.679  -0.587  -2.314  0.00  0.00    +0.045 C 
ENDBRANCH   1  22
BRANCH   1  23
ATOM     23  O   UNL     1       3.499  -1.017  -4.566  0.00  0.00    -0.458 OA
BRANCH  23  24
ATOM     24  C   UNL     1       4.789  -0.810  -4.259  0.00  0.00    +0.304 C 
ATOM     25  O   UNL     1       5.089   0.031  -3.445  0.00  0.00    -0.251 OA
ATOM     26  C   UNL     1       5.864  -1.625  -4.930  0.00  0.00    +0.136 C 
ENDBRANCH  23  24
ENDBRANCH   1  23
TORSDOF 3
