REMARK  Name = ZINC67294426
REMARK  5 active torsions:
REMARK  status: ('A' for Active; 'I' for Inactive)
REMARK    1  A    between atoms: C_1  and  C_2
REMARK    2  A    between atoms: C_6  and  N_8
REMARK    3  A    between atoms: C_10  and  C_20
REMARK    4  A    between atoms: C_15  and  O_19
REMARK    5  A    between atoms: C_26  and  C_29
REMARK                            x       y       z     vdW  Elec       q    Type
REMARK                         _______ _______ _______ _____ _____    ______ ____
ROOT
ATOM      1  N   UNL     1       0.782  -2.711   2.901  0.00  0.00    -0.323 N 
ATOM      2  C   UNL     1      -0.335  -2.332   3.483  0.00  0.00    +0.212 A 
ATOM      3  C   UNL     1      -0.999  -3.182   4.490  0.00  0.00    +0.098 A 
ATOM      4  C   UNL     1      -1.810  -2.551   5.423  0.00  0.00    +0.030 A 
ATOM      5  C   UNL     1      -1.972  -1.145   5.329  0.00  0.00    +0.018 A 
ATOM      6  C   UNL     1      -2.611  -0.434   6.356  0.00  0.00    +0.015 A 
ATOM      7  C   UNL     1      -2.724   0.922   6.274  0.00  0.00    +0.046 A 
ATOM      8  C   UNL     1      -2.215   1.610   5.173  0.00  0.00    +0.120 A 
ATOM      9  C   UNL     1      -1.597   0.922   4.139  0.00  0.00    +0.092 A 
ATOM     10  C   UNL     1      -1.481  -0.457   4.202  0.00  0.00    +0.141 A 
ATOM     11  O   UNL     1      -0.915  -1.141   3.182  0.00  0.00    -0.438 OA
ATOM     12  H   UNL     1       1.236  -3.514   3.200  0.00  0.00    +0.169 HD
ENDROOT
BRANCH   3  13
ATOM     13  C   UNL     1      -0.809  -4.641   4.504  0.00  0.00    +0.254 C 
ATOM     14  O   UNL     1      -1.261  -5.304   5.418  0.00  0.00    -0.270 OA
ATOM     15  N   UNL     1      -0.135  -5.242   3.504  0.00  0.00    -0.266 N 
ATOM     16  C   UNL     1      -0.014  -6.630   3.482  0.00  0.00    +0.125 A 
ATOM     17  C   UNL     1      -0.208  -7.357   4.651  0.00  0.00    +0.044 A 
ATOM     18  C   UNL     1      -0.084  -8.735   4.614  0.00  0.00    +0.008 A 
ATOM     19  C   UNL     1       0.230  -9.340   3.405  0.00  0.00    -0.032 A 
ATOM     20  C   UNL     1       0.409  -8.556   2.283  0.00  0.00    +0.116 A 
ATOM     21  N   UNL     1       0.279  -7.244   2.346  0.00  0.00    -0.240 NA
ATOM     22  C   UNL     1       0.375 -10.838   3.318  0.00  0.00    +0.045 C 
ATOM     23  H   UNL     1       0.265  -4.709   2.800  0.00  0.00    +0.157 HD
ENDBRANCH   3  13
BRANCH   1  29
ATOM     24  C   UNL     1       1.769   1.665   0.940  0.00  0.00    +0.044 C 
ATOM     25  C   UNL     1       1.800   0.159   0.885  0.00  0.00    -0.048 A 
ATOM     26  C   UNL     1       2.356  -0.480  -0.210  0.00  0.00    +0.006 A 
ATOM     27  C   UNL     1       2.389  -1.862  -0.270  0.00  0.00    +0.041 A 
ATOM     28  C   UNL     1       1.866  -2.614   0.764  0.00  0.00    +0.147 A 
ATOM     29  C   UNL     1       1.302  -1.974   1.873  0.00  0.00    +0.078 A 
ATOM     30  C   UNL     1       1.278  -0.579   1.928  0.00  0.00    +0.032 A 
ATOM     31  F   UNL     1       1.898  -3.963   0.704  0.00  0.00    -0.203 F 
ENDBRANCH   1  29
BRANCH   8  32
ATOM     32  O   UNL     1      -2.326   2.961   5.112  0.00  0.00    -0.507 OA
ATOM     33  H   UNL     1      -1.580   3.434   5.505  0.00  0.00    +0.292 HD
ENDBRANCH   8  32
TORSDOF 3
