REMARK  Name = ZINC00718189
REMARK  8 active torsions:
REMARK  status: ('A' for Active; 'I' for Inactive)
REMARK    1  A    between atoms: C_1  and  C_2
REMARK    2  A    between atoms: C_2  and  C_3
REMARK    3  A    between atoms: C_6  and  C_8
REMARK    4  A    between atoms: C_13  and  C_18
REMARK    5  A    between atoms: C_21  and  O_26
REMARK    6  A    between atoms: C_22  and  O_24
REMARK    7  A    between atoms: O_24  and  C_25
REMARK    8  A    between atoms: O_26  and  C_27
REMARK                            x       y       z     vdW  Elec       q    Type
REMARK                         _______ _______ _______ _____ _____    ______ ____
ROOT
ATOM      1  C   UNL     1      -5.689  -1.925   0.115  0.00  0.00    +0.143 C 
ATOM      2  C   UNL     1      -4.428  -1.106  -0.038  0.00  0.00    +0.037 C 
ATOM      3  C   UNL     1      -3.872  -0.725  -1.200  0.00  0.00    +0.017 C 
ATOM      4  C   UNL     1      -2.574   0.066  -1.207  0.00  0.00    +0.059 C 
ATOM      5  C   UNL     1      -2.513   0.975   0.020  0.00  0.00    +0.032 C 
ATOM      6  C   UNL     1      -2.582   0.083   1.265  0.00  0.00    +0.088 C 
ATOM      7  C   UNL     1      -3.829  -0.745   1.192  0.00  0.00    +0.163 C 
ATOM      8  O   UNL     1      -4.345  -1.120   2.227  0.00  0.00    -0.292 OA
ATOM      9  N   UNL     1      -4.373  -1.003  -2.430  0.00  0.00    -0.316 N 
ATOM     10  C   UNL     1      -4.820  -2.255  -2.839  0.00  0.00    +0.052 A 
ATOM     11  C   UNL     1      -4.232  -2.942  -3.887  0.00  0.00    +0.025 A 
ATOM     12  C   UNL     1      -4.792  -4.134  -4.315  0.00  0.00    +0.002 A 
ATOM     13  C   UNL     1      -5.926  -4.633  -3.700  0.00  0.00    +0.002 A 
ATOM     14  C   UNL     1      -6.503  -3.956  -2.639  0.00  0.00    +0.025 A 
ATOM     15  C   UNL     1      -5.935  -2.772  -2.197  0.00  0.00    +0.049 A 
ATOM     16  N   UNL     1      -6.454  -2.079  -1.105  0.00  0.00    -0.331 N 
ATOM     17  H   UNL     1      -4.423  -0.276  -3.070  0.00  0.00    +0.152 HD
ATOM     18  H   UNL     1      -7.342  -1.694  -1.162  0.00  0.00    +0.147 HD
ENDROOT
BRANCH   5  19
ATOM     19  C   UNL     1      -1.220   1.749   0.017  0.00  0.00    -0.040 A 
ATOM     20  C   UNL     1      -0.013   1.076   0.008  0.00  0.00    +0.008 A 
ATOM     21  C   UNL     1       1.176   1.782   0.000  0.00  0.00    +0.049 A 
ATOM     22  C   UNL     1       1.159   3.167   0.007  0.00  0.00    +0.161 A 
ATOM     23  C   UNL     1      -0.056   3.845   0.022  0.00  0.00    +0.162 A 
ATOM     24  C   UNL     1      -1.244   3.131   0.030  0.00  0.00    +0.053 A 
BRANCH  23  25
ATOM     25  O   UNL     1      -0.078   5.205   0.030  0.00  0.00    -0.491 OA
ATOM     26  C   UNL     1      -1.362   5.833   0.045  0.00  0.00    +0.277 C 
ENDBRANCH  23  25
BRANCH  22  27
ATOM     27  O   UNL     1       2.327   3.863  -0.000  0.00  0.00    -0.491 OA
ATOM     28  C   UNL     1       3.536   3.101  -0.016  0.00  0.00    +0.277 C 
ENDBRANCH  22  27
ENDBRANCH   5  19
BRANCH   1  32
ATOM     29  C   UNL     1      -4.526  -5.836   1.062  0.00  0.00    -0.010 A 
ATOM     30  C   UNL     1      -4.967  -5.092   2.105  0.00  0.00    +0.011 A 
ATOM     31  C   UNL     1      -5.369  -3.789   1.876  0.00  0.00    +0.013 A 
ATOM     32  C   UNL     1      -5.311  -3.295   0.615  0.00  0.00    +0.015 A 
ATOM     33  S   UNL     1      -4.678  -4.691  -0.299  0.00  0.00    -0.096 S 
BRANCH  29  35
ATOM     34  C   UNL     1      -5.219  -8.203   0.808  0.00  0.00    +0.009 C 
ATOM     35  C   UNL     1      -4.038  -7.262   1.053  0.00  0.00    +0.039 C 
ENDBRANCH  29  35
ENDBRANCH   1  32
TORSDOF 5
