REMARK  Name = ZINC08971866
REMARK  5 active torsions:
REMARK  status: ('A' for Active; 'I' for Inactive)
REMARK    1  A    between atoms: C_1  and  C_2
REMARK    2  A    between atoms: C_5  and  C_8
REMARK    3  A    between atoms: C_8  and  C_10
REMARK    4  A    between atoms: C_30  and  C_38
REMARK    5  A    between atoms: C_32  and  C_37
REMARK                            x       y       z     vdW  Elec       q    Type
REMARK                         _______ _______ _______ _____ _____    ______ ____
ROOT
ATOM      1  C   UNL     1      -2.058   0.656  -1.741  0.00  0.00    +0.066 C 
ATOM      2  C   UNL     1      -1.069   1.800  -1.403  0.00  0.00    -0.055 C 
ATOM      3  C   UNL     1      -0.368   1.473  -0.072  0.00  0.00    -0.016 C 
ATOM      4  C   UNL     1      -1.273   2.059   1.029  0.00  0.00    -0.020 C 
ATOM      5  C   UNL     1      -2.473   2.674   0.277  0.00  0.00    -0.076 C 
ATOM      6  C   UNL     1      -3.086   2.848  -2.055  0.00  0.00    +0.060 C 
ATOM      7  C   UNL     1      -3.181   1.391  -2.495  0.00  0.00    +0.085 C 
ATOM      8  C   UNL     1      -3.026   1.240  -3.981  0.00  0.00    -0.011 A 
ATOM      9  C   UNL     1      -2.031   1.581  -4.870  0.00  0.00    +0.006 A 
ATOM     10  C   UNL     1      -2.182   1.306  -6.218  0.00  0.00    +0.000 A 
ATOM     11  C   UNL     1      -3.334   0.688  -6.669  0.00  0.00    +0.002 A 
ATOM     12  C   UNL     1      -4.333   0.344  -5.782  0.00  0.00    +0.023 A 
ATOM     13  C   UNL     1      -4.189   0.618  -4.424  0.00  0.00    +0.038 A 
ATOM     14  N   UNL     1      -5.045   0.371  -3.347  0.00  0.00    -0.285 N 
ATOM     15  C   UNL     1      -4.526   0.795  -2.179  0.00  0.00    +0.228 C 
ATOM     16  O   UNL     1      -5.043   0.713  -1.085  0.00  0.00    -0.275 OA
ATOM     17  C   UNL     1      -4.375   3.323  -1.440  0.00  0.00    -0.026 A 
ATOM     18  C   UNL     1      -5.111   2.909  -0.352  0.00  0.00    +0.008 A 
ATOM     19  C   UNL     1      -6.287   3.561  -0.024  0.00  0.00    -0.050 A 
ATOM     20  C   UNL     1      -6.720   4.627  -0.791  0.00  0.00    +0.008 A 
ATOM     21  C   UNL     1      -5.986   5.045  -1.881  0.00  0.00    -0.029 A 
ATOM     22  C   UNL     1      -4.801   4.394  -2.219  0.00  0.00    +0.039 A 
ATOM     23  N   UNL     1      -3.896   4.625  -3.257  0.00  0.00    -0.286 N 
ATOM     24  C   UNL     1      -2.863   3.763  -3.232  0.00  0.00    +0.212 C 
ATOM     25  O   UNL     1      -1.931   3.729  -4.007  0.00  0.00    -0.277 OA
ATOM     26  C   UNL     1      -6.467   6.207  -2.711  0.00  0.00    +0.045 C 
ATOM     27  C   UNL     1      -7.093   3.110   1.166  0.00  0.00    +0.044 C 
ATOM     28  H   UNL     1      -5.911  -0.056  -3.432  0.00  0.00    +0.155 HD
ATOM     29  H   UNL     1      -4.000   5.326  -3.919  0.00  0.00    +0.155 HD
ATOM     30  N   UNL     1      -1.973   2.893  -1.095  0.00  0.00    +0.395 N 
ATOM     31  H   UNL     1      -1.488   3.796  -1.157  0.00  0.00    -0.079 HD
ENDROOT
BRANCH   1  32
ATOM     32  C   UNL     1      -1.404  -0.372  -2.628  0.00  0.00    +0.166 C 
ATOM     33  O   UNL     1      -0.445  -0.067  -3.304  0.00  0.00    -0.292 OA
BRANCH  32  38
ATOM     34  C   UNL     1      -3.453  -5.740  -2.804  0.00  0.00    +0.044 C 
ATOM     35  C   UNL     1      -2.916  -4.333  -2.758  0.00  0.00    -0.050 A 
ATOM     36  C   UNL     1      -1.896  -3.957  -3.615  0.00  0.00    +0.004 A 
ATOM     37  C   UNL     1      -1.399  -2.671  -3.579  0.00  0.00    +0.011 A 
ATOM     38  C   UNL     1      -1.929  -1.746  -2.673  0.00  0.00    +0.018 A 
ATOM     39  C   UNL     1      -2.956  -2.135  -1.807  0.00  0.00    +0.011 A 
ATOM     40  C   UNL     1      -3.446  -3.423  -1.859  0.00  0.00    +0.004 A 
ENDBRANCH  32  38
ENDBRANCH   1  32
TORSDOF 2
