REMARK  Name = ZINC04306809
REMARK  7 active torsions:
REMARK  status: ('A' for Active; 'I' for Inactive)
REMARK    1  A    between atoms: C_1  and  C_2
REMARK    2  A    between atoms: C_5  and  C_29
REMARK    3  A    between atoms: C_6  and  C_8
REMARK    4  A    between atoms: C_8  and  C_10
REMARK    5  A    between atoms: C_10  and  N_11
REMARK    6  A    between atoms: C_14  and  C_18
REMARK    7  A    between atoms: C_14  and  C_19
REMARK                            x       y       z     vdW  Elec       q    Type
REMARK                         _______ _______ _______ _____ _____    ______ ____
ROOT
ATOM      1  N   UNL     1      -3.642  -0.172   2.225  0.00  0.00    -0.216 N 
ATOM      2  C   UNL     1      -3.653   1.085   1.742  0.00  0.00    +0.251 C 
ATOM      3  O   UNL     1      -4.078   2.078   2.293  0.00  0.00    -0.272 OA
ATOM      4  C   UNL     1      -3.022   1.001   0.366  0.00  0.00    +0.136 C 
ATOM      5  N   UNL     1      -2.699  -0.429   0.221  0.00  0.00    -0.281 N 
ATOM      6  C   UNL     1      -3.098  -1.031   1.355  0.00  0.00    +0.310 C 
ATOM      7  O   UNL     1      -2.978  -2.222   1.567  0.00  0.00    -0.252 OA
ATOM      8  C   UNL     1      -4.014   1.441  -0.713  0.00  0.00    +0.047 C 
ATOM      9  H   UNL     1      -2.280  -0.854  -0.544  0.00  0.00    +0.152 HD
ENDROOT
BRANCH   4  10
ATOM     10  C   UNL     1      -1.770   1.836   0.305  0.00  0.00    -0.008 A 
ATOM     11  C   UNL     1      -0.562   1.245   0.090  0.00  0.00    +0.007 A 
ATOM     12  C   UNL     1       0.606   2.002   0.025  0.00  0.00    +0.001 A 
ATOM     13  C   UNL     1       0.575   3.354   0.179  0.00  0.00    +0.008 A 
ATOM     14  C   UNL     1      -0.652   3.999   0.407  0.00  0.00    -0.018 A 
ATOM     15  C   UNL     1      -1.841   3.229   0.474  0.00  0.00    -0.012 A 
ATOM     16  C   UNL     1      -3.068   3.875   0.703  0.00  0.00    +0.009 A 
ATOM     17  C   UNL     1      -3.099   5.227   0.856  0.00  0.00    +0.001 A 
ATOM     18  C   UNL     1      -1.931   5.984   0.790  0.00  0.00    +0.001 A 
ATOM     19  C   UNL     1      -0.725   5.393   0.571  0.00  0.00    +0.008 A 
ENDBRANCH   4  10
BRANCH   1  20
ATOM     20  C   UNL     1      -4.163  -0.553   3.541  0.00  0.00    +0.197 C 
BRANCH  20  21
ATOM     21  C   UNL     1      -3.062  -0.452   4.565  0.00  0.00    +0.181 C 
ATOM     22  O   UNL     1      -1.952  -0.098   4.229  0.00  0.00    -0.290 OA
BRANCH  21  28
ATOM     23  C   UNL     1      -6.181  -2.131   8.075  0.00  0.00    +0.044 C 
ATOM     24  C   UNL     1      -4.833  -1.592   7.669  0.00  0.00    -0.050 A 
ATOM     25  C   UNL     1      -3.847  -1.408   8.623  0.00  0.00    +0.003 A 
ATOM     26  C   UNL     1      -2.607  -0.913   8.259  0.00  0.00    +0.004 A 
ATOM     27  C   UNL     1      -2.344  -0.600   6.942  0.00  0.00    -0.040 A 
ATOM     28  C   UNL     1      -3.334  -0.784   5.973  0.00  0.00    +0.022 A 
ATOM     29  C   UNL     1      -4.588  -1.279   6.349  0.00  0.00    +0.015 A 
ATOM     30  C   UNL     1      -0.993  -0.061   6.549  0.00  0.00    +0.044 C 
ENDBRANCH  21  28
ENDBRANCH  20  21
ENDBRANCH   1  20
TORSDOF 4
