REMARK  Name = ZINC37806616
REMARK  6 active torsions:
REMARK  status: ('A' for Active; 'I' for Inactive)
REMARK    1  A    between atoms: C_1  and  C_2
REMARK    2  A    between atoms: C_2  and  C_4
REMARK    3  A    between atoms: C_2  and  N_12
REMARK    4  A    between atoms: N_12  and  C_13
REMARK    5  A    between atoms: C_14  and  C_16
REMARK    6  A    between atoms: C_19  and  O_23
REMARK                            x       y       z     vdW  Elec       q    Type
REMARK                         _______ _______ _______ _____ _____    ______ ____
ROOT
ATOM      1  N   UNL     1      -1.325  -0.565   0.064  0.00  0.00    -0.299 N 
ATOM      2  C   UNL     1      -2.233  -0.396  -1.074  0.00  0.00    +0.132 C 
ATOM      3  C   UNL     1      -1.731  -1.244   1.155  0.00  0.00    +0.202 C 
ATOM      4  O   UNL     1      -0.980  -1.384   2.096  0.00  0.00    -0.277 OA
ENDROOT
BRANCH   3   5
ATOM      5  C   UNL     1      -3.119  -1.830   1.204  0.00  0.00    +0.019 C 
ATOM      6  C   UNL     1      -4.139  -0.732   1.572  0.00  0.00    +0.023 C 
ATOM      7  C   UNL     1      -5.132  -1.476   2.503  0.00  0.00    +0.097 C 
ATOM      8  C   UNL     1      -4.187  -2.440   3.262  0.00  0.00    -0.050 C 
ATOM      9  N   UNL     1      -3.189  -2.865   2.252  0.00  0.00    +0.388 N 
ATOM     10  H   UNL     1      -3.469  -3.744   1.843  0.00  0.00    -0.085 HD
ATOM     11  H   UNL     1      -2.285  -2.968   2.689  0.00  0.00    -0.085 HD
BRANCH   7  12
ATOM     12  O   UNL     1      -5.768  -0.567   3.404  0.00  0.00    -0.394 OA
ATOM     13  H   UNL     1      -6.398  -0.986   4.006  0.00  0.00    +0.210 HD
ENDBRANCH   7  12
ENDBRANCH   3   5
BRANCH   1  15
ATOM     14  C   UNL     1      -0.068   1.532  -0.022  0.00  0.00    +0.033 C 
ATOM     15  C   UNL     1       0.024   0.005   0.015  0.00  0.00    +0.104 C 
BRANCH  15  16
ATOM     16  C   UNL     1       0.732  -0.486  -1.221  0.00  0.00    -0.009 A 
ATOM     17  C   UNL     1       0.877   0.350  -2.312  0.00  0.00    +0.008 A 
ATOM     18  C   UNL     1       1.527  -0.099  -3.446  0.00  0.00    +0.020 A 
ATOM     19  C   UNL     1       2.033  -1.386  -3.490  0.00  0.00    +0.042 A 
ATOM     20  C   UNL     1       1.889  -2.223  -2.398  0.00  0.00    +0.040 A 
ATOM     21  C   UNL     1       1.242  -1.771  -1.262  0.00  0.00    +0.047 A 
ATOM     22 CL   UNL     1       1.066  -2.819   0.111  0.00  0.00    -0.083 Cl
ATOM     23 CL   UNL     1       2.848  -1.950  -4.915  0.00  0.00    -0.083 Cl
ENDBRANCH  15  16
ENDBRANCH   1  15
TORSDOF 4
