REMARK  Name = ZINC39217805
REMARK  7 active torsions:
REMARK  status: ('A' for Active; 'I' for Inactive)
REMARK    1  A    between atoms: C_1  and  C_2
REMARK    2  A    between atoms: C_4  and  C_16
REMARK    3  A    between atoms: C_6  and  C_14
REMARK    4  A    between atoms: C_7  and  N_13
REMARK    5  A    between atoms: C_18  and  C_21
REMARK    6  A    between atoms: C_21  and  S_22
REMARK    7  A    between atoms: S_22  and  C_23
REMARK                            x       y       z     vdW  Elec       q    Type
REMARK                         _______ _______ _______ _____ _____    ______ ____
ROOT
ATOM      1  C   UNL     1      -0.018   1.503   0.010  0.00  0.00    +0.067 C 
ATOM      2  C   UNL     1       0.002  -0.004   0.002  0.00  0.00    +0.066 C 
ATOM      3  C   UNL     1      -1.064  -0.768   0.003  0.00  0.00    +0.030 C 
ATOM      4  C   UNL     1      -2.537  -0.492  -0.122  0.00  0.00    +0.104 C 
ATOM      5  C   UNL     1      -3.075  -1.565  -1.050  0.00  0.00    +0.098 C 
ATOM      6  C   UNL     1      -2.317  -2.612  -1.438  0.00  0.00    +0.195 C 
ATOM      7  O   UNL     1      -1.033  -2.841  -1.107  0.00  0.00    -0.448 OA
ATOM      8  C   UNL     1      -0.528  -2.199   0.066  0.00  0.00    +0.343 C 
ATOM      9  N   UNL     1       0.921  -1.985   0.002  0.00  0.00    -0.138 NA
ATOM     10  N   UNL     1       1.127  -0.765  -0.013  0.00  0.00    -0.155 NA
ENDROOT
BRANCH   4  11
ATOM     11  C   UNL     1      -2.762   0.875  -0.717  0.00  0.00    +0.003 A 
ATOM     12  C   UNL     1      -3.409   1.941  -0.185  0.00  0.00    +0.016 A 
ATOM     13  C   UNL     1      -3.493   3.108  -0.920  0.00  0.00    -0.030 A 
ATOM     14  C   UNL     1      -2.927   3.153  -2.151  0.00  0.00    +0.050 A 
ATOM     15  S   UNL     1      -2.240   1.512  -2.301  0.00  0.00    -0.100 S 
BRANCH  13  16
ATOM     16  C   UNL     1      -4.204   4.314  -0.361  0.00  0.00    +0.112 C 
BRANCH  16  17
ATOM     17  S   UNL     1      -3.024   5.341   0.557  0.00  0.00    -0.092 S 
BRANCH  17  18
ATOM     18  C   UNL     1      -3.996   6.690   1.139  0.00  0.00    +0.160 A 
ATOM     19  N   UNL     1      -5.282   6.928   0.971  0.00  0.00    -0.133 NA
ATOM     20  N   UNL     1      -5.847   8.056   1.518  0.00  0.00    -0.125 NA
ATOM     21  C   UNL     1      -5.100   8.896   2.208  0.00  0.00    +0.180 A 
ATOM     22  S   UNL     1      -3.503   8.100   2.120  0.00  0.00    -0.025 S 
ATOM     23  N   UNL     1      -5.460  10.081   2.839  0.00  0.00    -0.336 N 
ATOM     24  H   UNL     1      -6.378  10.390   2.804  0.00  0.00    +0.144 HD
ATOM     25  H   UNL     1      -4.792  10.600   3.314  0.00  0.00    +0.144 HD
ENDBRANCH  17  18
ENDBRANCH  16  17
ENDBRANCH  13  16
ENDBRANCH   4  11
BRANCH   6  26
ATOM     26  N   UNL     1      -2.917  -3.538  -2.254  0.00  0.00    -0.329 N 
ATOM     27  H   UNL     1      -3.842  -3.421  -2.523  0.00  0.00    +0.145 HD
ATOM     28  H   UNL     1      -2.417  -4.310  -2.562  0.00  0.00    +0.145 HD
ENDBRANCH   6  26
BRANCH   5  29
ATOM     29  C   UNL     1      -4.422  -1.466  -1.525  0.00  0.00    +0.101 C 
ATOM     30  N   UNL     1      -5.491  -1.387  -1.903  0.00  0.00    -0.191 NA
ENDBRANCH   5  29
TORSDOF 6
