REMARK  Name = ZINC41584736
REMARK  5 active torsions:
REMARK  status: ('A' for Active; 'I' for Inactive)
REMARK    1  A    between atoms: C_1  and  C_2
REMARK    2  A    between atoms: C_4  and  O_37
REMARK    3  A    between atoms: C_5  and  C_20
REMARK    4  A    between atoms: C_11  and  C_12
REMARK    5  A    between atoms: C_20  and  N_21
REMARK                            x       y       z     vdW  Elec       q    Type
REMARK                         _______ _______ _______ _____ _____    ______ ____
ROOT
ATOM      1  C   UNL     1       0.372   1.463  -0.007  0.00  0.00    +0.045 C 
ATOM      2  C   UNL     1       0.064  -0.012  -0.001  0.00  0.00    -0.033 A 
ATOM      3  C   UNL     1      -0.157  -0.670  -1.179  0.00  0.00    +0.050 A 
ATOM      4  C   UNL     1      -0.442  -2.032  -1.175  0.00  0.00    +0.122 A 
ATOM      5  C   UNL     1      -0.507  -2.736   0.017  0.00  0.00    +0.020 A 
ATOM      6  C   UNL     1      -0.285  -2.083   1.222  0.00  0.00    +0.145 A 
ATOM      7  C   UNL     1       0.008  -0.710   1.206  0.00  0.00    +0.071 A 
ATOM      8  C   UNL     1       0.197  -0.308   2.612  0.00  0.00    +0.232 C 
ATOM      9  O   UNL     1       0.461   0.801   3.042  0.00  0.00    -0.283 OA
ATOM     10  C   UNL     1      -0.006  -1.548   3.379  0.00  0.00    +0.176 C 
ATOM     11  C   UNL     1       0.067  -1.676   4.727  0.00  0.00    +0.058 C 
ATOM     12  O   UNL     1      -0.291  -2.533   2.496  0.00  0.00    -0.451 OA
ENDROOT
BRANCH  11  13
ATOM     13  C   UNL     1      -0.020  -3.007   5.344  0.00  0.00    -0.020 A 
ATOM     14  C   UNL     1      -0.006  -4.156   4.544  0.00  0.00    +0.008 A 
ATOM     15  C   UNL     1      -0.088  -5.401   5.130  0.00  0.00    +0.002 A 
ATOM     16  C   UNL     1      -0.184  -5.518   6.506  0.00  0.00    +0.020 A 
ATOM     17  C   UNL     1      -0.200  -4.387   7.306  0.00  0.00    +0.042 A 
ATOM     18  C   UNL     1      -0.113  -3.133   6.735  0.00  0.00    +0.028 A 
ATOM     19 CL   UNL     1      -0.323  -4.547   9.030  0.00  0.00    -0.084 Cl
ENDBRANCH  11  13
BRANCH   4  20
ATOM     20  O   UNL     1      -0.660  -2.677  -2.350  0.00  0.00    -0.506 OA
ATOM     21  H   UNL     1       0.140  -3.045  -2.751  0.00  0.00    +0.292 HD
ENDBRANCH   4  20
BRANCH   5  22
ATOM     22  C   UNL     1      -0.817  -4.211   0.005  0.00  0.00    -0.036 C 
BRANCH  22  23
ATOM     23  N   UNL     1       0.434  -4.974  -0.093  0.00  0.00    +0.383 N 
ATOM     24  C   UNL     1       0.142  -6.406   0.024  0.00  0.00    -0.073 C 
ATOM     25  C   UNL     1       1.413  -7.236  -0.075  0.00  0.00    -0.007 C 
ATOM     26  C   UNL     1       2.156  -6.936  -1.381  0.00  0.00    +0.011 C 
ATOM     27  C   UNL     1       2.428  -5.427  -1.417  0.00  0.00    +0.020 C 
ATOM     28  C   UNL     1       1.073  -4.700  -1.389  0.00  0.00    -0.069 C 
ATOM     29  C   UNL     1       3.194  -5.033  -0.174  0.00  0.00    +0.023 A 
ATOM     30  C   UNL     1       4.024  -3.961  -0.262  0.00  0.00    +0.022 A 
ATOM     31  C   UNL     1       4.715  -3.503   0.866  0.00  0.00    +0.007 A 
ATOM     32  C   UNL     1       4.520  -4.135   2.059  0.00  0.00    +0.070 A 
ATOM     33  C   UNL     1       3.654  -5.235   2.116  0.00  0.00    +0.251 A 
ATOM     34  O   UNL     1       3.425  -5.769   3.189  0.00  0.00    -0.268 OA
ATOM     35  N   UNL     1       3.068  -5.712   0.990  0.00  0.00    -0.312 N 
ATOM     36  C   UNL     1       2.348  -6.978   1.094  0.00  0.00    +0.126 C 
ATOM     37  H   UNL     1       1.055  -4.697   0.652  0.00  0.00    -0.081 HD
ENDBRANCH  22  23
ENDBRANCH   5  22
TORSDOF 4
