REMARK  Name = ZINC29406892
REMARK  8 active torsions:
REMARK  status: ('A' for Active; 'I' for Inactive)
REMARK    1  A    between atoms: C_1  and  C_2
REMARK    2  A    between atoms: C_3  and  C_14
REMARK    3  A    between atoms: N_5  and  C_7
REMARK    4  A    between atoms: C_15  and  C_16
REMARK    5  A    between atoms: C_16  and  O_18
REMARK    6  A    between atoms: O_18  and  C_19
REMARK    7  A    between atoms: C_19  and  C_20
REMARK    8  A    between atoms: C_24  and  C_33
REMARK                            x       y       z     vdW  Elec       q    Type
REMARK                         _______ _______ _______ _____ _____    ______ ____
ROOT
ATOM      1  O   UNL     1      -4.636  -0.185   3.541  0.00  0.00    -0.452 OA
ENDROOT
BRANCH   1   2
ATOM      2  C   UNL     1      -5.923  -0.572   3.659  0.00  0.00    +0.332 C 
ATOM      3  O   UNL     1      -6.645  -0.589   2.679  0.00  0.00    -0.246 OA
BRANCH   2   5
ATOM      4  C   UNL     1      -7.723  -1.348   5.038  0.00  0.00    +0.020 C 
ATOM      5  C   UNL     1      -6.433  -0.959   4.920  0.00  0.00    +0.092 C 
BRANCH   4   8
ATOM      6  C   UNL     1     -10.399  -0.276   6.364  0.00  0.00    +0.068 C 
ATOM      7  C   UNL     1      -9.443  -1.281   6.952  0.00  0.00    +0.069 A 
ATOM      8  C   UNL     1      -8.252  -1.749   6.347  0.00  0.00    +0.035 A 
ATOM      9  C   UNL     1      -7.683  -2.662   7.220  0.00  0.00    +0.140 A 
ATOM     10  N   UNL     1      -8.484  -2.735   8.301  0.00  0.00    -0.221 N 
ATOM     11  N   UNL     1      -9.569  -1.872   8.108  0.00  0.00    -0.170 NA
ATOM     12 CL   UNL     1      -6.210  -3.546   6.970  0.00  0.00    -0.061 Cl
BRANCH  10  13
ATOM     13  C   UNL     1      -8.270  -3.541   9.427  0.00  0.00    +0.067 A 
ATOM     14  C   UNL     1      -7.689  -4.795   9.284  0.00  0.00    +0.028 A 
ATOM     15  C   UNL     1      -7.474  -5.585  10.396  0.00  0.00    +0.002 A 
ATOM     16  C   UNL     1      -7.846  -5.135  11.649  0.00  0.00    +0.000 A 
ATOM     17  C   UNL     1      -8.430  -3.889  11.794  0.00  0.00    +0.002 A 
ATOM     18  C   UNL     1      -8.642  -3.092  10.686  0.00  0.00    +0.028 A 
ENDBRANCH  10  13
ENDBRANCH   4   8
ENDBRANCH   2   5
ENDBRANCH   1   2
BRANCH   1  19
ATOM     19  C   UNL     1      -4.188   0.193   2.237  0.00  0.00    +0.328 C 
BRANCH  19  20
ATOM     20  C   UNL     1      -2.736   0.592   2.301  0.00  0.00    +0.258 C 
ATOM     21  O   UNL     1      -2.119   0.472   3.338  0.00  0.00    -0.272 OA
ATOM     22  N   UNL     1      -2.124   1.083   1.205  0.00  0.00    -0.261 N 
ATOM     23  C   UNL     1      -2.825   1.155  -0.092  0.00  0.00    +0.168 C 
ATOM     24  C   UNL     1      -2.474   2.507  -0.730  0.00  0.00    +0.276 C 
ATOM     25  O   UNL     1      -1.054   2.596  -0.875  0.00  0.00    -0.476 OA
ATOM     26  C   UNL     1      -0.287   2.302   0.207  0.00  0.00    +0.143 A 
ATOM     27  C   UNL     1      -0.798   1.545   1.259  0.00  0.00    +0.078 A 
ATOM     28  C   UNL     1      -0.003   1.249   2.354  0.00  0.00    +0.027 A 
ATOM     29  C   UNL     1       1.301   1.709   2.404  0.00  0.00    +0.002 A 
ATOM     30  C   UNL     1       1.809   2.462   1.363  0.00  0.00    +0.004 A 
ATOM     31  C   UNL     1       1.021   2.760   0.267  0.00  0.00    +0.047 A 
BRANCH  24  32
ATOM     32  C   UNL     1      -3.127   2.611  -2.083  0.00  0.00    +0.253 C 
ATOM     33  O   UNL     1      -2.444   2.663  -3.084  0.00  0.00    -0.272 OA
ATOM     34  N   UNL     1      -4.471   2.648  -2.182  0.00  0.00    -0.326 N 
ATOM     35  H   UNL     1      -4.948   2.724  -3.170  0.00  0.00    +0.145 HD
ATOM     36  H   UNL     1      -5.090   2.601  -1.274  0.00  0.00    +0.145 HD
ENDBRANCH  24  32
ENDBRANCH  19  20
ENDBRANCH   1  19
TORSDOF 7
