REMARK  Name = ZINC20571159
REMARK  10 active torsions:
REMARK  status: ('A' for Active; 'I' for Inactive)
REMARK    1  A    between atoms: C_1  and  C_2
REMARK    2  A    between atoms: C_2  and  N_3
REMARK    3  A    between atoms: C_9  and  N_15
REMARK    4  A    between atoms: C_10  and  C_11
REMARK    5  A    between atoms: C_11  and  O_13
REMARK    6  A    between atoms: O_13  and  C_14
REMARK    7  A    between atoms: C_16  and  C_18
REMARK    8  A    between atoms: C_21  and  N_24
REMARK    9  A    between atoms: N_24  and  S_25
REMARK   10  A    between atoms: S_25  and  C_28
REMARK                            x       y       z     vdW  Elec       q    Type
REMARK                         _______ _______ _______ _____ _____    ______ ____
ROOT
ATOM      1  N   UNL     1       1.406   1.991   2.474  0.00  0.00    -0.275 N 
ATOM      2  C   UNL     1       2.190   2.397   3.492  0.00  0.00    +0.249 C 
ATOM      3  O   UNL     1       3.247   2.953   3.261  0.00  0.00    -0.270 OA
ATOM      4  H   UNL     1       0.450   1.488   2.682  0.00  0.00    +0.156 HD
ENDROOT
BRANCH   1  11
ATOM      5  N   UNL     1       3.366   2.663  -3.519  0.00  0.00    +0.383 N 
ATOM      6  C   UNL     1       1.911   2.812  -3.661  0.00  0.00    -0.074 C 
ATOM      7  C   UNL     1       1.190   1.927  -2.640  0.00  0.00    +0.018 C 
ATOM      8  C   UNL     1       1.776   2.215  -1.263  0.00  0.00    -0.025 A 
ATOM      9  C   UNL     1       2.970   2.839  -1.151  0.00  0.00    -0.021 A 
ATOM     10  S   UNL     1       3.251   2.968   0.590  0.00  0.00    -0.079 S 
ATOM     11  C   UNL     1       1.803   2.208   1.165  0.00  0.00    +0.086 A 
ATOM     12  C   UNL     1       1.138   1.865  -0.007  0.00  0.00    +0.091 A 
ATOM     13  C   UNL     1       3.838   3.305  -2.278  0.00  0.00    -0.035 C 
ATOM     14  H   UNL     1       3.594   1.589  -3.461  0.00  0.00    -0.081 HD
BRANCH   5  16
ATOM     15  C   UNL     1       3.690   4.676  -4.876  0.00  0.00    -0.017 C 
ATOM     16  C   UNL     1       4.067   3.205  -4.691  0.00  0.00    -0.082 C 
ENDBRANCH   5  16
BRANCH  12  17
ATOM     17  C   UNL     1      -0.158   1.185   0.024  0.00  0.00    +0.342 C 
ATOM     18  O   UNL     1      -0.206  -0.031   0.027  0.00  0.00    -0.245 OA
BRANCH  17  19
ATOM     19  O   UNL     1      -1.298   1.905   0.045  0.00  0.00    -0.464 OA
ATOM     20  C   UNL     1      -2.546   1.164   0.070  0.00  0.00    +0.280 C 
ENDBRANCH  17  19
ENDBRANCH  12  17
ENDBRANCH   1  11
BRANCH   2  21
ATOM     21  C   UNL     1       1.768   2.166   4.885  0.00  0.00    +0.037 A 
ATOM     22  C   UNL     1       0.550   1.532   5.153  0.00  0.00    +0.015 A 
ATOM     23  C   UNL     1       0.161   1.314   6.454  0.00  0.00    +0.025 A 
ATOM     24  C   UNL     1       0.973   1.734   7.505  0.00  0.00    +0.048 A 
ATOM     25  C   UNL     1       2.183   2.371   7.242  0.00  0.00    +0.025 A 
ATOM     26  C   UNL     1       2.580   2.587   5.943  0.00  0.00    +0.015 A 
BRANCH  24  27
ATOM     27  N   UNL     1       0.574   1.518   8.819  0.00  0.00    -0.216 N 
ATOM     28  H   UNL     1       1.287   1.111   9.551  0.00  0.00    +0.174 HD
BRANCH  27  29
ATOM     29  S   UNL     1      -0.976   1.871   9.283  0.00  0.00    +0.072 S 
ATOM     30  O   UNL     1      -1.836   1.211   8.364  0.00  0.00    -0.150 OA
ATOM     31  O   UNL     1      -1.042   1.646  10.684  0.00  0.00    -0.150 OA
BRANCH  29  32
ATOM     32  C   UNL     1      -1.211   3.601   9.039  0.00  0.00    +0.108 A 
ATOM     33  C   UNL     1      -0.828   4.495  10.020  0.00  0.00    +0.029 A 
ATOM     34  C   UNL     1      -1.007   5.852   9.827  0.00  0.00    +0.002 A 
ATOM     35  C   UNL     1      -1.580   6.314   8.656  0.00  0.00    +0.000 A 
ATOM     36  C   UNL     1      -1.969   5.419   7.677  0.00  0.00    +0.002 A 
ATOM     37  C   UNL     1      -1.784   4.062   7.868  0.00  0.00    +0.029 A 
ENDBRANCH  29  32
ENDBRANCH  27  29
ENDBRANCH  24  27
ENDBRANCH   2  21
TORSDOF 8
