REMARK  Name = ZINC02506365
REMARK  7 active torsions:
REMARK  status: ('A' for Active; 'I' for Inactive)
REMARK    1  A    between atoms: C_3  and  O_22
REMARK    2  A    between atoms: C_6  and  C_7
REMARK    3  A    between atoms: N_8  and  N_9
REMARK    4  A    between atoms: C_10  and  C_12
REMARK    5  A    between atoms: N_14  and  C_15
REMARK    6  A    between atoms: O_22  and  C_23
REMARK    7  A    between atoms: C_23  and  C_25
REMARK                            x       y       z     vdW  Elec       q    Type
REMARK                         _______ _______ _______ _____ _____    ______ ____
ROOT
ATOM      1  C   UNL     1       1.833  -8.384  -0.222  0.00  0.00    +0.138 C 
ATOM      2  N   UNL     1       0.644  -8.907  -0.262  0.00  0.00    -0.187 NA
ENDROOT
BRANCH   1   8
ATOM      3  C   UNL     1       3.271  -6.357  -0.117  0.00  0.00    +0.013 A 
ATOM      4  C   UNL     1       3.416  -4.988  -0.060  0.00  0.00    +0.047 A 
ATOM      5  C   UNL     1       2.294  -4.168  -0.045  0.00  0.00    +0.132 A 
ATOM      6  C   UNL     1       1.022  -4.725  -0.083  0.00  0.00    +0.047 A 
ATOM      7  C   UNL     1       0.867  -6.093  -0.145  0.00  0.00    +0.013 A 
ATOM      8  C   UNL     1       1.993  -6.921  -0.160  0.00  0.00    -0.005 A 
BRANCH   5   9
ATOM      9  O   UNL     1       2.442  -2.819   0.011  0.00  0.00    -0.422 OA
BRANCH   9  10
ATOM     10  C   UNL     1       2.834  -2.199  -1.119  0.00  0.00    +0.344 C 
ATOM     11  O   UNL     1       3.126  -2.852  -2.101  0.00  0.00    -0.245 OA
BRANCH  10  12
ATOM     12  C   UNL     1       2.908  -0.725  -1.164  0.00  0.00    +0.059 A 
ATOM     13  C   UNL     1       3.314  -0.079  -2.334  0.00  0.00    +0.016 A 
ATOM     14  C   UNL     1       3.382   1.298  -2.370  0.00  0.00    +0.021 A 
ATOM     15  C   UNL     1       3.048   2.040  -1.249  0.00  0.00    +0.041 A 
ATOM     16  C   UNL     1       2.645   1.405  -0.086  0.00  0.00    +0.021 A 
ATOM     17  C   UNL     1       2.573   0.029  -0.037  0.00  0.00    +0.016 A 
ATOM     18 CL   UNL     1       3.135   3.773  -1.302  0.00  0.00    -0.084 Cl
ENDBRANCH  10  12
ENDBRANCH   9  10
ENDBRANCH   5   9
ENDBRANCH   1   8
BRANCH   2  19
ATOM     19  N   UNL     1       0.492 -10.298  -0.321  0.00  0.00    -0.199 N 
ATOM     20  C   UNL     1      -0.741 -10.840  -0.362  0.00  0.00    +0.318 C 
ATOM     21  O   UNL     1      -1.721 -10.122  -0.349  0.00  0.00    -0.263 OA
ATOM     22  H   UNL     1       1.274 -10.871  -0.332  0.00  0.00    +0.178 HD
BRANCH  20  23
ATOM     23  C   UNL     1      -0.903 -12.321  -0.425  0.00  0.00    +0.305 C 
ATOM     24  O   UNL     1       0.076 -13.038  -0.439  0.00  0.00    -0.265 OA
ATOM     25  N   UNL     1      -2.137 -12.863  -0.467  0.00  0.00    -0.278 N 
ATOM     26  H   UNL     1      -2.916 -12.290  -0.541  0.00  0.00    +0.155 HD
BRANCH  25  27
ATOM     27  C   UNL     1      -2.293 -14.250  -0.402  0.00  0.00    +0.034 A 
ATOM     28  C   UNL     1      -3.416 -14.850  -0.958  0.00  0.00    +0.024 A 
ATOM     29  C   UNL     1      -3.565 -16.222  -0.898  0.00  0.00    +0.017 A 
ATOM     30  C   UNL     1      -2.603 -16.997  -0.275  0.00  0.00    +0.018 A 
ATOM     31  C   UNL     1      -1.486 -16.401   0.285  0.00  0.00    +0.017 A 
ATOM     32  C   UNL     1      -1.328 -15.031   0.222  0.00  0.00    +0.024 A 
ATOM     33 BR   UNL     1      -2.814 -18.874  -0.187  0.00  0.00    -0.050 Br
ENDBRANCH  25  27
ENDBRANCH  20  23
ENDBRANCH   2  19
TORSDOF 7
