REMARK  Name = ZINC08389793
REMARK  8 active torsions:
REMARK  status: ('A' for Active; 'I' for Inactive)
REMARK    1  A    between atoms: C_1  and  C_2
REMARK    2  A    between atoms: C_4  and  C_29
REMARK    3  A    between atoms: C_6  and  S_10
REMARK    4  A    between atoms: C_7  and  C_8
REMARK    5  A    between atoms: S_10  and  C_11
REMARK    6  A    between atoms: C_11  and  C_12
REMARK    7  A    between atoms: C_12  and  C_13
REMARK    8  A    between atoms: N_18  and  C_19
REMARK                            x       y       z     vdW  Elec       q    Type
REMARK                         _______ _______ _______ _____ _____    ______ ____
ROOT
ATOM      1  C   UNL     1      -7.192   1.201   2.099  0.00  0.00    +0.221 C 
ATOM      2  O   UNL     1      -6.796   1.898   3.008  0.00  0.00    -0.275 OA
ATOM      3  N   UNL     1      -6.368   0.892   1.079  0.00  0.00    -0.240 N 
ATOM      4  C   UNL     1      -5.103   1.358   1.069  0.00  0.00    +0.306 C 
ATOM      5  O   UNL     1      -4.707   2.057   1.980  0.00  0.00    -0.252 OA
ATOM      6  N   UNL     1      -4.279   1.049   0.049  0.00  0.00    -0.294 N 
ATOM      7  H   UNL     1      -6.684   0.334   0.351  0.00  0.00    +0.159 HD
ATOM      8  H   UNL     1      -4.595   0.491  -0.679  0.00  0.00    +0.151 HD
ENDROOT
BRANCH   6   9
ATOM      9  C   UNL     1      -2.904   1.556   0.038  0.00  0.00    +0.037 C 
ATOM     10  C   UNL     1      -2.188   1.063  -1.221  0.00  0.00    +0.029 C 
ATOM     11  C   UNL     1      -0.753   1.593  -1.232  0.00  0.00    -0.008 C 
ATOM     12  C   UNL     1      -0.013   1.086   0.008  0.00  0.00    +0.007 C 
ATOM     13  C   UNL     1      -0.729   1.579   1.267  0.00  0.00    -0.008 C 
ATOM     14  C   UNL     1      -2.164   1.050   1.278  0.00  0.00    +0.029 C 
ATOM     15  C   UNL     1      -0.750   3.109   1.275  0.00  0.00    +0.007 C 
ATOM     16  C   UNL     1      -1.490   3.616   0.036  0.00  0.00    -0.008 C 
ATOM     17  C   UNL     1      -0.773   3.123  -1.223  0.00  0.00    +0.007 C 
ATOM     18  C   UNL     1      -2.925   3.086   0.047  0.00  0.00    +0.029 C 
ENDBRANCH   6   9
BRANCH   1  19
ATOM     19  C   UNL     1      -8.606   0.679   2.110  0.00  0.00    +0.107 C 
BRANCH  19  20
ATOM     20  C   UNL     1      -9.322   1.172   3.368  0.00  0.00    +0.085 C 
BRANCH  20  21
ATOM     21  S   UNL     1     -11.020   0.546   3.381  0.00  0.00    -0.104 S 
BRANCH  21  27
ATOM     22  C   UNL     1     -14.749   1.353   7.021  0.00  0.00    +0.045 C 
ATOM     23  C   UNL     1     -13.345   1.576   6.522  0.00  0.00    -0.029 A 
ATOM     24  C   UNL     1     -12.450   2.347   7.245  0.00  0.00    +0.027 A 
ATOM     25  C   UNL     1     -11.167   2.534   6.762  0.00  0.00    +0.040 A 
ATOM     26  N   UNL     1     -10.777   1.987   5.627  0.00  0.00    -0.244 NA
ATOM     27  C   UNL     1     -11.593   1.246   4.893  0.00  0.00    +0.115 A 
ATOM     28  C   UNL     1     -12.913   1.010   5.318  0.00  0.00    +0.086 A 
ATOM     29  C   UNL     1     -10.196   3.374   7.550  0.00  0.00    +0.065 C 
BRANCH  28  30
ATOM     30  C   UNL     1     -13.799   0.203   4.533  0.00  0.00    +0.102 C 
ATOM     31  N   UNL     1     -14.501  -0.436   3.910  0.00  0.00    -0.191 NA
ENDBRANCH  28  30
ENDBRANCH  21  27
ENDBRANCH  20  21
ENDBRANCH  19  20
ENDBRANCH   1  19
TORSDOF 6
