REMARK  Name = ZINC35316342
REMARK  7 active torsions:
REMARK  status: ('A' for Active; 'I' for Inactive)
REMARK    1  A    between atoms: C_1  and  O_2
REMARK    2  A    between atoms: O_2  and  C_3
REMARK    3  A    between atoms: C_5  and  C_11
REMARK    4  A    between atoms: C_8  and  O_9
REMARK    5  A    between atoms: C_14  and  C_25
REMARK    6  A    between atoms: C_20  and  N_24
REMARK    7  A    between atoms: C_21  and  C_22
REMARK                            x       y       z     vdW  Elec       q    Type
REMARK                         _______ _______ _______ _____ _____    ______ ____
ROOT
ATOM      1  C   UNL     1      -4.871   0.258   0.039  0.00  0.00    +0.102 C 
ATOM      2  C   UNL     1      -5.696  -0.080  -1.176  0.00  0.00    +0.054 A 
ATOM      3  C   UNL     1      -5.481   0.261  -2.514  0.00  0.00    +0.100 A 
ATOM      4  N   UNL     1      -6.463  -0.255  -3.228  0.00  0.00    -0.171 NA
ATOM      5  N   UNL     1      -7.329  -0.938  -2.360  0.00  0.00    -0.246 N 
ATOM      6  H   UNL     1      -8.135  -1.413  -2.616  0.00  0.00    +0.192 HD
ATOM      7  C   UNL     1      -6.842  -0.819  -1.107  0.00  0.00    +0.223 A 
ATOM      8  O   UNL     1      -7.331  -1.304   0.061  0.00  0.00    -0.423 OA
ATOM      9  C   UNL     1      -6.813  -0.817   1.206  0.00  0.00    +0.200 C 
ATOM     10  C   UNL     1      -5.678  -0.083   1.267  0.00  0.00    +0.098 C 
ENDROOT
BRANCH   1  13
ATOM     11  C   UNL     1      -1.201  -0.638   0.010  0.00  0.00    +0.163 A 
ATOM     12  C   UNL     1      -2.374   0.100   0.019  0.00  0.00    +0.054 A 
ATOM     13  C   UNL     1      -3.597  -0.546   0.028  0.00  0.00    -0.030 A 
ATOM     14  C   UNL     1      -3.653  -1.927   0.028  0.00  0.00    +0.023 A 
ATOM     15  C   UNL     1      -2.486  -2.669   0.018  0.00  0.00    +0.063 A 
ATOM     16  C   UNL     1      -1.257  -2.028   0.003  0.00  0.00    +0.173 A 
ATOM     17 BR   UNL     1      -2.567  -4.559   0.019  0.00  0.00    -0.046 Br
BRANCH  11  19
ATOM     18  C   UNL     1      -0.017   1.425   0.010  0.00  0.00    +0.277 C 
ATOM     19  O   UNL     1       0.002  -0.004   0.002  0.00  0.00    -0.491 OA
ENDBRANCH  11  19
BRANCH  16  20
ATOM     20  O   UNL     1      -0.108  -2.756  -0.012  0.00  0.00    -0.503 OA
ATOM     21  H   UNL     1       0.233  -2.971   0.867  0.00  0.00    +0.292 HD
ENDBRANCH  16  20
ENDBRANCH   1  13
BRANCH   3  22
ATOM     22  C   UNL     1      -4.348   1.063  -3.039  0.00  0.00    +0.003 A 
ATOM     23  C   UNL     1      -3.819   2.106  -2.282  0.00  0.00    +0.010 A 
ATOM     24  C   UNL     1      -2.765   2.849  -2.775  0.00  0.00    +0.001 A 
ATOM     25  C   UNL     1      -2.234   2.560  -4.019  0.00  0.00    +0.000 A 
ATOM     26  C   UNL     1      -2.756   1.526  -4.776  0.00  0.00    +0.001 A 
ATOM     27  C   UNL     1      -3.805   0.773  -4.290  0.00  0.00    +0.010 A 
ENDBRANCH   3  22
BRANCH   9  28
ATOM     28  N   UNL     1      -7.476  -1.079   2.379  0.00  0.00    -0.328 N 
ATOM     29  H   UNL     1      -8.293  -1.602   2.368  0.00  0.00    +0.145 HD
ATOM     30  H   UNL     1      -7.127  -0.742   3.219  0.00  0.00    +0.145 HD
ENDBRANCH   9  28
BRANCH  10  31
ATOM     31  C   UNL     1      -5.226   0.386   2.542  0.00  0.00    +0.101 C 
ATOM     32  N   UNL     1      -4.867   0.759   3.554  0.00  0.00    -0.191 NA
ENDBRANCH  10  31
TORSDOF 6
