REMARK  Name = ZINC08781200
REMARK  5 active torsions:
REMARK  status: ('A' for Active; 'I' for Inactive)
REMARK    1  A    between atoms: C_4  and  C_7
REMARK    2  A    between atoms: C_7  and  C_9
REMARK    3  A    between atoms: C_11  and  C_29
REMARK    4  A    between atoms: C_13  and  C_25
REMARK    5  A    between atoms: C_13  and  C_27
REMARK                            x       y       z     vdW  Elec       q    Type
REMARK                         _______ _______ _______ _____ _____    ______ ____
ROOT
ATOM      1  C   UNL     1      -1.365   3.424   0.356  0.00  0.00    +0.155 C 
ATOM      2  C   UNL     1      -2.795   3.616   0.921  0.00  0.00    +0.086 C 
ATOM      3  C   UNL     1      -3.408   2.179   0.993  0.00  0.00    +0.173 C 
ATOM      4  C   UNL     1      -2.143   1.304   0.993  0.00  0.00    +0.132 C 
ATOM      5  N   UNL     1      -1.252   2.006   0.032  0.00  0.00    -0.309 N 
ATOM      6  C   UNL     1      -0.017   1.409   0.010  0.00  0.00    +0.038 A 
ATOM      7  C   UNL     1       1.174   2.108   0.002  0.00  0.00    +0.024 A 
ATOM      8  C   UNL     1       2.376   1.423  -0.009  0.00  0.00    +0.002 A 
ATOM      9  C   UNL     1       2.397   0.039  -0.011  0.00  0.00    +0.001 A 
ATOM     10  C   UNL     1       1.216  -0.678  -0.006  0.00  0.00    +0.010 A 
ATOM     11  C   UNL     1       0.002  -0.004   0.002  0.00  0.00    -0.004 A 
ATOM     12  C   UNL     1      -1.290  -0.729  -0.005  0.00  0.00    +0.007 C 
ATOM     13  C   UNL     1      -2.367  -0.090   0.486  0.00  0.00    -0.002 C 
ENDROOT
BRANCH   2  14
ATOM     14  C   UNL     1      -3.605   4.499   0.008  0.00  0.00    -0.004 A 
ATOM     15  C   UNL     1      -3.822   4.122  -1.304  0.00  0.00    +0.007 A 
ATOM     16  C   UNL     1      -4.570   4.929  -2.141  0.00  0.00    +0.000 A 
ATOM     17  C   UNL     1      -5.093   6.119  -1.669  0.00  0.00    +0.003 A 
ATOM     18  C   UNL     1      -4.873   6.500  -0.359  0.00  0.00    +0.038 A 
ATOM     19  C   UNL     1      -4.128   5.690   0.481  0.00  0.00    +0.127 A 
ATOM     20  F   UNL     1      -3.913   6.062   1.762  0.00  0.00    -0.205 F 
ENDBRANCH   2  14
BRANCH   1  21
ATOM     21  C   UNL     1      -1.181   4.257  -0.886  0.00  0.00    +0.184 C 
ATOM     22  O   UNL     1      -1.310   3.750  -1.981  0.00  0.00    -0.290 OA
BRANCH  21  26
ATOM     23  C   UNL     1      -0.215   8.374  -0.556  0.00  0.00    +0.000 A 
ATOM     24  C   UNL     1      -0.361   7.800  -1.807  0.00  0.00    +0.001 A 
ATOM     25  C   UNL     1      -0.675   6.462  -1.923  0.00  0.00    +0.011 A 
ATOM     26  C   UNL     1      -0.846   5.686  -0.772  0.00  0.00    +0.019 A 
ATOM     27  C   UNL     1      -0.703   6.275   0.488  0.00  0.00    +0.011 A 
ATOM     28  C   UNL     1      -0.383   7.613   0.587  0.00  0.00    +0.001 A 
ENDBRANCH  21  26
ENDBRANCH   1  21
BRANCH   3  29
ATOM     29  C   UNL     1      -4.234   1.908  -0.194  0.00  0.00    +0.087 C 
ATOM     30  N   UNL     1      -4.872   1.700  -1.111  0.00  0.00    -0.195 NA
ENDBRANCH   3  29
BRANCH   3  31
ATOM     31  C   UNL     1      -4.184   1.980   2.228  0.00  0.00    +0.087 C 
ATOM     32  N   UNL     1      -4.783   1.826   3.181  0.00  0.00    -0.195 NA
ENDBRANCH   3  31
TORSDOF 5
