REMARK  Name = ZINC02797340
REMARK  8 active torsions:
REMARK  status: ('A' for Active; 'I' for Inactive)
REMARK    1  A    between atoms: C_1  and  C_2
REMARK    2  A    between atoms: C_6  and  C_27
REMARK    3  A    between atoms: C_7  and  N_8
REMARK    4  A    between atoms: C_9  and  C_26
REMARK    5  A    between atoms: C_11  and  C_14
REMARK    6  A    between atoms: C_12  and  C_13
REMARK    7  A    between atoms: N_15  and  N_16
REMARK    8  A    between atoms: C_17  and  C_19
REMARK                            x       y       z     vdW  Elec       q    Type
REMARK                         _______ _______ _______ _____ _____    ______ ____
ROOT
ATOM      1  N   UNL     1      -0.705   3.569   0.027  0.00  0.00    -0.317 N 
ATOM      2  C   UNL     1       0.660   3.621   0.014  0.00  0.00    +0.022 A 
ATOM      3  C   UNL     1       1.143   2.365   0.004  0.00  0.00    +0.032 A 
ATOM      4  C   UNL     1      -0.018   1.470   0.010  0.00  0.00    +0.016 A 
ATOM      5  C   UNL     1      -1.122   2.274   0.019  0.00  0.00    +0.030 A 
ATOM      6  C   UNL     1      -2.555   1.807   0.023  0.00  0.00    +0.064 C 
ATOM      7  C   UNL     1       1.489   4.879   0.013  0.00  0.00    +0.064 C 
ENDROOT
BRANCH   1  14
ATOM      8  C   UNL     1      -1.505   4.623   2.547  0.00  0.00    +0.046 C 
ATOM      9  C   UNL     1      -1.966   5.231   1.247  0.00  0.00    -0.026 A 
ATOM     10  C   UNL     1      -2.796   6.335   1.257  0.00  0.00    +0.005 A 
ATOM     11  C   UNL     1      -3.223   6.890   0.065  0.00  0.00    +0.001 A 
ATOM     12  C   UNL     1      -2.817   6.346  -1.140  0.00  0.00    +0.005 A 
ATOM     13  C   UNL     1      -1.982   5.246  -1.156  0.00  0.00    -0.026 A 
ATOM     14  C   UNL     1      -1.551   4.686   0.039  0.00  0.00    +0.052 A 
ATOM     15  C   UNL     1      -1.540   4.654  -2.469  0.00  0.00    +0.046 C 
ENDBRANCH   1  14
BRANCH   4  16
ATOM     16  C   UNL     1       0.002  -0.004   0.002  0.00  0.00    +0.140 C 
ATOM     17  N   UNL     1      -1.113  -0.668   0.009  0.00  0.00    -0.187 NA
BRANCH  17  18
ATOM     18  N   UNL     1      -1.094  -2.069   0.001  0.00  0.00    -0.203 N 
ATOM     19  C   UNL     1      -2.252  -2.759   0.008  0.00  0.00    +0.263 C 
ATOM     20  O   UNL     1      -3.313  -2.165   0.021  0.00  0.00    -0.268 OA
ATOM     21  H   UNL     1      -0.248  -2.543  -0.009  0.00  0.00    +0.178 HD
BRANCH  19  22
ATOM     22  C   UNL     1      -2.232  -4.237  -0.000  0.00  0.00    +0.039 A 
ATOM     23  C   UNL     1      -1.016  -4.921  -0.021  0.00  0.00    +0.013 A 
ATOM     24  C   UNL     1      -1.003  -6.301  -0.024  0.00  0.00    +0.002 A 
ATOM     25  C   UNL     1      -2.193  -7.006  -0.017  0.00  0.00    +0.015 A 
ATOM     26  C   UNL     1      -3.404  -6.334  -0.001  0.00  0.00    +0.019 A 
ATOM     27  C   UNL     1      -3.429  -4.954   0.007  0.00  0.00    +0.028 A 
ATOM     28 BR   UNL     1      -5.024  -7.309   0.008  0.00  0.00    -0.050 Br
ENDBRANCH  19  22
ENDBRANCH  17  18
ENDBRANCH   4  16
TORSDOF 4
