REMARK  Name = ZINC23372884
REMARK  4 active torsions:
REMARK  status: ('A' for Active; 'I' for Inactive)
REMARK    1  A    between atoms: C_3  and  N_18
REMARK    2  A    between atoms: N_6  and  C_8
REMARK    3  A    between atoms: C_21  and  C_24
REMARK    4  A    between atoms: C_24  and  O_25
REMARK                            x       y       z     vdW  Elec       q    Type
REMARK                         _______ _______ _______ _____ _____    ______ ____
ROOT
ATOM      1  C   UNL     1      -0.019   1.526   0.010  0.00  0.00    -0.017 C 
ATOM      2  C   UNL     1       1.420   2.051  -0.001  0.00  0.00    +0.015 C 
ATOM      3  C   UNL     1       2.172   1.474   1.202  0.00  0.00    +0.040 C 
ATOM      4  C   UNL     1       2.112  -0.054   1.150  0.00  0.00    -0.059 C 
ATOM      5  N   UNL     1       0.712  -0.494   1.190  0.00  0.00    +0.383 N 
ATOM      6  C   UNL     1       0.002  -0.004   0.002  0.00  0.00    -0.078 C 
ATOM      7  H   UNL     1       0.270  -0.128   2.019  0.00  0.00    -0.081 HD
ENDROOT
BRANCH   5   8
ATOM      8  C   UNL     1       0.662  -1.962   1.218  0.00  0.00    -0.062 C 
ATOM      9  C   UNL     1      -0.797  -2.421   1.259  0.00  0.00    -0.024 C 
ATOM     10  C   UNL     1      -1.471  -1.864   2.514  0.00  0.00    +0.005 C 
ATOM     11  C   UNL     1      -0.740  -2.376   3.757  0.00  0.00    -0.010 C 
ATOM     12  C   UNL     1      -0.792  -3.905   3.786  0.00  0.00    +0.007 C 
ATOM     13  C   UNL     1      -0.117  -4.462   2.531  0.00  0.00    -0.010 C 
ATOM     14  C   UNL     1      -0.849  -3.950   1.288  0.00  0.00    +0.005 C 
ATOM     15  C   UNL     1       1.341  -4.002   2.489  0.00  0.00    +0.005 C 
ATOM     16  C   UNL     1       1.394  -2.474   2.460  0.00  0.00    -0.024 C 
ATOM     17  C   UNL     1       0.719  -1.916   3.715  0.00  0.00    +0.005 C 
ENDBRANCH   5   8
BRANCH   3  18
ATOM     18  N   UNL     1       3.574   1.912   1.160  0.00  0.00    -0.301 NA
ATOM     19  C   UNL     1       4.350   1.296   2.244  0.00  0.00    +0.085 C 
ATOM     20  C   UNL     1       5.829   1.658   2.083  0.00  0.00    +0.021 C 
ATOM     21  C   UNL     1       5.983   3.181   2.120  0.00  0.00    +0.017 C 
ATOM     22  C   UNL     1       5.127   3.800   1.012  0.00  0.00    +0.021 C 
ATOM     23  C   UNL     1       3.669   3.377   1.204  0.00  0.00    +0.085 C 
BRANCH  21  24
ATOM     24  C   UNL     1       7.451   3.552   1.899  0.00  0.00    +0.159 C 
BRANCH  24  25
ATOM     25  O   UNL     1       7.614   4.963   2.050  0.00  0.00    -0.395 OA
ATOM     26  H   UNL     1       8.522   5.270   1.923  0.00  0.00    +0.209 HD
ENDBRANCH  24  25
ENDBRANCH  21  24
ENDBRANCH   3  18
TORSDOF 4
