REMARK  Name = ZINC56799202
REMARK  6 active torsions:
REMARK  status: ('A' for Active; 'I' for Inactive)
REMARK    1  A    between atoms: C_1  and  C_2
REMARK    2  A    between atoms: C_2  and  C_4
REMARK    3  A    between atoms: C_2  and  N_11
REMARK    4  A    between atoms: C_4  and  C_5
REMARK    5  A    between atoms: C_5  and  C_6
REMARK    6  A    between atoms: C_18  and  C_21
REMARK                            x       y       z     vdW  Elec       q    Type
REMARK                         _______ _______ _______ _____ _____    ______ ____
ROOT
ATOM      1  N   UNL     1       0.711  -0.489   1.189  0.00  0.00    -0.297 N 
ATOM      2  C   UNL     1       2.054  -0.600   1.174  0.00  0.00    +0.303 C 
ATOM      3  O   UNL     1       2.670  -0.384   0.148  0.00  0.00    -0.253 OA
ATOM      4  N   UNL     1       2.714  -0.949   2.296  0.00  0.00    -0.281 N 
ATOM      5  C   UNL     1       1.985  -1.327   3.517  0.00  0.00    +0.137 C 
ATOM      6  C   UNL     1       2.551  -0.516   4.688  0.00  0.00    +0.179 C 
ATOM      7  O   UNL     1       3.972  -0.670   4.723  0.00  0.00    -0.369 OA
ATOM      8  C   UNL     1       4.644  -0.172   3.564  0.00  0.00    +0.166 C 
ATOM      9  C   UNL     1       4.185  -0.971   2.333  0.00  0.00    +0.145 C 
ATOM     10  H   UNL     1       0.213  -0.732   1.985  0.00  0.00    +0.151 HD
ENDROOT
BRANCH   8  11
ATOM     11  C   UNL     1       6.133  -0.329   3.738  0.00  0.00    -0.017 A 
ATOM     12  C   UNL     1       6.643  -1.474   4.319  0.00  0.00    +0.007 A 
ATOM     13  C   UNL     1       8.008  -1.619   4.479  0.00  0.00    +0.020 A 
ATOM     14  C   UNL     1       8.864  -0.617   4.058  0.00  0.00    +0.041 A 
ATOM     15  C   UNL     1       8.352   0.530   3.477  0.00  0.00    +0.020 A 
ATOM     16  C   UNL     1       6.987   0.671   3.312  0.00  0.00    +0.007 A 
ATOM     17 CL   UNL     1      10.579  -0.797   4.259  0.00  0.00    -0.084 Cl
ENDBRANCH   8  11
BRANCH   1  19
ATOM     18  C   UNL     1      -0.019   1.528   0.013  0.00  0.00    +0.028 C 
ATOM     19  C   UNL     1       0.002  -0.002   0.003  0.00  0.00    +0.072 C 
BRANCH  19  20
ATOM     20  C   UNL     1      -1.433  -0.532   0.013  0.00  0.00    +0.030 C 
BRANCH  20  21
ATOM     21  C   UNL     1      -1.415  -2.056  -0.124  0.00  0.00    +0.076 C 
BRANCH  21  22
ATOM     22  C   UNL     1      -2.829  -2.577  -0.114  0.00  0.00    +0.105 A 
ATOM     23  C   UNL     1      -3.609  -2.758  -1.196  0.00  0.00    +0.044 A 
ATOM     24  C   UNL     1      -4.846  -3.260  -0.730  0.00  0.00    +0.041 A 
ATOM     25  C   UNL     1      -4.748  -3.355   0.609  0.00  0.00    +0.195 A 
ATOM     26  O   UNL     1      -3.523  -2.946   0.975  0.00  0.00    -0.468 OA
ENDBRANCH  21  22
ENDBRANCH  20  21
ENDBRANCH  19  20
ENDBRANCH   1  19
TORSDOF 5
