REMARK  Name = ZINC35855210
REMARK  5 active torsions:
REMARK  status: ('A' for Active; 'I' for Inactive)
REMARK    1  A    between atoms: C_1  and  O_2
REMARK    2  A    between atoms: O_2  and  C_3
REMARK    3  A    between atoms: C_10  and  C_27
REMARK    4  A    between atoms: C_12  and  C_20
REMARK    5  A    between atoms: C_27  and  C_29
REMARK                            x       y       z     vdW  Elec       q    Type
REMARK                         _______ _______ _______ _____ _____    ______ ____
ROOT
ATOM      1  C   UNL     1      -0.102  -0.651   0.954  0.00  0.00    +0.121 A 
ATOM      2  C   UNL     1       0.238   0.219   1.980  0.00  0.00    +0.047 A 
ATOM      3  C   UNL     1       0.904  -0.247   3.094  0.00  0.00    +0.027 A 
ATOM      4  C   UNL     1       1.241  -1.594   3.198  0.00  0.00    +0.039 A 
ATOM      5  C   UNL     1       0.896  -2.459   2.164  0.00  0.00    +0.007 A 
ATOM      6  C   UNL     1       0.226  -1.996   1.054  0.00  0.00    +0.053 A 
ATOM      7  C   UNL     1       1.393  -3.817   2.577  0.00  0.00    +0.138 C 
ATOM      8  C   UNL     1       0.243  -4.826   2.668  0.00  0.00    +0.103 C 
ATOM      9  C   UNL     1       0.657  -5.985   1.725  0.00  0.00    +0.050 C 
ATOM     10  C   UNL     1       2.188  -5.811   1.633  0.00  0.00    +0.077 C 
ATOM     11  N   UNL     1       2.376  -4.338   1.604  0.00  0.00    -0.271 NA
ATOM     12  C   UNL     1       2.015  -3.789   0.261  0.00  0.00    +0.155 C 
ATOM     13  S   UNL     1       2.659  -5.104  -0.856  0.00  0.00    -0.144 S 
ATOM     14  C   UNL     1       2.728  -6.487   0.359  0.00  0.00    +0.090 C 
ATOM     15  C   UNL     1       2.034  -3.602   3.923  0.00  0.00    +0.243 C 
ATOM     16  O   UNL     1       2.564  -4.446   4.614  0.00  0.00    -0.273 OA
ATOM     17  N   UNL     1       1.904  -2.293   4.211  0.00  0.00    -0.283 N 
ATOM     18  H   UNL     1       2.233  -1.883   5.026  0.00  0.00    +0.155 HD
ENDROOT
BRANCH   9  19
ATOM     19  C   UNL     1       0.302  -7.319   2.329  0.00  0.00    -0.042 A 
ATOM     20  C   UNL     1       0.839  -7.691   3.547  0.00  0.00    +0.005 A 
ATOM     21  C   UNL     1       0.513  -8.915   4.102  0.00  0.00    +0.020 A 
ATOM     22  C   UNL     1      -0.351  -9.767   3.437  0.00  0.00    +0.041 A 
ATOM     23  C   UNL     1      -0.888  -9.394   2.218  0.00  0.00    +0.020 A 
ATOM     24  C   UNL     1      -0.566  -8.168   1.667  0.00  0.00    +0.005 A 
ATOM     25 CL   UNL     1      -0.760 -11.304   4.133  0.00  0.00    -0.084 Cl
ENDBRANCH   9  19
BRANCH   1  27
ATOM     26  C   UNL     1      -1.063   1.207  -0.178  0.00  0.00    +0.277 C 
ATOM     27  O   UNL     1      -0.759  -0.188  -0.144  0.00  0.00    -0.495 OA
ENDBRANCH   1  27
BRANCH   8  28
ATOM     28  C   UNL     1       0.093  -5.325   4.082  0.00  0.00    +0.169 C 
ATOM     29  O   UNL     1       1.077  -5.603   4.734  0.00  0.00    -0.292 OA
BRANCH  28  30
ATOM     30  C   UNL     1      -1.247  -5.476   4.671  0.00  0.00    +0.018 A 
ATOM     31  C   UNL     1      -2.384  -5.163   3.919  0.00  0.00    +0.011 A 
ATOM     32  C   UNL     1      -3.636  -5.308   4.478  0.00  0.00    +0.001 A 
ATOM     33  C   UNL     1      -3.770  -5.761   5.779  0.00  0.00    +0.000 A 
ATOM     34  C   UNL     1      -2.649  -6.073   6.529  0.00  0.00    +0.001 A 
ATOM     35  C   UNL     1      -1.390  -5.939   5.982  0.00  0.00    +0.011 A 
ENDBRANCH  28  30
ENDBRANCH   8  28
TORSDOF 4
