REMARK  Name = ZINC12391940
REMARK  7 active torsions:
REMARK  status: ('A' for Active; 'I' for Inactive)
REMARK    1  A    between atoms: C_1  and  O_2
REMARK    2  A    between atoms: O_2  and  C_3
REMARK    3  A    between atoms: C_6  and  C_11
REMARK    4  A    between atoms: C_8  and  O_9
REMARK    5  A    between atoms: O_9  and  C_10
REMARK    6  A    between atoms: C_11  and  N_12
REMARK    7  A    between atoms: C_24  and  O_29
REMARK                            x       y       z     vdW  Elec       q    Type
REMARK                         _______ _______ _______ _____ _____    ______ ____
ROOT
ATOM      1  N   UNL     1       2.069  -0.087  -1.128  0.00  0.00    -0.280 N 
ATOM      2  C   UNL     1       1.017  -0.689  -0.547  0.00  0.00    +0.136 C 
ATOM      3  S   UNL     1       0.970  -2.400  -0.506  0.00  0.00    -0.019 S 
ATOM      4  N   UNL     1       0.002  -0.004   0.002  0.00  0.00    -0.320 N 
ATOM      5  C   UNL     1      -0.018   1.461   0.010  0.00  0.00    +0.041 C 
ATOM      6  C   UNL     1      -0.731   1.957   1.268  0.00  0.00    +0.026 C 
ATOM      7  C   UNL     1      -2.170   1.435   1.278  0.00  0.00    +0.002 C 
ATOM      8  C   UNL     1      -2.906   1.945   0.038  0.00  0.00    +0.000 C 
ATOM      9  C   UNL     1      -2.192   1.447  -1.220  0.00  0.00    +0.002 C 
ATOM     10  C   UNL     1      -0.754   1.970  -1.230  0.00  0.00    +0.026 C 
ATOM     11  C   UNL     1       1.423   1.976  -0.001  0.00  0.00    +0.063 C 
ATOM     12  C   UNL     1       2.143   1.371  -1.211  0.00  0.00    +0.139 C 
ATOM     13  C   UNL     1       3.598   1.837  -1.208  0.00  0.00    +0.055 C 
ATOM     14  C   UNL     1       3.636   3.364  -1.316  0.00  0.00    +0.004 C 
ATOM     15  C   UNL     1       2.896   3.982  -0.130  0.00  0.00    +0.001 C 
ATOM     16  C   UNL     1       1.442   3.499  -0.117  0.00  0.00    +0.010 C 
ATOM     17  H   UNL     1      -0.736  -0.490   0.403  0.00  0.00    +0.148 HD
ENDROOT
BRANCH  12  18
ATOM     18  O   UNL     1       1.506   1.811  -2.412  0.00  0.00    -0.371 OA
ATOM     19  H   UNL     1       1.903   1.458  -3.220  0.00  0.00    +0.212 HD
ENDBRANCH  12  18
BRANCH   1  20
ATOM     20  C   UNL     1       3.153  -0.901  -1.683  0.00  0.00    +0.144 C 
BRANCH  20  24
ATOM     21  C   UNL     1       2.311  -1.793  -5.780  0.00  0.00    +0.162 A 
ATOM     22  C   UNL     1       3.022  -0.652  -5.449  0.00  0.00    +0.050 A 
ATOM     23  C   UNL     1       3.293  -0.366  -4.123  0.00  0.00    +0.009 A 
ATOM     24  C   UNL     1       2.855  -1.217  -3.126  0.00  0.00    -0.026 A 
ATOM     25  C   UNL     1       2.149  -2.361  -3.450  0.00  0.00    +0.054 A 
ATOM     26  C   UNL     1       1.870  -2.650  -4.776  0.00  0.00    +0.162 A 
BRANCH  21  28
ATOM     27  C   UNL     1       2.528  -1.152  -8.059  0.00  0.00    +0.277 C 
ATOM     28  O   UNL     1       2.044  -2.076  -7.083  0.00  0.00    -0.491 OA
ENDBRANCH  21  28
BRANCH  26  29
ATOM     29  O   UNL     1       1.171  -3.772  -5.096  0.00  0.00    -0.491 OA
ATOM     30  C   UNL     1       0.750  -4.605  -4.013  0.00  0.00    +0.277 C 
ENDBRANCH  26  29
ENDBRANCH  20  24
ENDBRANCH   1  20
TORSDOF 5
