REMARK  Name = ZINC47146741
REMARK  4 active torsions:
REMARK  status: ('A' for Active; 'I' for Inactive)
REMARK    1  A    between atoms: C_4  and  N_7
REMARK    2  A    between atoms: C_12  and  C_26
REMARK    3  A    between atoms: C_30  and  O_32
REMARK    4  A    between atoms: O_32  and  C_33
REMARK                            x       y       z     vdW  Elec       q    Type
REMARK                         _______ _______ _______ _____ _____    ______ ____
ROOT
ATOM      1  N   UNL     1       5.738  -1.087   0.156  0.00  0.00    -0.209 N 
ATOM      2  C   UNL     1       5.415  -2.406   0.102  0.00  0.00    +0.232 C 
ATOM      3  O   UNL     1       4.324  -2.898   0.298  0.00  0.00    -0.274 OA
ATOM      4  C   UNL     1       6.677  -3.129  -0.248  0.00  0.00    +0.110 C 
ATOM      5  C   UNL     1       6.905  -4.518   0.292  0.00  0.00    +0.072 C 
ATOM      6  C   UNL     1       8.279  -4.969  -0.116  0.00  0.00    +0.033 A 
ATOM      7  C   UNL     1       9.344  -4.234  -0.504  0.00  0.00    +0.088 A 
ATOM      8  N   UNL     1      10.462  -4.960  -0.832  0.00  0.00    -0.311 N 
ATOM      9  H   UNL     1      11.265  -4.505  -1.131  0.00  0.00    +0.170 HD
ATOM     10  C   UNL     1      10.444  -6.303  -0.738  0.00  0.00    +0.289 A 
ATOM     11  O   UNL     1      11.341  -7.090  -0.985  0.00  0.00    -0.260 OA
ATOM     12  S   UNL     1       8.885  -6.634  -0.200  0.00  0.00    -0.030 S 
ATOM     13  S   UNL     1       9.264  -2.450  -0.556  0.00  0.00    -0.093 S 
ATOM     14  C   UNL     1       7.735  -2.184   0.399  0.00  0.00    +0.152 C 
ATOM     15  C   UNL     1       7.076  -0.855   0.144  0.00  0.00    +0.240 C 
ATOM     16  O   UNL     1       7.628   0.209  -0.033  0.00  0.00    -0.274 OA
ENDROOT
BRANCH   1  20
ATOM     17  C   UNL     1       2.894   1.956   0.322  0.00  0.00    +0.000 A 
ATOM     18  C   UNL     1       4.241   2.269   0.315  0.00  0.00    +0.002 A 
ATOM     19  C   UNL     1       5.185   1.263   0.260  0.00  0.00    +0.024 A 
ATOM     20  C   UNL     1       4.782  -0.064   0.212  0.00  0.00    +0.044 A 
ATOM     21  C   UNL     1       3.429  -0.376   0.220  0.00  0.00    +0.024 A 
ATOM     22  C   UNL     1       2.489   0.634   0.274  0.00  0.00    +0.002 A 
ENDBRANCH   1  20
BRANCH   5  23
ATOM     23  C   UNL     1       5.871  -5.457  -0.274  0.00  0.00    -0.035 A 
ATOM     24  C   UNL     1       5.785  -5.648  -1.641  0.00  0.00    +0.004 A 
ATOM     25  C   UNL     1       4.838  -6.509  -2.163  0.00  0.00    +0.004 A 
ATOM     26  C   UNL     1       3.974  -7.181  -1.321  0.00  0.00    +0.046 A 
ATOM     27  C   UNL     1       4.058  -6.992   0.051  0.00  0.00    +0.129 A 
ATOM     28  C   UNL     1       5.013  -6.131   0.574  0.00  0.00    +0.050 A 
BRANCH  27  29
ATOM     29  O   UNL     1       3.210  -7.652   0.882  0.00  0.00    -0.456 OA
BRANCH  29  30
ATOM     30  C   UNL     1       3.322  -7.429   2.218  0.00  0.00    +0.128 A 
ATOM     31  C   UNL     1       2.594  -6.410   2.816  0.00  0.00    +0.046 A 
ATOM     32  C   UNL     1       2.711  -6.185   4.174  0.00  0.00    +0.004 A 
ATOM     33  C   UNL     1       3.552  -6.973   4.937  0.00  0.00    +0.000 A 
ATOM     34  C   UNL     1       4.279  -7.989   4.344  0.00  0.00    +0.004 A 
ATOM     35  C   UNL     1       4.162  -8.222   2.987  0.00  0.00    +0.046 A 
ENDBRANCH  29  30
ENDBRANCH  27  29
ENDBRANCH   5  23
TORSDOF 4
