REMARK  Name = ZINC06625451
REMARK  8 active torsions:
REMARK  status: ('A' for Active; 'I' for Inactive)
REMARK    1  A    between atoms: C_1  and  C_2
REMARK    2  A    between atoms: C_2  and  C_20
REMARK    3  A    between atoms: C_5  and  C_10
REMARK    4  A    between atoms: C_7  and  C_8
REMARK    5  A    between atoms: C_7  and  C_9
REMARK    6  A    between atoms: N_22  and  N_23
REMARK    7  A    between atoms: C_24  and  C_25
REMARK    8  A    between atoms: C_30  and  O_31
REMARK                            x       y       z     vdW  Elec       q    Type
REMARK                         _______ _______ _______ _____ _____    ______ ____
ROOT
ATOM      1  C   UNL     1      -0.210   1.374  -0.018  0.00  0.00    +0.021 C 
ATOM      2  C   UNL     1      -0.070  -0.137  -0.216  0.00  0.00    +0.052 C 
ATOM      3  C   UNL     1       0.773  -0.442  -1.479  0.00  0.00    +0.017 C 
ATOM      4  C   UNL     1       1.311  -1.866  -1.196  0.00  0.00    +0.013 C 
ATOM      5  C   UNL     1       1.618  -1.860   0.316  0.00  0.00    +0.062 C 
ATOM      6  C   UNL     1       0.740  -0.760   0.939  0.00  0.00    -0.012 C 
ATOM      7  C   UNL     1      -0.207  -1.370   1.974  0.00  0.00    +0.012 C 
ATOM      8  C   UNL     1       1.621   0.304   1.596  0.00  0.00    +0.012 C 
ENDROOT
BRANCH   5   9
ATOM      9  C   UNL     1       1.275  -3.198   0.918  0.00  0.00    +0.112 A 
ATOM     10  N   UNL     1       0.255  -3.999   0.507  0.00  0.00    -0.342 N 
ATOM     11  H   UNL     1      -0.368  -3.813  -0.212  0.00  0.00    +0.167 HD
ATOM     12  C   UNL     1       0.272  -5.127   1.304  0.00  0.00    +0.066 A 
ATOM     13  C   UNL     1      -0.503  -6.277   1.367  0.00  0.00    +0.028 A 
ATOM     14  C   UNL     1      -0.215  -7.243   2.308  0.00  0.00    +0.002 A 
ATOM     15  C   UNL     1       0.842  -7.072   3.191  0.00  0.00    +0.002 A 
ATOM     16  C   UNL     1       1.615  -5.947   3.143  0.00  0.00    +0.030 A 
ATOM     17  C   UNL     1       1.342  -4.954   2.197  0.00  0.00    +0.089 A 
ATOM     18  N   UNL     1       1.915  -3.759   1.903  0.00  0.00    -0.232 NA
ENDBRANCH   5   9
BRANCH   2  19
ATOM     19  C   UNL     1      -1.428  -0.782  -0.316  0.00  0.00    +0.239 C 
ATOM     20  O   UNL     1      -1.687  -1.509  -1.252  0.00  0.00    -0.273 OA
ATOM     21  N   UNL     1      -2.356  -0.550   0.634  0.00  0.00    -0.207 N 
ATOM     22  H   UNL     1      -2.177   0.089   1.341  0.00  0.00    +0.177 HD
BRANCH  21  23
ATOM     23  N   UNL     1      -3.579  -1.233   0.599  0.00  0.00    -0.188 NA
ATOM     24  C   UNL     1      -4.472  -1.010   1.514  0.00  0.00    +0.142 C 
BRANCH  24  25
ATOM     25  C   UNL     1      -5.759  -1.728   1.478  0.00  0.00    +0.036 A 
ATOM     26  C   UNL     1      -6.725  -1.487   2.457  0.00  0.00    +0.013 A 
ATOM     27  C   UNL     1      -7.927  -2.162   2.418  0.00  0.00    +0.001 A 
ATOM     28  C   UNL     1      -8.181  -3.078   1.411  0.00  0.00    +0.004 A 
ATOM     29  C   UNL     1      -7.232  -3.326   0.436  0.00  0.00    +0.046 A 
ATOM     30  C   UNL     1      -6.022  -2.652   0.458  0.00  0.00    +0.125 A 
BRANCH  30  31
ATOM     31  O   UNL     1      -5.092  -2.891  -0.502  0.00  0.00    -0.506 OA
ATOM     32  H   UNL     1      -4.477  -3.605  -0.286  0.00  0.00    +0.292 HD
ENDBRANCH  30  31
ENDBRANCH  24  25
ENDBRANCH  21  23
ENDBRANCH   2  19
TORSDOF 5
