REMARK  Name = ZINC09515937
REMARK  10 active torsions:
REMARK  status: ('A' for Active; 'I' for Inactive)
REMARK    1  A    between atoms: C_1  and  C_2
REMARK    2  A    between atoms: C_2  and  C_3
REMARK    3  A    between atoms: C_3  and  N_56
REMARK    4  A    between atoms: C_4  and  C_5
REMARK    5  A    between atoms: C_4  and  N_56
REMARK    6  A    between atoms: N_10  and  C_11
REMARK    7  A    between atoms: C_18  and  C_20
REMARK    8  A    between atoms: C_21  and  C_22
REMARK    9  A    between atoms: C_21  and  N_56
REMARK   10  A    between atoms: N_24  and  C_25
REMARK                            x       y       z     vdW  Elec       q    Type
REMARK                         _______ _______ _______ _____ _____    ______ ____
ROOT
ATOM      1  N   UNL     1      -5.250  -0.009   1.410  0.00  0.00    +0.389 N 
ATOM      2  H   UNL     1      -5.274  -0.687   2.180  0.00  0.00    -0.081 HD
ENDROOT
BRANCH   1   3
ATOM      3  C   UNL     1      -4.139   0.938   1.638  0.00  0.00    -0.078 C 
BRANCH   3   5
ATOM      4  C   UNL     1      -2.852   2.873   0.721  0.00  0.00    +0.002 C 
ATOM      5  C   UNL     1      -4.022   1.920   0.470  0.00  0.00    -0.022 C 
ENDBRANCH   3   5
ENDBRANCH   1   3
BRANCH   1   6
ATOM      6  C   UNL     1      -5.042  -0.735   0.139  0.00  0.00    -0.021 C 
BRANCH   6   7
ATOM      7  C   UNL     1      -3.845  -1.638   0.285  0.00  0.00    +0.034 A 
ATOM      8  C   UNL     1      -3.995  -2.936   0.648  0.00  0.00    +0.070 A 
ATOM      9  S   UNL     1      -2.293  -3.480   0.649  0.00  0.00    -0.060 S 
ATOM     10  C   UNL     1      -1.573  -1.968   0.189  0.00  0.00    +0.172 A 
ATOM     11  N   UNL     1      -2.627  -1.185   0.063  0.00  0.00    -0.231 NA
ATOM     12  N   UNL     1      -0.229  -1.663  -0.003  0.00  0.00    -0.216 N 
ATOM     13  C   UNL     1       0.133  -0.418  -0.369  0.00  0.00    +0.223 C 
ATOM     14  O   UNL     1      -0.712   0.435  -0.537  0.00  0.00    -0.275 OA
ATOM     15  C   UNL     1       1.589  -0.087  -0.578  0.00  0.00    +0.110 C 
BRANCH  12  16
ATOM     16  C   UNL     1       0.748  -2.651   0.184  0.00  0.00    +0.078 A 
ATOM     17  C   UNL     1       1.327  -2.828   1.433  0.00  0.00    +0.027 A 
ATOM     18  C   UNL     1       2.289  -3.803   1.616  0.00  0.00    +0.002 A 
ATOM     19  C   UNL     1       2.676  -4.602   0.556  0.00  0.00    +0.003 A 
ATOM     20  C   UNL     1       2.102  -4.429  -0.690  0.00  0.00    +0.040 A 
ATOM     21  C   UNL     1       1.135  -3.459  -0.879  0.00  0.00    +0.145 A 
ATOM     22  F   UNL     1       0.570  -3.293  -2.095  0.00  0.00    -0.204 F 
ENDBRANCH  12  16
ENDBRANCH   6   7
ENDBRANCH   1   6
BRANCH   1  23
ATOM     23  C   UNL     1      -6.535   0.719   1.371  0.00  0.00    +0.019 C 
BRANCH  23  24
ATOM     24  C   UNL     1      -6.901   1.130   2.774  0.00  0.00    +0.201 C 
ATOM     25  O   UNL     1      -6.217   0.771   3.709  0.00  0.00    -0.278 OA
ATOM     26  N   UNL     1      -7.989   1.895   2.990  0.00  0.00    -0.285 N 
ATOM     27  H   UNL     1      -8.578   2.120   2.253  0.00  0.00    +0.155 HD
BRANCH  26  28
ATOM     28  C   UNL     1      -8.271   2.365   4.280  0.00  0.00    +0.072 A 
ATOM     29  C   UNL     1      -7.844   1.648   5.389  0.00  0.00    +0.029 A 
ATOM     30  C   UNL     1      -8.118   2.114   6.661  0.00  0.00    +0.043 A 
ATOM     31  C   UNL     1      -8.826   3.291   6.831  0.00  0.00    +0.161 A 
ATOM     32  C   UNL     1      -9.259   4.008   5.726  0.00  0.00    +0.195 A 
ATOM     33  C   UNL     1      -8.982   3.546   4.450  0.00  0.00    +0.182 A 
ATOM     34  F   UNL     1      -9.403   4.244   3.373  0.00  0.00    -0.200 F 
ATOM     35  F   UNL     1      -9.951   5.156   5.895  0.00  0.00    -0.199 F 
ATOM     36  F   UNL     1      -9.097   3.741   8.076  0.00  0.00    -0.202 F 
ENDBRANCH  26  28
ENDBRANCH  23  24
ENDBRANCH   1  23
TORSDOF 8
