REMARK  Name = ZINC43094133
REMARK  8 active torsions:
REMARK  status: ('A' for Active; 'I' for Inactive)
REMARK    1  A    between atoms: C_1  and  C_2
REMARK    2  A    between atoms: C_2  and  C_4
REMARK    3  A    between atoms: C_2  and  N_23
REMARK    4  A    between atoms: C_4  and  C_6
REMARK    5  A    between atoms: C_4  and  O_13
REMARK    6  A    between atoms: O_13  and  C_14
REMARK    7  A    between atoms: C_17  and  C_20
REMARK    8  A    between atoms: C_20  and  C_21
REMARK                            x       y       z     vdW  Elec       q    Type
REMARK                         _______ _______ _______ _____ _____    ______ ____
ROOT
ATOM      1  C   UNL     1       0.749  -0.511   1.252  0.00  0.00    +0.190 C 
ENDROOT
BRANCH   1   2
ATOM      2  C   UNL     1       2.165   0.003   1.299  0.00  0.00    +0.005 A 
ATOM      3  C   UNL     1       3.199  -0.772   0.807  0.00  0.00    +0.008 A 
ATOM      4  C   UNL     1       4.497  -0.301   0.850  0.00  0.00    +0.000 A 
ATOM      5  C   UNL     1       4.763   0.946   1.385  0.00  0.00    +0.001 A 
ATOM      6  C   UNL     1       3.731   1.722   1.876  0.00  0.00    +0.015 A 
ATOM      7  C   UNL     1       2.430   1.253   1.829  0.00  0.00    +0.024 A 
ATOM      8 BR   UNL     1       1.016   2.317   2.495  0.00  0.00    -0.050 Br
ENDBRANCH   1   2
BRANCH   1  10
ATOM      9  C   UNL     1       0.047   1.539   0.008  0.00  0.00    -0.010 C 
ATOM     10  C   UNL     1       0.060   0.009  -0.011  0.00  0.00    -0.032 C 
BRANCH  10  11
ATOM     11  N   UNL     1      -1.320  -0.492  -0.058  0.00  0.00    +0.382 N 
ATOM     12  H   UNL     1      -1.775  -0.149  -0.891  0.00  0.00    -0.089 HD
ATOM     13  H   UNL     1      -1.312  -1.501  -0.070  0.00  0.00    -0.089 HD
ATOM     14  H   UNL     1      -1.822  -0.170   0.756  0.00  0.00    -0.089 HD
ENDBRANCH  10  11
ENDBRANCH   1  10
BRANCH   1  15
ATOM     15  O   UNL     1       0.761  -1.940   1.234  0.00  0.00    -0.486 OA
BRANCH  15  16
ATOM     16  C   UNL     1      -0.215  -2.574   1.934  0.00  0.00    +0.121 A 
ATOM     17  C   UNL     1      -0.194  -3.955   2.061  0.00  0.00    +0.046 A 
ATOM     18  C   UNL     1      -1.188  -4.598   2.774  0.00  0.00    +0.008 A 
ATOM     19  C   UNL     1      -2.203  -3.865   3.361  0.00  0.00    -0.033 A 
ATOM     20  C   UNL     1      -2.227  -2.488   3.236  0.00  0.00    +0.008 A 
ATOM     21  C   UNL     1      -1.232  -1.841   2.529  0.00  0.00    +0.046 A 
BRANCH  19  22
ATOM     22  C   UNL     1      -3.287  -4.568   4.137  0.00  0.00    +0.153 C 
BRANCH  22  23
ATOM     23  C   UNL     1      -2.884  -4.679   5.549  0.00  0.00    +0.067 C 
ATOM     24  N   UNL     1      -2.574  -4.765   6.638  0.00  0.00    -0.196 NA
ENDBRANCH  22  23
ENDBRANCH  19  22
ENDBRANCH  15  16
ENDBRANCH   1  15
TORSDOF 7
