REMARK  Name = ZINC38550601
REMARK  5 active torsions:
REMARK  status: ('A' for Active; 'I' for Inactive)
REMARK    1  A    between atoms: C_4  and  C_7
REMARK    2  A    between atoms: C_7  and  C_9
REMARK    3  A    between atoms: C_7  and  N_26
REMARK    4  A    between atoms: C_13  and  N_14
REMARK    5  A    between atoms: C_15  and  C_17
REMARK                            x       y       z     vdW  Elec       q    Type
REMARK                         _______ _______ _______ _____ _____    ______ ____
ROOT
ATOM      1  C   UNL     1       4.015  -1.361  -1.330  0.00  0.00    +0.009 A 
ATOM      2  C   UNL     1       4.951  -0.808  -2.204  0.00  0.00    -0.030 A 
ATOM      3  C   UNL     1       4.871  -1.194  -3.506  0.00  0.00    -0.005 A 
ATOM      4  S   UNL     1       3.503  -2.321  -3.533  0.00  0.00    -0.078 S 
ATOM      5  C   UNL     1       3.089  -2.240  -1.797  0.00  0.00    +0.078 A 
ATOM      6  C   UNL     1       5.740  -0.758  -4.641  0.00  0.00    +0.043 C 
ATOM      7  C   UNL     1       6.527   0.484  -4.197  0.00  0.00    +0.005 C 
ATOM      8  C   UNL     1       7.131   0.215  -2.815  0.00  0.00    +0.005 C 
ATOM      9  C   UNL     1       6.026   0.179  -1.759  0.00  0.00    +0.036 C 
ENDROOT
BRANCH   5  10
ATOM     10  N   UNL     1       2.078  -2.905  -1.101  0.00  0.00    -0.273 N 
ATOM     11  C   UNL     1       1.323  -3.830  -1.729  0.00  0.00    +0.284 C 
ATOM     12  O   UNL     1       1.524  -4.085  -2.902  0.00  0.00    -0.266 OA
ATOM     13  H   UNL     1       1.917  -2.702  -0.166  0.00  0.00    +0.156 HD
BRANCH  11  14
ATOM     14  C   UNL     1       0.261  -4.528  -0.998  0.00  0.00    +0.189 A 
ATOM     15  C   UNL     1      -0.568  -5.485  -1.509  0.00  0.00    +0.054 A 
ATOM     16  C   UNL     1      -1.423  -5.876  -0.467  0.00  0.00    +0.042 A 
ATOM     17  C   UNL     1      -1.083  -5.149   0.621  0.00  0.00    +0.196 A 
ATOM     18  O   UNL     1      -0.064  -4.342   0.298  0.00  0.00    -0.458 OA
ENDBRANCH  11  14
ENDBRANCH   5  10
BRANCH   1  19
ATOM     19  C   UNL     1       4.033  -0.988   0.130  0.00  0.00    +0.135 C 
BRANCH  19  20
ATOM     20  N   UNL     1       3.830  -2.189   0.944  0.00  0.00    -0.320 N 
ATOM     21  C   UNL     1       4.147  -2.173   2.297  0.00  0.00    +0.097 A 
ATOM     22  C   UNL     1       4.651  -1.012   2.874  0.00  0.00    +0.041 A 
ATOM     23  C   UNL     1       4.961  -1.010   4.222  0.00  0.00    +0.005 A 
ATOM     24  C   UNL     1       4.757  -2.175   4.950  0.00  0.00    +0.018 A 
ATOM     25  C   UNL     1       4.255  -3.291   4.313  0.00  0.00    +0.084 A 
ATOM     26  N   UNL     1       3.962  -3.262   3.027  0.00  0.00    -0.350 N 
ATOM     27  H   UNL     1       3.475  -2.995   0.538  0.00  0.00    +0.148 HD
ATOM     28  H   UNL     1       3.606  -4.060   2.605  0.00  0.00    +0.166 HD
ENDBRANCH  19  20
BRANCH  19  32
ATOM     29  C   UNL     1       0.906   1.813   0.921  0.00  0.00    +0.000 A 
ATOM     30  C   UNL     1       2.143   2.260   0.498  0.00  0.00    +0.000 A 
ATOM     31  C   UNL     1       3.155   1.354   0.242  0.00  0.00    +0.006 A 
ATOM     32  C   UNL     1       2.930   0.000   0.410  0.00  0.00    -0.023 A 
ATOM     33  C   UNL     1       1.693  -0.447   0.834  0.00  0.00    +0.006 A 
ATOM     34  C   UNL     1       0.680   0.459   1.089  0.00  0.00    +0.000 A 
ENDBRANCH  19  32
ENDBRANCH   1  19
TORSDOF 5
