REMARK  Name = ZINC34757049
REMARK  5 active torsions:
REMARK  status: ('A' for Active; 'I' for Inactive)
REMARK    1  A    between atoms: C_1  and  C_2
REMARK    2  A    between atoms: C_2  and  S_3
REMARK    3  A    between atoms: S_3  and  C_4
REMARK    4  A    between atoms: N_19  and  C_22
REMARK    5  A    between atoms: C_22  and  C_23
REMARK                            x       y       z     vdW  Elec       q    Type
REMARK                         _______ _______ _______ _____ _____    ______ ____
ROOT
ATOM      1  C   UNL     1      -1.499  -2.396   0.182  0.00  0.00    +0.191 A 
ATOM      2  N   UNL     1      -2.580  -3.168   0.177  0.00  0.00    -0.206 NA
ATOM      3  C   UNL     1      -2.507  -4.477  -0.004  0.00  0.00    +0.134 A 
ATOM      4  C   UNL     1      -1.233  -5.079  -0.200  0.00  0.00    +0.051 A 
ATOM      5  C   UNL     1      -0.918  -6.501  -0.418  0.00  0.00    -0.025 A 
ATOM      6  C   UNL     1       0.376  -6.819  -0.576  0.00  0.00    -0.004 A 
ATOM      7  S   UNL     1       1.250  -5.276  -0.452  0.00  0.00    -0.073 S 
ATOM      8  C   UNL     1      -0.134  -4.202  -0.183  0.00  0.00    +0.115 A 
ATOM      9  N   UNL     1      -0.288  -2.904  -0.001  0.00  0.00    -0.215 NA
ATOM     10  C   UNL     1       0.577  -8.296  -0.786  0.00  0.00    +0.043 C 
ATOM     11  C   UNL     1      -0.744  -8.939  -0.309  0.00  0.00    +0.010 C 
ATOM     12  C   UNL     1      -1.745  -7.786  -0.518  0.00  0.00    +0.037 C 
ATOM     13  N   UNL     1      -3.654  -5.249  -0.002  0.00  0.00    -0.318 N 
ATOM     14  C   UNL     1      -4.217  -5.765   1.255  0.00  0.00    +0.088 C 
ATOM     15  C   UNL     1      -5.709  -5.418   1.298  0.00  0.00    -0.059 C 
ATOM     16  N   UNL     1      -6.364  -5.927   0.086  0.00  0.00    +0.384 N 
ATOM     17  C   UNL     1      -5.832  -5.240  -1.097  0.00  0.00    -0.059 C 
ATOM     18  C   UNL     1      -4.349  -5.573  -1.258  0.00  0.00    +0.088 C 
ATOM     19  H   UNL     1      -6.191  -6.918   0.004  0.00  0.00    -0.081 HD
ENDROOT
BRANCH   1  20
ATOM     20  S   UNL     1      -1.680  -0.661   0.429  0.00  0.00    -0.086 S 
BRANCH  20  22
ATOM     21  C   UNL     1       0.007   1.489   0.553  0.00  0.00    +0.016 C 
ATOM     22  C   UNL     1       0.018  -0.027   0.351  0.00  0.00    +0.074 C 
ENDBRANCH  20  22
ENDBRANCH   1  20
BRANCH  16  23
ATOM     23  C   UNL     1      -7.811  -5.692   0.178  0.00  0.00    -0.052 C 
BRANCH  23  24
ATOM     24  C   UNL     1      -8.499  -6.322  -1.005  0.00  0.00    -0.053 C 
ATOM     25  C   UNL     1      -9.471  -7.180  -0.817  0.00  0.00    +0.002 C 
ENDBRANCH  23  24
ENDBRANCH  16  23
TORSDOF 4
