REMARK  Name = ZINC41074153
REMARK  10 active torsions:
REMARK  status: ('A' for Active; 'I' for Inactive)
REMARK    1  A    between atoms: C_1  and  C_2
REMARK    2  A    between atoms: C_2  and  C_3
REMARK    3  A    between atoms: C_2  and  C_4
REMARK    4  A    between atoms: C_7  and  C_18
REMARK    5  A    between atoms: C_8  and  C_12
REMARK    6  A    between atoms: N_19  and  N_20
REMARK    7  A    between atoms: N_20  and  C_21
REMARK    8  A    between atoms: C_21  and  N_23
REMARK    9  A    between atoms: N_23  and  C_24
REMARK   10  A    between atoms: C_24  and  C_25
REMARK                            x       y       z     vdW  Elec       q    Type
REMARK                         _______ _______ _______ _____ _____    ______ ____
ROOT
ATOM      1  C   UNL     1       0.707  -0.490  -1.238  0.00  0.00    +0.105 A 
ATOM      2  N   UNL     1       0.200  -0.841  -2.381  0.00  0.00    -0.161 NA
ATOM      3  N   UNL     1       1.004  -1.269  -3.432  0.00  0.00    -0.204 N 
ATOM      4  C   UNL     1       0.857  -1.710  -4.750  0.00  0.00    +0.114 A 
ATOM      5  C   UNL     1       2.130  -1.982  -5.231  0.00  0.00    +0.101 A 
ATOM      6  N   UNL     1       3.003  -1.716  -4.245  0.00  0.00    -0.219 NA
ATOM      7  C   UNL     1       2.353  -1.300  -3.194  0.00  0.00    +0.197 A 
ATOM      8  S   UNL     1       2.456  -0.724  -1.515  0.00  0.00    -0.033 S 
ENDROOT
BRANCH   5   9
ATOM      9  C   UNL     1       2.466  -2.477  -6.585  0.00  0.00    +0.003 A 
ATOM     10  C   UNL     1       1.609  -3.360  -7.241  0.00  0.00    +0.010 A 
ATOM     11  C   UNL     1       1.927  -3.817  -8.504  0.00  0.00    +0.001 A 
ATOM     12  C   UNL     1       3.094  -3.401  -9.119  0.00  0.00    +0.000 A 
ATOM     13  C   UNL     1       3.949  -2.525  -8.474  0.00  0.00    +0.001 A 
ATOM     14  C   UNL     1       3.639  -2.056  -7.214  0.00  0.00    +0.010 A 
ENDBRANCH   5   9
BRANCH   1  16
ATOM     15  C   UNL     1      -0.019   1.526   0.010  0.00  0.00    +0.014 C 
ATOM     16  C   UNL     1       0.002  -0.004   0.002  0.00  0.00    +0.040 C 
ATOM     17  C   UNL     1      -1.433  -0.534   0.013  0.00  0.00    +0.014 C 
ENDBRANCH   1  16
BRANCH   4  18
ATOM     18  C   UNL     1      -0.399  -1.858  -5.483  0.00  0.00    +0.160 C 
ATOM     19  N   UNL     1      -1.529  -1.565  -4.905  0.00  0.00    -0.187 NA
BRANCH  19  20
ATOM     20  N   UNL     1      -2.733  -1.706  -5.607  0.00  0.00    -0.218 N 
ATOM     21  H   UNL     1      -2.725  -2.022  -6.524  0.00  0.00    +0.176 HD
BRANCH  20  22
ATOM     22  C   UNL     1      -3.902  -1.403  -5.009  0.00  0.00    +0.150 C 
ATOM     23  S   UNL     1      -5.373  -1.575  -5.867  0.00  0.00    -0.017 S 
BRANCH  22  24
ATOM     24  N   UNL     1      -3.912  -0.963  -3.735  0.00  0.00    -0.321 N 
ATOM     25  H   UNL     1      -3.079  -0.865  -3.248  0.00  0.00    +0.148 HD
BRANCH  24  26
ATOM     26  C   UNL     1      -5.183  -0.633  -3.084  0.00  0.00    +0.138 C 
BRANCH  26  27
ATOM     27  C   UNL     1      -4.920  -0.170  -1.674  0.00  0.00    -0.030 A 
ATOM     28  C   UNL     1      -4.888  -1.087  -0.640  0.00  0.00    +0.005 A 
ATOM     29  C   UNL     1      -4.647  -0.662   0.653  0.00  0.00    +0.000 A 
ATOM     30  C   UNL     1      -4.437   0.680   0.912  0.00  0.00    +0.000 A 
ATOM     31  C   UNL     1      -4.469   1.597  -0.122  0.00  0.00    +0.000 A 
ATOM     32  C   UNL     1      -4.705   1.171  -1.416  0.00  0.00    +0.005 A 
ENDBRANCH  26  27
ENDBRANCH  24  26
ENDBRANCH  22  24
ENDBRANCH  20  22
ENDBRANCH  19  20
ENDBRANCH   4  18
TORSDOF 8
