REMARK  Name = ZINC12371799
REMARK  4 active torsions:
REMARK  status: ('A' for Active; 'I' for Inactive)
REMARK    1  A    between atoms: C_1  and  O_2
REMARK    2  A    between atoms: O_2  and  C_3
REMARK    3  A    between atoms: C_8  and  N_9
REMARK    4  A    between atoms: N_19  and  C_22
REMARK                            x       y       z     vdW  Elec       q    Type
REMARK                         _______ _______ _______ _____ _____    ______ ____
ROOT
ATOM      1  N   UNL     1       1.380   3.319  -0.404  0.00  0.00    -0.246 N 
ATOM      2  C   UNL     1       1.237   2.007   0.001  0.00  0.00    +0.118 A 
ATOM      3  C   UNL     1       2.343   1.308   0.376  0.00  0.00    +0.069 A 
ATOM      4  C   UNL     1       3.598   1.941   0.351  0.00  0.00    +0.260 A 
ATOM      5  O   UNL     1       4.599   1.330   0.687  0.00  0.00    -0.267 OA
ATOM      6  N   UNL     1       3.691   3.225  -0.045  0.00  0.00    -0.274 N 
ATOM      7  H   UNL     1       4.671   3.725  -0.064  0.00  0.00    +0.173 HD
ATOM      8  C   UNL     1       2.591   3.902  -0.420  0.00  0.00    +0.335 A 
ATOM      9  O   UNL     1       2.694   5.059  -0.779  0.00  0.00    -0.246 OA
ATOM     10  C   UNL     1       2.259  -0.130   0.819  0.00  0.00    +0.130 C 
ATOM     11  N   UNL     1       0.858  -0.474   1.104  0.00  0.00    -0.280 NA
ATOM     12  C   UNL     1       0.002  -0.004   0.002  0.00  0.00    +0.191 C 
ATOM     13  N   UNL     1      -0.018   1.461   0.010  0.00  0.00    -0.317 N 
ATOM     14  H   UNL     1      -0.978   1.998   0.022  0.00  0.00    +0.149 HD
ENDROOT
BRANCH   1  20
ATOM     15  C   UNL     1      -0.148   4.046  -2.137  0.00  0.00    +0.144 A 
ATOM     16  C   UNL     1      -1.264   4.770  -2.525  0.00  0.00    +0.048 A 
ATOM     17  C   UNL     1      -1.978   5.494  -1.588  0.00  0.00    +0.004 A 
ATOM     18  C   UNL     1      -1.581   5.499  -0.264  0.00  0.00    +0.002 A 
ATOM     19  C   UNL     1      -0.473   4.775   0.132  0.00  0.00    +0.030 A 
ATOM     20  C   UNL     1       0.252   4.050  -0.803  0.00  0.00    +0.094 A 
BRANCH  15  22
ATOM     21  C   UNL     1       0.087   3.375  -4.406  0.00  0.00    +0.277 C 
ATOM     22  O   UNL     1       0.555   3.333  -3.057  0.00  0.00    -0.493 OA
ENDBRANCH  15  22
ENDBRANCH   1  20
BRANCH  11  23
ATOM     23  C   UNL     1       0.703  -1.920   1.312  0.00  0.00    +0.058 C 
ATOM     24  C   UNL     1       1.677  -2.387   2.395  0.00  0.00    +0.019 C 
ATOM     25  C   UNL     1       1.516  -3.893   2.612  0.00  0.00    +0.002 C 
ATOM     26  C   UNL     1       1.813  -4.631   1.305  0.00  0.00    +0.000 C 
ATOM     27  C   UNL     1       0.839  -4.164   0.222  0.00  0.00    +0.002 C 
ATOM     28  C   UNL     1       1.000  -2.658   0.005  0.00  0.00    +0.019 C 
ENDBRANCH  11  23
TORSDOF 3
