REMARK  Name = ZINC34758628
REMARK  10 active torsions:
REMARK  status: ('A' for Active; 'I' for Inactive)
REMARK    1  A    between atoms: C_1  and  C_2
REMARK    2  A    between atoms: C_3  and  C_32
REMARK    3  A    between atoms: C_7  and  N_16
REMARK    4  A    between atoms: C_9  and  S_11
REMARK    5  A    between atoms: S_11  and  C_12
REMARK    6  A    between atoms: C_12  and  C_13
REMARK    7  A    between atoms: C_13  and  C_15
REMARK    8  A    between atoms: N_19  and  C_22
REMARK    9  A    between atoms: C_22  and  C_23
REMARK   10  A    between atoms: N_25  and  C_26
REMARK                            x       y       z     vdW  Elec       q    Type
REMARK                         _______ _______ _______ _____ _____    ______ ____
ROOT
ATOM      1  N   UNL     1       0.027   1.044   3.091  0.00  0.00    -0.318 N 
ATOM      2  C   UNL     1      -0.219   2.031   2.029  0.00  0.00    +0.088 C 
ATOM      3  C   UNL     1      -1.319   2.988   2.500  0.00  0.00    -0.059 C 
ATOM      4  N   UNL     1      -0.939   3.571   3.793  0.00  0.00    +0.387 N 
ATOM      5  C   UNL     1      -0.867   2.518   4.814  0.00  0.00    -0.059 C 
ATOM      6  C   UNL     1       0.250   1.538   4.458  0.00  0.00    +0.088 C 
ATOM      7  H   UNL     1      -0.039   4.017   3.707  0.00  0.00    -0.081 HD
ENDROOT
BRANCH   1  14
ATOM      8  C   UNL     1       2.883   1.002   2.839  0.00  0.00    +0.045 C 
ATOM      9  C   UNL     1       2.628  -0.457   2.562  0.00  0.00    -0.028 A 
ATOM     10  C   UNL     1       3.650  -1.288   2.311  0.00  0.00    -0.008 A 
ATOM     11  S   UNL     1       2.854  -2.862   2.055  0.00  0.00    -0.073 S 
ATOM     12  C   UNL     1       1.169  -2.362   2.293  0.00  0.00    +0.115 A 
ATOM     13  C   UNL     1       1.273  -0.981   2.571  0.00  0.00    +0.051 A 
ATOM     14  C   UNL     1       0.042  -0.311   2.813  0.00  0.00    +0.134 A 
ATOM     15  N   UNL     1      -1.088  -0.996   2.769  0.00  0.00    -0.206 NA
ATOM     16  C   UNL     1      -1.114  -2.298   2.506  0.00  0.00    +0.191 A 
ATOM     17  N   UNL     1       0.001  -2.973   2.264  0.00  0.00    -0.215 NA
ATOM     18  C   UNL     1       5.122  -0.967   2.257  0.00  0.00    +0.052 C 
BRANCH  16  19
ATOM     19  S   UNL     1      -2.661  -3.140   2.466  0.00  0.00    -0.082 S 
BRANCH  19  20
ATOM     20  C   UNL     1      -2.216  -4.856   2.078  0.00  0.00    +0.107 C 
BRANCH  20  21
ATOM     21  C   UNL     1      -3.465  -5.696   2.013  0.00  0.00    -0.069 C 
ATOM     22  C   UNL     1      -3.937  -6.080   0.853  0.00  0.00    +0.008 C 
ATOM     23  C   UNL     1      -4.172  -6.096   3.283  0.00  0.00    +0.039 C 
ENDBRANCH  20  21
ENDBRANCH  19  20
ENDBRANCH  16  19
ENDBRANCH   1  14
BRANCH   4  24
ATOM     24  C   UNL     1      -1.941   4.569   4.191  0.00  0.00    +0.019 C 
BRANCH  24  25
ATOM     25  C   UNL     1      -1.491   5.255   5.455  0.00  0.00    +0.197 C 
ATOM     26  O   UNL     1      -0.439   4.943   5.973  0.00  0.00    -0.278 OA
ATOM     27  N   UNL     1      -2.257   6.215   6.010  0.00  0.00    -0.314 N 
ATOM     28  H   UNL     1      -3.098   6.465   5.596  0.00  0.00    +0.149 HD
BRANCH  27  29
ATOM     29  C   UNL     1      -1.819   6.883   7.238  0.00  0.00    +0.073 C 
ATOM     30  C   UNL     1      -2.243   6.050   8.450  0.00  0.00    +0.022 C 
ATOM     31  C   UNL     1      -1.786   6.747   9.733  0.00  0.00    +0.002 C 
ATOM     32  C   UNL     1      -2.428   8.133   9.817  0.00  0.00    +0.000 C 
ATOM     33  C   UNL     1      -2.004   8.966   8.606  0.00  0.00    +0.002 C 
ATOM     34  C   UNL     1      -2.461   8.269   7.322  0.00  0.00    +0.022 C 
ENDBRANCH  27  29
ENDBRANCH  24  25
ENDBRANCH   4  24
TORSDOF 7
