REMARK  Name = ZINC41857122
REMARK  11 active torsions:
REMARK  status: ('A' for Active; 'I' for Inactive)
REMARK    1  A    between atoms: C_1  and  C_2
REMARK    2  A    between atoms: C_2  and  C_3
REMARK    3  A    between atoms: C_2  and  N_4
REMARK    4  A    between atoms: C_5  and  C_7
REMARK    5  A    between atoms: C_7  and  C_8
REMARK    6  A    between atoms: C_11  and  N_14
REMARK    7  A    between atoms: C_15  and  C_17
REMARK    8  A    between atoms: N_19  and  C_20
REMARK    9  A    between atoms: C_25  and  C_29
REMARK   10  A    between atoms: C_26  and  C_27
REMARK   11  A    between atoms: C_26  and  C_28
REMARK                            x       y       z     vdW  Elec       q    Type
REMARK                         _______ _______ _______ _____ _____    ______ ____
ROOT
ATOM      1  N   UNL     1      -2.202  -7.316  -2.172  0.00  0.00    -0.278 N 
ATOM      2  C   UNL     1      -2.136  -8.472  -1.482  0.00  0.00    +0.303 C 
ATOM      3  O   UNL     1      -2.102  -8.454  -0.269  0.00  0.00    -0.265 OA
ATOM      4  H   UNL     1      -2.298  -7.332  -3.137  0.00  0.00    +0.155 HD
ENDROOT
BRANCH   1   8
ATOM      5  C   UNL     1      -1.992  -3.676  -0.159  0.00  0.00    -0.039 A 
ATOM      6  C   UNL     1      -2.773  -3.793  -1.294  0.00  0.00    +0.006 A 
ATOM      7  C   UNL     1      -2.845  -4.998  -1.964  0.00  0.00    +0.023 A 
ATOM      8  C   UNL     1      -2.131  -6.094  -1.497  0.00  0.00    +0.034 A 
ATOM      9  C   UNL     1      -1.347  -5.974  -0.356  0.00  0.00    +0.023 A 
ATOM     10  C   UNL     1      -1.276  -4.764   0.306  0.00  0.00    +0.006 A 
BRANCH   5  11
ATOM     11  C   UNL     1      -1.916  -2.359   0.569  0.00  0.00    +0.130 C 
BRANCH  11  13
ATOM     12  N   UNL     1      -0.527  -0.313   0.506  0.00  0.00    -0.313 N 
ATOM     13  C   UNL     1      -0.785  -1.538   0.005  0.00  0.00    +0.218 C 
ATOM     14  O   UNL     1      -0.108  -1.978  -0.899  0.00  0.00    -0.275 OA
ATOM     15  H   UNL     1      -1.069   0.039   1.229  0.00  0.00    +0.149 HD
BRANCH  12  17
ATOM     16  C   UNL     1       0.296   1.970   0.204  0.00  0.00    +0.027 C 
ATOM     17  C   UNL     1       0.572   0.485  -0.042  0.00  0.00    +0.067 C 
ATOM     18  C   UNL     1       1.881   0.090   0.643  0.00  0.00    +0.027 C 
ENDBRANCH  12  17
ENDBRANCH  11  13
ENDBRANCH   5  11
ENDBRANCH   1   8
BRANCH   2  19
ATOM     19  C   UNL     1      -2.105  -9.775  -2.210  0.00  0.00    +0.300 C 
ATOM     20  O   UNL     1      -2.139  -9.793  -3.423  0.00  0.00    -0.265 OA
ATOM     21  N   UNL     1      -2.039 -10.931  -1.521  0.00  0.00    -0.304 N 
ATOM     22  H   UNL     1      -2.012 -10.917  -0.551  0.00  0.00    +0.149 HD
BRANCH  21  23
ATOM     23  C   UNL     1      -2.009 -12.210  -2.235  0.00  0.00    +0.080 C 
ATOM     24  C   UNL     1      -3.438 -12.633  -2.644  0.00  0.00    +0.027 C 
ATOM     25  C   UNL     1      -3.674 -13.987  -1.908  0.00  0.00    -0.003 C 
ATOM     26  C   UNL     1      -2.740 -14.998  -2.641  0.00  0.00    +0.005 C 
ATOM     27  C   UNL     1      -1.310 -14.575  -2.232  0.00  0.00    +0.009 C 
ATOM     28  C   UNL     1      -1.516 -13.349  -1.291  0.00  0.00    -0.008 C 
ATOM     29  C   UNL     1      -2.861 -13.745  -0.587  0.00  0.00    -0.025 C 
ATOM     30  C   UNL     1      -2.720 -15.024   0.242  0.00  0.00    +0.012 C 
ATOM     31  C   UNL     1      -3.438 -12.594   0.239  0.00  0.00    +0.012 C 
ATOM     32  C   UNL     1      -0.336 -12.999  -0.381  0.00  0.00    +0.013 C 
ENDBRANCH  21  23
ENDBRANCH   2  19
TORSDOF 6
