REMARK  Name = ZINC36308106
REMARK  14 active torsions:
REMARK  status: ('A' for Active; 'I' for Inactive)
REMARK    1  A    between atoms: C_1  and  N_2
REMARK    2  A    between atoms: C_3  and  O_33
REMARK    3  A    between atoms: C_4  and  C_13
REMARK    4  A    between atoms: C_5  and  C_7
REMARK    5  A    between atoms: C_13  and  N_14
REMARK    6  A    between atoms: N_14  and  C_15
REMARK    7  A    between atoms: N_14  and  C_21
REMARK    8  A    between atoms: C_15  and  C_16
REMARK    9  A    between atoms: C_21  and  C_22
REMARK   10  A    between atoms: C_22  and  C_24
REMARK   11  A    between atoms: C_22  and  O_32
REMARK   12  A    between atoms: C_24  and  O_25
REMARK   13  A    between atoms: O_25  and  C_26
REMARK   14  A    between atoms: O_33  and  C_34
REMARK                            x       y       z     vdW  Elec       q    Type
REMARK                         _______ _______ _______ _____ _____    ______ ____
ROOT
ATOM      1  C   UNL     1       0.578  -3.747  -1.289  0.00  0.00    -0.035 C 
ENDROOT
BRANCH   1   5
ATOM      2  C   UNL     1       1.517   1.141  -0.620  0.00  0.00    +0.176 C 
ATOM      3  N   UNL     1       1.086  -0.239  -0.386  0.00  0.00    -0.235 N 
ATOM      4  C   UNL     1       1.182  -1.266  -1.271  0.00  0.00    +0.221 A 
ATOM      5  C   UNL     1       0.675  -2.374  -0.675  0.00  0.00    +0.025 A 
ATOM      6  C   UNL     1       0.254  -2.013   0.619  0.00  0.00    +0.098 A 
ATOM      7  N   UNL     1       0.508  -0.733   0.790  0.00  0.00    -0.168 NA
BRANCH   6   8
ATOM      8  C   UNL     1      -0.363  -2.920   1.619  0.00  0.00    +0.002 A 
ATOM      9  C   UNL     1       0.031  -2.860   2.954  0.00  0.00    +0.010 A 
ATOM     10  C   UNL     1      -0.547  -3.705   3.880  0.00  0.00    +0.001 A 
ATOM     11  C   UNL     1      -1.516  -4.610   3.485  0.00  0.00    +0.000 A 
ATOM     12  C   UNL     1      -1.911  -4.673   2.161  0.00  0.00    +0.001 A 
ATOM     13  C   UNL     1      -1.344  -3.829   1.228  0.00  0.00    +0.010 A 
ENDBRANCH   6   8
BRANCH   4  14
ATOM     14  O   UNL     1       1.693  -1.195  -2.526  0.00  0.00    -0.438 OA
BRANCH  14  15
ATOM     15  C   UNL     1       0.856  -0.845  -3.537  0.00  0.00    +0.130 A 
ATOM     16  C   UNL     1      -0.448  -0.460  -3.258  0.00  0.00    +0.046 A 
ATOM     17  C   UNL     1      -1.297  -0.104  -4.288  0.00  0.00    +0.004 A 
ATOM     18  C   UNL     1      -0.849  -0.131  -5.596  0.00  0.00    +0.000 A 
ATOM     19  C   UNL     1       0.449  -0.515  -5.877  0.00  0.00    +0.004 A 
ATOM     20  C   UNL     1       1.304  -0.866  -4.850  0.00  0.00    +0.046 A 
ENDBRANCH  14  15
ENDBRANCH   4  14
ENDBRANCH   1   5
BRANCH   1  21
ATOM     21  N   UNL     1       1.864  -4.442  -1.139  0.00  0.00    +0.389 N 
ATOM     22  H   UNL     1       2.600  -3.875  -1.534  0.00  0.00    -0.081 HD
BRANCH  21  23
ATOM     23  C   UNL     1       2.134  -4.672   0.286  0.00  0.00    -0.003 C 
BRANCH  23  24
ATOM     24  C   UNL     1       3.516  -5.250   0.449  0.00  0.00    +0.089 A 
ATOM     25  C   UNL     1       4.641  -4.549   0.674  0.00  0.00    +0.042 A 
ATOM     26  C   UNL     1       5.697  -5.485   0.760  0.00  0.00    +0.041 A 
ATOM     27  C   UNL     1       5.154  -6.702   0.583  0.00  0.00    +0.195 A 
ATOM     28  O   UNL     1       3.832  -6.555   0.401  0.00  0.00    -0.470 OA
ENDBRANCH  23  24
ENDBRANCH  21  23
BRANCH  21  29
ATOM     29  C   UNL     1       1.809  -5.731  -1.841  0.00  0.00    -0.043 C 
BRANCH  29  30
ATOM     30  C   UNL     1       1.678  -5.487  -3.346  0.00  0.00    +0.135 C 
BRANCH  30  31
ATOM     31  O   UNL     1       2.827  -4.780  -3.816  0.00  0.00    -0.390 OA
ATOM     32  H   UNL     1       3.653  -5.278  -3.743  0.00  0.00    +0.210 HD
ENDBRANCH  30  31
BRANCH  30  33
ATOM     33  C   UNL     1       1.573  -6.829  -4.073  0.00  0.00    +0.258 C 
BRANCH  33  34
ATOM     34  O   UNL     1       1.333  -6.601  -5.463  0.00  0.00    -0.489 OA
BRANCH  34  35
ATOM     35  C   UNL     1       1.214  -7.697  -6.257  0.00  0.00    +0.121 A 
ATOM     36  C   UNL     1       1.318  -8.967  -5.708  0.00  0.00    +0.045 A 
ATOM     37  C   UNL     1       1.195 -10.080  -6.517  0.00  0.00    +0.004 A 
ATOM     38  C   UNL     1       0.969  -9.929  -7.873  0.00  0.00    +0.000 A 
ATOM     39  C   UNL     1       0.865  -8.665  -8.422  0.00  0.00    +0.004 A 
ATOM     40  C   UNL     1       0.981  -7.548  -7.616  0.00  0.00    +0.045 A 
ENDBRANCH  34  35
ENDBRANCH  33  34
ENDBRANCH  30  33
ENDBRANCH  29  30
ENDBRANCH  21  29
ENDBRANCH   1  21
TORSDOF 13
