REMARK  Name = ZINC19315048
REMARK  10 active torsions:
REMARK  status: ('A' for Active; 'I' for Inactive)
REMARK    1  A    between atoms: C_1  and  C_2
REMARK    2  A    between atoms: C_3  and  C_23
REMARK    3  A    between atoms: C_4  and  C_14
REMARK    4  A    between atoms: C_17  and  N_20
REMARK    5  A    between atoms: N_20  and  C_21
REMARK    6  A    between atoms: N_20  and  C_22
REMARK    7  A    between atoms: C_23  and  O_25
REMARK    8  A    between atoms: O_25  and  C_26
REMARK    9  A    between atoms: C_26  and  C_27
REMARK   10  A    between atoms: C_26  and  C_28
REMARK                            x       y       z     vdW  Elec       q    Type
REMARK                         _______ _______ _______ _____ _____    ______ ____
ROOT
ATOM      1  C   UNL     1      -0.227  -4.288  -2.359  0.00  0.00    +0.061 C 
ATOM      2  C   UNL     1       0.745  -3.460  -3.159  0.00  0.00    +0.016 C 
ATOM      3  C   UNL     1       1.043  -2.211  -2.762  0.00  0.00    +0.065 C 
ATOM      4  C   UNL     1       1.996  -1.353  -3.541  0.00  0.00    +0.092 C 
ATOM      5  C   UNL     1       2.842  -2.191  -4.468  0.00  0.00    +0.024 C 
ATOM      6  C   UNL     1       2.469  -3.446  -4.795  0.00  0.00    +0.015 C 
ATOM      7  N   UNL     1       1.320  -3.985  -4.283  0.00  0.00    -0.321 N 
ATOM      8  C   UNL     1       3.307  -4.288  -5.725  0.00  0.00    +0.051 C 
ATOM      9  C   UNL     1       4.031  -3.384  -6.725  0.00  0.00    +0.014 C 
ATOM     10  C   UNL     1       4.896  -2.390  -5.942  0.00  0.00    +0.080 C 
ATOM     11  C   UNL     1       4.020  -1.625  -4.987  0.00  0.00    +0.162 C 
ATOM     12  O   UNL     1       4.337  -0.499  -4.659  0.00  0.00    -0.292 OA
ATOM     13  H   UNL     1       0.858  -4.848  -4.785  0.00  0.00    +0.152 HD
ENDROOT
BRANCH   4  14
ATOM     14  C   UNL     1       1.212  -0.350  -4.348  0.00  0.00    -0.035 A 
ATOM     15  C   UNL     1       0.303  -0.786  -5.294  0.00  0.00    +0.006 A 
ATOM     16  C   UNL     1      -0.421   0.130  -6.032  0.00  0.00    +0.023 A 
ATOM     17  C   UNL     1      -0.228   1.491  -5.829  0.00  0.00    +0.029 A 
ATOM     18  C   UNL     1       0.690   1.925  -4.881  0.00  0.00    +0.023 A 
ATOM     19  C   UNL     1       1.407   1.004  -4.143  0.00  0.00    +0.006 A 
BRANCH  17  20
ATOM     20  N   UNL     1      -0.955   2.420  -6.577  0.00  0.00    -0.336 N 
ATOM     21  C   UNL     1      -0.665   3.850  -6.449  0.00  0.00    +0.129 C 
ATOM     22  C   UNL     1      -2.006   1.964  -7.489  0.00  0.00    +0.129 C 
ENDBRANCH  17  20
ENDBRANCH   4  14
BRANCH   3  23
ATOM     23  C   UNL     1       0.442  -1.694  -1.590  0.00  0.00    +0.338 C 
ATOM     24  O   UNL     1       1.067  -1.669  -0.546  0.00  0.00    -0.245 OA
BRANCH  23  25
ATOM     25  O   UNL     1      -0.824  -1.228  -1.631  0.00  0.00    -0.459 OA
BRANCH  25  26
ATOM     26  C   UNL     1      -1.367  -0.720  -0.410  0.00  0.00    +0.171 C 
ATOM     27  C   UNL     1      -2.881  -0.938  -0.397  0.00  0.00    +0.052 C 
ATOM     28  C   UNL     1      -1.067   0.776  -0.302  0.00  0.00    +0.052 C 
ENDBRANCH  25  26
ENDBRANCH  23  25
ENDBRANCH   3  23
TORSDOF 5
