REMARK  Name = ZINC12053647
REMARK  8 active torsions:
REMARK  status: ('A' for Active; 'I' for Inactive)
REMARK    1  A    between atoms: C_1  and  C_2
REMARK    2  A    between atoms: C_4  and  C_31
REMARK    3  A    between atoms: C_8  and  C_30
REMARK    4  A    between atoms: C_9  and  C_12
REMARK    5  A    between atoms: N_14  and  C_15
REMARK    6  A    between atoms: C_15  and  C_16
REMARK    7  A    between atoms: C_19  and  C_22
REMARK    8  A    between atoms: C_22  and  C_23
REMARK                            x       y       z     vdW  Elec       q    Type
REMARK                         _______ _______ _______ _____ _____    ______ ____
ROOT
ATOM      1  C   UNL     1      -1.596  -1.839  -0.134  0.00  0.00    +0.261 C 
ATOM      2  O   UNL     1      -0.663  -2.617  -0.067  0.00  0.00    -0.269 OA
ATOM      3  N   UNL     1      -1.368  -0.510  -0.108  0.00  0.00    -0.307 N 
ATOM      4  H   UNL     1      -2.112   0.110  -0.162  0.00  0.00    +0.149 HD
ENDROOT
BRANCH   1  13
ATOM      5  C   UNL     1      -7.964  -5.661  -0.655  0.00  0.00    +0.044 C 
ATOM      6  C   UNL     1      -6.985  -4.519  -0.571  0.00  0.00    -0.050 A 
ATOM      7  C   UNL     1      -7.450  -3.210  -0.600  0.00  0.00    +0.008 A 
ATOM      8  C   UNL     1      -6.572  -2.151  -0.524  0.00  0.00    -0.026 A 
ATOM      9  C   UNL     1      -5.205  -2.392  -0.419  0.00  0.00    +0.050 A 
ATOM     10  C   UNL     1      -4.736  -3.720  -0.391  0.00  0.00    +0.004 A 
ATOM     11  C   UNL     1      -5.649  -4.780  -0.469  0.00  0.00    +0.013 A 
ATOM     12  C   UNL     1      -3.326  -3.658  -0.286  0.00  0.00    -0.013 A 
ATOM     13  C   UNL     1      -2.971  -2.347  -0.245  0.00  0.00    +0.106 A 
ATOM     14  N   UNL     1      -4.109  -1.567  -0.329  0.00  0.00    -0.350 N 
ATOM     15  H   UNL     1      -4.130  -0.598  -0.324  0.00  0.00    +0.166 HD
ATOM     16  C   UNL     1      -2.386  -4.835  -0.228  0.00  0.00    +0.047 C 
ATOM     17  C   UNL     1      -7.090  -0.737  -0.556  0.00  0.00    +0.046 C 
ENDBRANCH   1  13
BRANCH   3  18
ATOM     18  C   UNL     1       0.002  -0.004   0.002  0.00  0.00    +0.152 C 
BRANCH  18  19
ATOM     19  C   UNL     1      -0.019   1.526   0.010  0.00  0.00    +0.227 C 
ATOM     20  C   UNL     1       1.418   2.100  -0.000  0.00  0.00    +0.103 C 
ATOM     21  C   UNL     1       1.298   3.301   0.919  0.00  0.00    +0.066 C 
ATOM     22  N   UNL     1       0.210   3.198   1.579  0.00  0.00    -0.093 NA
ATOM     23  O   UNL     1      -0.522   2.029   1.265  0.00  0.00    -0.389 OA
BRANCH  21  24
ATOM     24  C   UNL     1       2.295   4.426   1.034  0.00  0.00    +0.089 C 
BRANCH  24  25
ATOM     25  C   UNL     1       1.811   5.423   2.055  0.00  0.00    -0.042 A 
ATOM     26  C   UNL     1       1.016   6.483   1.663  0.00  0.00    +0.007 A 
ATOM     27  C   UNL     1       0.568   7.395   2.599  0.00  0.00    +0.038 A 
ATOM     28  C   UNL     1       0.925   7.253   3.930  0.00  0.00    +0.123 A 
ATOM     29  C   UNL     1       1.726   6.193   4.321  0.00  0.00    +0.038 A 
ATOM     30  C   UNL     1       2.168   5.279   3.383  0.00  0.00    +0.007 A 
ATOM     31  F   UNL     1       0.491   8.146   4.845  0.00  0.00    -0.205 F 
ENDBRANCH  24  25
ENDBRANCH  21  24
ENDBRANCH  18  19
ENDBRANCH   3  18
TORSDOF 5
