REMARK  Name = ZINC07285427
REMARK  5 active torsions:
REMARK  status: ('A' for Active; 'I' for Inactive)
REMARK    1  A    between atoms: C_4  and  C_7
REMARK    2  A    between atoms: C_14  and  C_18
REMARK    3  A    between atoms: C_18  and  N_52
REMARK    4  A    between atoms: N_21  and  C_24
REMARK    5  A    between atoms: C_27  and  O_30
REMARK                            x       y       z     vdW  Elec       q    Type
REMARK                         _______ _______ _______ _____ _____    ______ ____
ROOT
ATOM      1  C   UNL     1       2.810  -2.508  -0.038  0.00  0.00    +0.022 A 
ATOM      2  C   UNL     1       1.527  -2.062  -0.024  0.00  0.00    +0.031 A 
ATOM      3  C   UNL     1       1.267  -0.682  -0.014  0.00  0.00    +0.073 A 
ATOM      4  C   UNL     1       0.002  -0.004   0.002  0.00  0.00    +0.260 A 
ATOM      5  O   UNL     1      -1.039  -0.637   0.009  0.00  0.00    -0.267 OA
ATOM      6  N   UNL     1      -0.016   1.341   0.009  0.00  0.00    -0.312 N 
ATOM      7  H   UNL     1      -0.895   1.819   0.020  0.00  0.00    +0.170 HD
ATOM      8  C   UNL     1       1.133   2.065   0.002  0.00  0.00    +0.094 A 
ATOM      9  N   UNL     1       2.300   1.478  -0.012  0.00  0.00    -0.229 NA
ATOM     10  C   UNL     1       2.401   0.154  -0.020  0.00  0.00    +0.116 A 
ATOM     11  S   UNL     1       3.755  -0.994  -0.039  0.00  0.00    -0.068 S 
ENDROOT
BRANCH   1  15
ATOM     12  C   UNL     1       4.221  -6.514  -0.072  0.00  0.00    +0.000 A 
ATOM     13  C   UNL     1       5.124  -5.465  -0.076  0.00  0.00    +0.001 A 
ATOM     14  C   UNL     1       4.672  -4.162  -0.065  0.00  0.00    +0.009 A 
ATOM     15  C   UNL     1       3.301  -3.902  -0.050  0.00  0.00    -0.011 A 
ATOM     16  C   UNL     1       2.396  -4.965  -0.041  0.00  0.00    +0.009 A 
ATOM     17  C   UNL     1       2.861  -6.263  -0.058  0.00  0.00    +0.001 A 
ENDBRANCH   1  15
BRANCH   8  18
ATOM     18  C   UNL     1       1.060   3.570   0.011  0.00  0.00    -0.003 C 
BRANCH  18  24
ATOM     19  C   UNL     1       3.129   3.806   1.248  0.00  0.00    -0.059 C 
ATOM     20  C   UNL     1       4.564   4.332   1.165  0.00  0.00    +0.086 C 
ATOM     21  N   UNL     1       4.537   5.784   0.935  0.00  0.00    -0.333 N 
ATOM     22  C   UNL     1       3.829   6.104  -0.311  0.00  0.00    +0.086 C 
ATOM     23  C   UNL     1       2.394   5.577  -0.229  0.00  0.00    -0.059 C 
ATOM     24  N   UNL     1       2.434   4.114  -0.020  0.00  0.00    +0.386 N 
ATOM     25  H   UNL     1       2.948   3.680  -0.796  0.00  0.00    -0.081 HD
BRANCH  21  26
ATOM     26  C   UNL     1       5.833   6.313   0.926  0.00  0.00    +0.030 A 
ATOM     27  C   UNL     1       6.284   7.026  -0.177  0.00  0.00    +0.026 A 
ATOM     28  C   UNL     1       7.560   7.553  -0.183  0.00  0.00    +0.047 A 
ATOM     29  C   UNL     1       8.396   7.361   0.907  0.00  0.00    +0.117 A 
ATOM     30  C   UNL     1       7.948   6.644   2.007  0.00  0.00    +0.047 A 
ATOM     31  C   UNL     1       6.670   6.121   2.017  0.00  0.00    +0.026 A 
BRANCH  29  32
ATOM     32  O   UNL     1       9.655   7.875   0.897  0.00  0.00    -0.507 OA
ATOM     33  H   UNL     1      10.321   7.277   0.531  0.00  0.00    +0.292 HD
ENDBRANCH  29  32
ENDBRANCH  21  26
ENDBRANCH  18  24
ENDBRANCH   8  18
TORSDOF 5
