REMARK  Name = ZINC08820539
REMARK  9 active torsions:
REMARK  status: ('A' for Active; 'I' for Inactive)
REMARK    1  A    between atoms: C_4  and  C_7
REMARK    2  A    between atoms: C_8  and  C_9
REMARK    3  A    between atoms: N_13  and  C_17
REMARK    4  A    between atoms: C_17  and  C_18
REMARK    5  A    between atoms: C_18  and  C_19
REMARK    6  A    between atoms: C_19  and  C_20
REMARK    7  A    between atoms: N_22  and  N_23
REMARK    8  A    between atoms: C_24  and  C_26
REMARK    9  A    between atoms: C_30  and  N_32
REMARK                            x       y       z     vdW  Elec       q    Type
REMARK                         _______ _______ _______ _____ _____    ______ ____
ROOT
ATOM      1  C   UNL     1      -4.686  -4.668  -0.004  0.00  0.00    +0.029 C 
ENDROOT
BRANCH   1   2
ATOM      2  C   UNL     1      -6.004  -5.446  -0.003  0.00  0.00    +0.115 C 
BRANCH   2   7
ATOM      3  C   UNL     1      -5.147  -9.851  -2.131  0.00  0.00    +0.020 C 
ATOM      4  C   UNL     1      -5.319  -8.957  -1.114  0.00  0.00    +0.077 C 
ATOM      5  C   UNL     1      -5.608  -7.512  -1.171  0.00  0.00    +0.258 C 
ATOM      6  O   UNL     1      -5.731  -6.926  -2.231  0.00  0.00    -0.269 OA
ATOM      7  N   UNL     1      -5.722  -6.884  -0.013  0.00  0.00    -0.255 N 
ATOM      8  C   UNL     1      -5.591  -7.538   1.159  0.00  0.00    +0.121 C 
ATOM      9  S   UNL     1      -5.710  -6.909   2.747  0.00  0.00    -0.027 S 
ATOM     10  S   UNL     1      -5.263  -9.218   0.654  0.00  0.00    -0.061 S 
BRANCH   3  12
ATOM     11  C   UNL     1      -4.709 -12.090  -2.852  0.00  0.00    +0.008 C 
ATOM     12  C   UNL     1      -4.880 -11.204  -1.842  0.00  0.00    +0.002 C 
BRANCH  11  16
ATOM     13  C   UNL     1      -3.908 -16.163  -1.984  0.00  0.00    +0.000 A 
ATOM     14  C   UNL     1      -3.994 -15.743  -3.300  0.00  0.00    +0.001 A 
ATOM     15  C   UNL     1      -4.254 -14.421  -3.591  0.00  0.00    +0.008 A 
ATOM     16  C   UNL     1      -4.432 -13.502  -2.550  0.00  0.00    -0.025 A 
ATOM     17  C   UNL     1      -4.338 -13.933  -1.222  0.00  0.00    +0.008 A 
ATOM     18  C   UNL     1      -4.082 -15.260  -0.949  0.00  0.00    +0.001 A 
ENDBRANCH  11  16
ENDBRANCH   3  12
ENDBRANCH   2   7
ENDBRANCH   1   2
BRANCH   1  19
ATOM     19  C   UNL     1      -4.981  -3.167   0.006  0.00  0.00    +0.099 C 
BRANCH  19  20
ATOM     20  C   UNL     1      -3.683  -2.401   0.004  0.00  0.00    +0.229 C 
ATOM     21  O   UNL     1      -2.627  -2.997  -0.004  0.00  0.00    -0.274 OA
ATOM     22  N   UNL     1      -3.696  -1.053   0.012  0.00  0.00    -0.234 N 
ATOM     23  H   UNL     1      -4.541  -0.576   0.019  0.00  0.00    +0.173 HD
BRANCH  22  24
ATOM     24  N   UNL     1      -2.490  -0.341   0.011  0.00  0.00    -0.230 N 
ATOM     25  C   UNL     1      -2.503   1.007   0.019  0.00  0.00    +0.260 C 
ATOM     26  O   UNL     1      -3.562   1.605   0.027  0.00  0.00    -0.269 OA
ATOM     27  H   UNL     1      -1.645  -0.817   0.004  0.00  0.00    +0.173 HD
BRANCH  25  28
ATOM     28  C   UNL     1      -1.230   1.759   0.017  0.00  0.00    +0.040 A 
ATOM     29  C   UNL     1      -0.013   1.076   0.008  0.00  0.00    +0.013 A 
ATOM     30  C   UNL     1       1.172   1.783   0.000  0.00  0.00    +0.003 A 
ATOM     31  C   UNL     1       1.155   3.167   0.008  0.00  0.00    +0.033 A 
ATOM     32  C   UNL     1      -0.048   3.850   0.022  0.00  0.00    +0.127 A 
ATOM     33  C   UNL     1      -1.240   3.154   0.030  0.00  0.00    +0.045 A 
BRANCH  32  34
ATOM     34  N   UNL     1      -0.057   5.330   0.029  0.00  0.00    +0.056 N 
ATOM     35  O   UNL     1       0.994   5.945   0.021  0.00  0.00    -0.126 OA
ATOM     36  O   UNL     1      -1.116   5.933   0.042  0.00  0.00    -0.126 OA
ENDBRANCH  32  34
ENDBRANCH  25  28
ENDBRANCH  22  24
ENDBRANCH  19  20
ENDBRANCH   1  19
TORSDOF 9
