REMARK  Name = ZINC06798820
REMARK  9 active torsions:
REMARK  status: ('A' for Active; 'I' for Inactive)
REMARK    1  A    between atoms: C_1  and  C_2
REMARK    2  A    between atoms: C_10  and  C_20
REMARK    3  A    between atoms: C_11  and  S_12
REMARK    4  A    between atoms: S_12  and  C_13
REMARK    5  A    between atoms: N_22  and  C_23
REMARK    6  A    between atoms: C_23  and  C_24
REMARK    7  A    between atoms: C_24  and  C_25
REMARK    8  A    between atoms: C_25  and  C_26
REMARK    9  A    between atoms: C_25  and  C_27
REMARK                            x       y       z     vdW  Elec       q    Type
REMARK                         _______ _______ _______ _____ _____    ______ ____
ROOT
ATOM      1  C   UNL     1      -0.018   1.503   0.010  0.00  0.00    +0.044 C 
ATOM      2  C   UNL     1       0.002  -0.004   0.002  0.00  0.00    -0.048 A 
ATOM      3  C   UNL     1       0.006  -0.685  -1.208  0.00  0.00    +0.004 A 
ATOM      4  C   UNL     1       0.024  -2.050  -1.236  0.00  0.00    +0.011 A 
ATOM      5  C   UNL     1       0.040  -2.769  -0.038  0.00  0.00    +0.014 A 
ATOM      6  C   UNL     1       0.036  -2.085   1.192  0.00  0.00    +0.048 A 
ATOM      7  C   UNL     1       0.023  -0.692   1.194  0.00  0.00    +0.029 A 
ATOM      8  N   UNL     1       0.053  -3.021   2.199  0.00  0.00    -0.350 N 
ATOM      9  H   UNL     1       0.055  -2.819   3.148  0.00  0.00    +0.166 HD
ATOM     10  C   UNL     1       0.068  -4.300   1.656  0.00  0.00    +0.117 A 
ATOM     11  C   UNL     1       0.060  -4.200   0.279  0.00  0.00    +0.050 A 
ENDROOT
BRANCH  10  12
ATOM     12  C   UNL     1       0.089  -5.509   2.395  0.00  0.00    +0.261 C 
ATOM     13  O   UNL     1       0.101  -6.578   1.813  0.00  0.00    -0.269 OA
ATOM     14  N   UNL     1       0.095  -5.475   3.743  0.00  0.00    -0.310 N 
ATOM     15  H   UNL     1       0.085  -4.623   4.207  0.00  0.00    +0.149 HD
BRANCH  14  16
ATOM     16  C   UNL     1       0.117  -6.725   4.507  0.00  0.00    +0.105 C 
BRANCH  16  17
ATOM     17  C   UNL     1       0.119  -6.408   6.003  0.00  0.00    +0.022 C 
BRANCH  17  18
ATOM     18  C   UNL     1       0.142  -7.713   6.801  0.00  0.00    -0.016 C 
ATOM     19  C   UNL     1       0.270  -7.397   8.293  0.00  0.00    +0.007 C 
ATOM     20  C   UNL     1      -1.156  -8.484   6.553  0.00  0.00    +0.007 C 
ENDBRANCH  17  18
ENDBRANCH  16  17
ENDBRANCH  14  16
ENDBRANCH  10  12
BRANCH  11  21
ATOM     21  S   UNL     1       0.072  -5.534  -0.873  0.00  0.00    -0.087 S 
BRANCH  21  22
ATOM     22  C   UNL     1       1.784  -5.833  -1.161  0.00  0.00    +0.013 A 
ATOM     23  C   UNL     1       2.744  -5.069  -0.509  0.00  0.00    +0.016 A 
ATOM     24  C   UNL     1       4.085  -5.306  -0.737  0.00  0.00    +0.021 A 
ATOM     25  C   UNL     1       4.474  -6.304  -1.614  0.00  0.00    +0.041 A 
ATOM     26  C   UNL     1       3.520  -7.067  -2.265  0.00  0.00    +0.021 A 
ATOM     27  C   UNL     1       2.178  -6.838  -2.036  0.00  0.00    +0.016 A 
ATOM     28 CL   UNL     1       6.161  -6.599  -1.898  0.00  0.00    -0.084 Cl
ENDBRANCH  21  22
ENDBRANCH  11  21
TORSDOF 6
