REMARK  Name = ZINC22706380
REMARK  2 active torsions:
REMARK  status: ('A' for Active; 'I' for Inactive)
REMARK    1  A    between atoms: C_4  and  C_7
REMARK    2  A    between atoms: C_12  and  C_27
REMARK                            x       y       z     vdW  Elec       q    Type
REMARK                         _______ _______ _______ _____ _____    ______ ____
ROOT
ATOM      1  C   UNL     1       6.243   6.970   0.435  0.00  0.00    +0.032 C 
ATOM      2  C   UNL     1       4.800   6.593   0.778  0.00  0.00    +0.060 C 
ATOM      3  C   UNL     1       4.540   5.166   0.371  0.00  0.00    +0.020 C 
ATOM      4  C   UNL     1       5.529   4.246   0.372  0.00  0.00    +0.041 C 
ATOM      5  C   UNL     1       5.246   2.825  -0.041  0.00  0.00    +0.173 C 
ATOM      6  N   UNL     1       3.818   2.539  -0.015  0.00  0.00    -0.243 NA
ATOM      7  C   UNL     1       2.919   3.470  -0.008  0.00  0.00    +0.188 C 
ATOM      8  N   UNL     1       3.274   4.800  -0.004  0.00  0.00    -0.290 N 
ATOM      9  N   UNL     1       1.585   3.124   0.003  0.00  0.00    -0.241 N 
ATOM     10  C   UNL     1       1.216   1.793   0.000  0.00  0.00    +0.295 A 
ATOM     11  N   UNL     1      -0.016   1.357   0.009  0.00  0.00    -0.195 NA
ATOM     12  C   UNL     1       0.002  -0.004   0.002  0.00  0.00    +0.111 A 
ATOM     13  C   UNL     1      -0.994  -0.982   0.006  0.00  0.00    +0.031 A 
ATOM     14  C   UNL     1      -0.644  -2.314  -0.003  0.00  0.00    +0.002 A 
ATOM     15  C   UNL     1       0.691  -2.688  -0.018  0.00  0.00    +0.004 A 
ATOM     16  C   UNL     1       1.686  -1.732  -0.023  0.00  0.00    +0.048 A 
ATOM     17  C   UNL     1       1.352  -0.387  -0.013  0.00  0.00    +0.157 A 
ATOM     18  O   UNL     1       2.073   0.757  -0.014  0.00  0.00    -0.424 OA
ATOM     19  C   UNL     1       6.837   4.590   0.751  0.00  0.00    +0.164 C 
ATOM     20  O   UNL     1       7.702   3.736   0.755  0.00  0.00    -0.292 OA
ATOM     21  C   UNL     1       7.185   5.998   1.153  0.00  0.00    +0.088 C 
ATOM     22  H   UNL     1       2.544   5.569  -0.301  0.00  0.00    +0.154 HD
ATOM     23  H   UNL     1       0.813   3.908   0.015  0.00  0.00    +0.159 HD
ENDROOT
BRANCH   5  24
ATOM     24  C   UNL     1       5.772   2.603  -1.436  0.00  0.00    -0.013 A 
ATOM     25  C   UNL     1       5.039   3.029  -2.527  0.00  0.00    +0.044 A 
ATOM     26  C   UNL     1       5.525   2.830  -3.808  0.00  0.00    +0.126 A 
ATOM     27  C   UNL     1       6.739   2.193  -3.997  0.00  0.00    +0.076 A 
ATOM     28  C   UNL     1       7.470   1.762  -2.903  0.00  0.00    +0.126 A 
ATOM     29  C   UNL     1       6.986   1.967  -1.623  0.00  0.00    +0.044 A 
ATOM     30  F   UNL     1       8.656   1.140  -3.086  0.00  0.00    -0.205 F 
ATOM     31  F   UNL     1       4.810   3.251  -4.875  0.00  0.00    -0.205 F 
ENDBRANCH   5  24
BRANCH   1  35
ATOM     32  C   UNL     1       7.033  10.960   1.739  0.00  0.00    +0.000 A 
ATOM     33  C   UNL     1       7.171  10.629   0.404  0.00  0.00    +0.000 A 
ATOM     34  C   UNL     1       6.915   9.338  -0.018  0.00  0.00    +0.004 A 
ATOM     35  C   UNL     1       6.522   8.377   0.895  0.00  0.00    -0.044 A 
ATOM     36  C   UNL     1       6.379   8.710   2.229  0.00  0.00    +0.004 A 
ATOM     37  C   UNL     1       6.639  10.000   2.652  0.00  0.00    +0.000 A 
ENDBRANCH   1  35
TORSDOF 2
