REMARK  Name = ZINC09995140
REMARK  6 active torsions:
REMARK  status: ('A' for Active; 'I' for Inactive)
REMARK    1  A    between atoms: C_4  and  C_7
REMARK    2  A    between atoms: C_7  and  C_28
REMARK    3  A    between atoms: N_10  and  N_14
REMARK    4  A    between atoms: C_15  and  C_17
REMARK    5  A    between atoms: C_17  and  N_60
REMARK    6  A    between atoms: N_20  and  C_23
REMARK                            x       y       z     vdW  Elec       q    Type
REMARK                         _______ _______ _______ _____ _____    ______ ____
ROOT
ATOM      1  C   UNL     1      -8.348  -2.643   5.499  0.00  0.00    +0.165 C 
ATOM      2  C   UNL     1      -6.985  -3.303   5.441  0.00  0.00    +0.272 C 
ATOM      3  O   UNL     1      -6.416  -3.888   6.338  0.00  0.00    -0.270 OA
ATOM      4  N   UNL     1      -6.535  -3.101   4.187  0.00  0.00    -0.137 N 
ATOM      5  C   UNL     1      -7.419  -2.419   3.450  0.00  0.00    +0.327 C 
ATOM      6  O   UNL     1      -7.240  -2.120   2.286  0.00  0.00    -0.251 OA
ATOM      7  N   UNL     1      -8.529  -2.102   4.141  0.00  0.00    -0.276 N 
ATOM      8  H   UNL     1      -9.298  -1.612   3.810  0.00  0.00    +0.152 HD
ENDROOT
BRANCH   1  12
ATOM      9  C   UNL     1      -8.388   0.503   8.389  0.00  0.00    +0.000 A 
ATOM     10  C   UNL     1      -7.770  -0.698   8.683  0.00  0.00    +0.000 A 
ATOM     11  C   UNL     1      -7.757  -1.716   7.748  0.00  0.00    +0.006 A 
ATOM     12  C   UNL     1      -8.362  -1.533   6.519  0.00  0.00    -0.011 A 
ATOM     13  C   UNL     1      -8.975  -0.330   6.222  0.00  0.00    +0.006 A 
ATOM     14  C   UNL     1      -8.992   0.686   7.159  0.00  0.00    +0.000 A 
ENDBRANCH   1  12
BRANCH   1  15
ATOM     15  C   UNL     1      -9.415  -3.660   5.811  0.00  0.00    -0.011 A 
ATOM     16  C   UNL     1      -9.270  -4.504   6.896  0.00  0.00    +0.006 A 
ATOM     17  C   UNL     1     -10.251  -5.434   7.184  0.00  0.00    +0.000 A 
ATOM     18  C   UNL     1     -11.373  -5.527   6.382  0.00  0.00    +0.000 A 
ATOM     19  C   UNL     1     -11.516  -4.687   5.293  0.00  0.00    +0.000 A 
ATOM     20  C   UNL     1     -10.537  -3.754   5.008  0.00  0.00    +0.006 A 
ENDBRANCH   1  15
BRANCH   4  21
ATOM     21  N   UNL     1      -5.298  -3.554   3.712  0.00  0.00    -0.225 N 
ATOM     22  C   UNL     1      -4.284  -2.684   3.535  0.00  0.00    +0.213 C 
ATOM     23  O   UNL     1      -4.443  -1.508   3.788  0.00  0.00    -0.276 OA
ATOM     24  H   UNL     1      -5.170  -4.494   3.510  0.00  0.00    +0.173 HD
BRANCH  22  25
ATOM     25  C   UNL     1      -2.953  -3.171   3.024  0.00  0.00    +0.020 C 
BRANCH  25  31
ATOM     26  C   UNL     1      -1.689  -1.669   4.443  0.00  0.00    -0.059 C 
ATOM     27  C   UNL     1      -0.738  -0.471   4.435  0.00  0.00    +0.088 C 
ATOM     28  N   UNL     1       0.496  -0.833   3.723  0.00  0.00    -0.320 N 
ATOM     29  C   UNL     1       0.204  -1.234   2.340  0.00  0.00    +0.088 C 
ATOM     30  C   UNL     1      -0.748  -2.432   2.348  0.00  0.00    -0.059 C 
ATOM     31  N   UNL     1      -1.992  -2.047   3.047  0.00  0.00    +0.387 N 
ATOM     32  H   UNL     1      -2.409  -1.242   2.566  0.00  0.00    -0.081 HD
BRANCH  28  33
ATOM     33  C   UNL     1       1.415   0.209   3.757  0.00  0.00    +0.099 A 
ATOM     34  C   UNL     1       2.651   0.059   3.135  0.00  0.00    +0.042 A 
ATOM     35  C   UNL     1       3.556   1.104   3.176  0.00  0.00    +0.005 A 
ATOM     36  C   UNL     1       3.193   2.269   3.839  0.00  0.00    +0.018 A 
ATOM     37  C   UNL     1       1.950   2.349   4.434  0.00  0.00    +0.084 A 
ATOM     38  N   UNL     1       1.036   1.343   4.414  0.00  0.00    -0.350 N 
ATOM     39  H   UNL     1       0.118   1.430   4.865  0.00  0.00    +0.166 HD
ENDBRANCH  28  33
ENDBRANCH  25  31
ENDBRANCH  22  25
ENDBRANCH   4  21
TORSDOF 6
