REMARK  Name = ZINC09008879
REMARK  10 active torsions:
REMARK  status: ('A' for Active; 'I' for Inactive)
REMARK    1  A    between atoms: C_1  and  O_2
REMARK    2  A    between atoms: O_2  and  C_3
REMARK    3  A    between atoms: C_6  and  C_11
REMARK    4  A    between atoms: C_7  and  O_9
REMARK    5  A    between atoms: O_9  and  C_10
REMARK    6  A    between atoms: C_20  and  C_27
REMARK    7  A    between atoms: C_22  and  C_23
REMARK    8  A    between atoms: C_22  and  N_57
REMARK    9  A    between atoms: C_23  and  O_25
REMARK   10  A    between atoms: O_25  and  C_26
REMARK                            x       y       z     vdW  Elec       q    Type
REMARK                         _______ _______ _______ _____ _____    ______ ____
ROOT
ATOM      1  C   UNL     1       2.305   1.135  -0.114  0.00  0.00    +0.053 C 
ATOM      2  N   UNL     1       3.234   1.841  -1.011  0.00  0.00    -0.353 N 
ATOM      3  C   UNL     1       4.455   1.226  -1.313  0.00  0.00    +0.028 A 
ATOM      4  C   UNL     1       5.465   1.957  -1.924  0.00  0.00    +0.024 A 
ATOM      5  C   UNL     1       6.669   1.349  -2.225  0.00  0.00    +0.017 A 
ATOM      6  C   UNL     1       6.865   0.015  -1.918  0.00  0.00    +0.018 A 
ATOM      7  C   UNL     1       5.860  -0.714  -1.308  0.00  0.00    +0.019 A 
ATOM      8  C   UNL     1       4.653  -0.112  -1.002  0.00  0.00    -0.035 A 
ATOM      9  C   UNL     1       3.570  -0.916  -0.332  0.00  0.00    -0.001 C 
ATOM     10 BR   UNL     1       8.512  -0.816  -2.333  0.00  0.00    -0.050 Br
ATOM     11  H   UNL     1       3.006   2.707  -1.382  0.00  0.00    +0.145 HD
ATOM     12  N   UNL     1       2.259  -0.277  -0.552  0.00  0.00    +0.409 N 
ATOM     13  H   UNL     1       2.037  -0.308  -1.554  0.00  0.00    -0.076 HD
ENDROOT
BRANCH   1  17
ATOM     14  C   UNL     1      -1.600   2.851  -0.435  0.00  0.00    +0.124 A 
ATOM     15  C   UNL     1      -1.249   1.762  -1.222  0.00  0.00    +0.046 A 
ATOM     16  C   UNL     1       0.011   1.206  -1.112  0.00  0.00    +0.010 A 
ATOM     17  C   UNL     1       0.929   1.740  -0.227  0.00  0.00    -0.002 A 
ATOM     18  C   UNL     1       0.585   2.832   0.557  0.00  0.00    +0.127 A 
ATOM     19  C   UNL     1      -0.681   3.387   0.453  0.00  0.00    +0.091 A 
BRANCH  14  21
ATOM     20  C   UNL     1      -3.736   2.789  -1.476  0.00  0.00    +0.277 C 
ATOM     21  O   UNL     1      -2.841   3.393  -0.540  0.00  0.00    -0.495 OA
ENDBRANCH  14  21
BRANCH  18  22
ATOM     22  O   UNL     1       1.488   3.355   1.428  0.00  0.00    -0.495 OA
ATOM     23  C   UNL     1       1.065   4.478   2.203  0.00  0.00    +0.277 C 
ENDBRANCH  18  22
ENDBRANCH   1  17
BRANCH   9  24
ATOM     24  C   UNL     1       3.538  -2.301  -0.926  0.00  0.00    -0.057 A 
ATOM     25  C   UNL     1       2.901  -2.520  -2.133  0.00  0.00    +0.002 A 
ATOM     26  C   UNL     1       2.874  -3.789  -2.679  0.00  0.00    +0.000 A 
ATOM     27  C   UNL     1       3.478  -4.841  -2.015  0.00  0.00    +0.000 A 
ATOM     28  C   UNL     1       4.111  -4.622  -0.806  0.00  0.00    +0.000 A 
ATOM     29  C   UNL     1       4.140  -3.352  -0.261  0.00  0.00    +0.002 A 
ENDBRANCH   9  24
BRANCH  12  30
ATOM     30  C   UNL     1       1.210  -1.005   0.196  0.00  0.00    +0.048 C 
BRANCH  30  31
ATOM     31  C   UNL     1       1.501  -0.974   1.675  0.00  0.00    +0.290 C 
ATOM     32  O   UNL     1       2.454  -0.359   2.090  0.00  0.00    -0.253 OA
BRANCH  31  33
ATOM     33  O   UNL     1       0.701  -1.629   2.530  0.00  0.00    -0.469 OA
ATOM     34  C   UNL     1       1.105  -1.654   3.924  0.00  0.00    +0.280 C 
ENDBRANCH  31  33
ENDBRANCH  30  31
ENDBRANCH  12  30
TORSDOF 7
