REMARK  Name = ZINC05212765
REMARK  4 active torsions:
REMARK  status: ('A' for Active; 'I' for Inactive)
REMARK    1  A    between atoms: C_1  and  C_2
REMARK    2  A    between atoms: C_10  and  C_12
REMARK    3  A    between atoms: C_12  and  S_13
REMARK    4  A    between atoms: S_13  and  C_14
REMARK                            x       y       z     vdW  Elec       q    Type
REMARK                         _______ _______ _______ _____ _____    ______ ____
ROOT
ATOM      1  S   UNL     1      -0.990   7.852  -1.596  0.00  0.00    -0.099 S 
ENDROOT
BRANCH   1   2
ATOM      2  C   UNL     1      -1.407   9.539  -1.304  0.00  0.00    +0.109 A 
ATOM      3  C   UNL     1      -1.946  10.341  -2.347  0.00  0.00    +0.043 A 
ATOM      4  C   UNL     1      -2.232   9.959  -3.740  0.00  0.00    -0.025 A 
ATOM      5  C   UNL     1      -2.747  10.911  -4.536  0.00  0.00    -0.004 A 
ATOM      6  S   UNL     1      -2.880  12.354  -3.506  0.00  0.00    -0.073 S 
ATOM      7  C   UNL     1      -2.242  11.671  -2.001  0.00  0.00    +0.113 A 
ATOM      8  N   UNL     1      -2.027  12.130  -0.782  0.00  0.00    -0.228 NA
ATOM      9  C   UNL     1      -1.524  11.340   0.147  0.00  0.00    +0.223 A 
ATOM     10  N   UNL     1      -1.228  10.078  -0.107  0.00  0.00    -0.229 NA
ATOM     11  C   UNL     1      -3.002  10.407  -5.931  0.00  0.00    +0.043 C 
ATOM     12  C   UNL     1      -2.978   8.868  -5.799  0.00  0.00    +0.010 C 
ATOM     13  C   UNL     1      -2.080   8.675  -4.561  0.00  0.00    +0.037 C 
ENDBRANCH   1   2
BRANCH   1  14
ATOM     14  C   UNL     1      -0.380   7.390   0.044  0.00  0.00    +0.131 C 
BRANCH  14  24
ATOM     15  C   UNL     1       2.420   1.398  -0.014  0.00  0.00    +0.064 C 
ATOM     16  C   UNL     1       1.010   1.930   0.003  0.00  0.00    +0.033 A 
ATOM     17  C   UNL     1      -0.013   1.076   0.008  0.00  0.00    +0.070 A 
ATOM     18  S   UNL     1      -1.414   2.183   0.019  0.00  0.00    -0.057 S 
ATOM     19  C   UNL     1      -0.502   3.711   0.026  0.00  0.00    +0.180 A 
ATOM     20  N   UNL     1       0.800   3.288   0.012  0.00  0.00    -0.259 N 
ATOM     21  C   UNL     1       1.758   4.263   0.008  0.00  0.00    +0.259 A 
ATOM     22  O   UNL     1       2.940   3.959  -0.005  0.00  0.00    -0.267 OA
ATOM     23  C   UNL     1       1.383   5.607   0.018  0.00  0.00    +0.095 A 
ATOM     24  C   UNL     1       0.046   5.944   0.033  0.00  0.00    +0.059 A 
ATOM     25  N   UNL     1      -0.861   4.971   0.036  0.00  0.00    -0.227 NA
ENDBRANCH  14  24
ENDBRANCH   1  14
TORSDOF 3
