REMARK  Name = ZINC18243895
REMARK  3 active torsions:
REMARK  status: ('A' for Active; 'I' for Inactive)
REMARK    1  A    between atoms: C_1  and  C_2
REMARK    2  A    between atoms: C_5  and  N_8
REMARK    3  A    between atoms: C_15  and  C_22
REMARK                            x       y       z     vdW  Elec       q    Type
REMARK                         _______ _______ _______ _____ _____    ______ ____
ROOT
ATOM      1  N   UNL     1       0.059  -4.172  -0.021  0.00  0.00    -0.210 N 
ATOM      2  C   UNL     1      -0.030  -4.900  -1.148  0.00  0.00    +0.230 C 
ATOM      3  O   UNL     1       0.013  -4.470  -2.281  0.00  0.00    -0.275 OA
ATOM      4  C   UNL     1      -0.194  -6.365  -0.747  0.00  0.00    +0.088 C 
ATOM      5  C   UNL     1      -1.660  -6.726  -0.884  0.00  0.00    +0.014 C 
ATOM      6  C   UNL     1      -2.068  -7.873   0.029  0.00  0.00    +0.009 C 
ATOM      7  C   UNL     1      -1.786  -7.463   1.479  0.00  0.00    +0.020 C 
ATOM      8  C   UNL     1      -0.278  -7.321   1.649  0.00  0.00    +0.021 C 
ATOM      9  C   UNL     1       0.350  -6.352   0.675  0.00  0.00    +0.088 C 
ATOM     10  C   UNL     1       0.173  -4.911   1.099  0.00  0.00    +0.230 C 
ATOM     11  O   UNL     1       0.138  -4.497   2.238  0.00  0.00    -0.275 OA
ENDROOT
BRANCH   1  16
ATOM     12  C   UNL     1      -0.015   1.503   0.010  0.00  0.00    +0.044 C 
ATOM     13  C   UNL     1       0.005  -0.004   0.002  0.00  0.00    -0.050 A 
ATOM     14  C   UNL     1       0.256  -0.697   1.172  0.00  0.00    +0.005 A 
ATOM     15  C   UNL     1       0.274  -2.078   1.167  0.00  0.00    +0.024 A 
ATOM     16  C   UNL     1       0.040  -2.771  -0.013  0.00  0.00    +0.044 A 
ATOM     17  C   UNL     1      -0.212  -2.072  -1.186  0.00  0.00    +0.024 A 
ATOM     18  C   UNL     1      -0.234  -0.691  -1.174  0.00  0.00    +0.005 A 
ENDBRANCH   1  16
BRANCH   7  19
ATOM     19  C   UNL     1      -2.307  -8.522   2.417  0.00  0.00    -0.044 A 
ATOM     20  C   UNL     1      -1.817  -9.812   2.343  0.00  0.00    +0.004 A 
ATOM     21  C   UNL     1      -2.295 -10.783   3.203  0.00  0.00    +0.000 A 
ATOM     22  C   UNL     1      -3.261 -10.463   4.138  0.00  0.00    +0.000 A 
ATOM     23  C   UNL     1      -3.751  -9.173   4.213  0.00  0.00    +0.000 A 
ATOM     24  C   UNL     1      -3.270  -8.201   3.355  0.00  0.00    +0.004 A 
ENDBRANCH   7  19
TORSDOF 2
