REMARK  Name = ZINC62737528
REMARK  8 active torsions:
REMARK  status: ('A' for Active; 'I' for Inactive)
REMARK    1  A    between atoms: C_1  and  C_2
REMARK    2  A    between atoms: C_2  and  C_3
REMARK    3  A    between atoms: C_2  and  C_4
REMARK    4  A    between atoms: C_2  and  N_5
REMARK    5  A    between atoms: N_5  and  C_6
REMARK    6  A    between atoms: C_6  and  C_7
REMARK    7  A    between atoms: C_10  and  N_13
REMARK    8  A    between atoms: C_18  and  C_20
REMARK                            x       y       z     vdW  Elec       q    Type
REMARK                         _______ _______ _______ _____ _____    ______ ____
ROOT
ATOM      1  C   UNL     1       1.428   0.166  -4.014  0.00  0.00    -0.064 A 
ATOM      2  C   UNL     1       2.472  -0.518  -3.419  0.00  0.00    +0.003 A 
ATOM      3  C   UNL     1       3.436  -1.126  -4.200  0.00  0.00    +0.023 A 
ATOM      4  C   UNL     1       3.355  -1.049  -5.585  0.00  0.00    +0.030 A 
ATOM      5  C   UNL     1       2.304  -0.361  -6.179  0.00  0.00    +0.023 A 
ATOM      6  C   UNL     1       1.341   0.239  -5.392  0.00  0.00    +0.003 A 
ENDROOT
BRANCH   4   7
ATOM      7  N   UNL     1       4.328  -1.662  -6.378  0.00  0.00    -0.318 N 
ATOM      8  C   UNL     1       5.272  -0.855  -7.162  0.00  0.00    +0.106 C 
ATOM      9  C   UNL     1       5.217  -1.313  -8.623  0.00  0.00    +0.019 C 
ATOM     10  C   UNL     1       5.472  -2.820  -8.690  0.00  0.00    +0.004 C 
ATOM     11  C   UNL     1       4.382  -3.559  -7.911  0.00  0.00    +0.032 C 
ATOM     12  C   UNL     1       4.431  -3.127  -6.438  0.00  0.00    +0.159 C 
BRANCH  12  13
ATOM     13  C   UNL     1       3.279  -3.745  -5.689  0.00  0.00    +0.231 C 
ATOM     14  O   UNL     1       2.177  -3.241  -5.747  0.00  0.00    -0.274 OA
ATOM     15  N   UNL     1       3.472  -4.859  -4.955  0.00  0.00    -0.328 N 
ATOM     16  H   UNL     1       4.353  -5.262  -4.908  0.00  0.00    +0.145 HD
ATOM     17  H   UNL     1       2.731  -5.257  -4.473  0.00  0.00    +0.145 HD
ENDBRANCH  12  13
ENDBRANCH   4   7
BRANCH   1  18
ATOM     18  C   UNL     1       0.378   0.827  -3.159  0.00  0.00    -0.046 C 
BRANCH  18  19
ATOM     19  N   UNL     1      -0.710  -0.123  -2.896  0.00  0.00    +0.385 N 
ATOM     20  H   UNL     1      -0.343  -0.930  -2.414  0.00  0.00    -0.085 HD
ATOM     21  H   UNL     1      -1.122  -0.413  -3.770  0.00  0.00    -0.085 HD
BRANCH  19  23
ATOM     22  C   UNL     1      -2.290   1.745  -2.793  0.00  0.00    -0.011 C 
ATOM     23  C   UNL     1      -1.733   0.521  -2.062  0.00  0.00    -0.077 C 
ATOM     24  C   UNL     1      -1.108   0.961  -0.736  0.00  0.00    -0.011 C 
ATOM     25  C   UNL     1      -2.867  -0.469  -1.788  0.00  0.00    -0.011 C 
ENDBRANCH  19  23
ENDBRANCH  18  19
ENDBRANCH   1  18
TORSDOF 5
