REMARK  Name = ZINC40352359
REMARK  10 active torsions:
REMARK  status: ('A' for Active; 'I' for Inactive)
REMARK    1  A    between atoms: C_1  and  O_2
REMARK    2  A    between atoms: O_2  and  C_3
REMARK    3  A    between atoms: C_5  and  C_22
REMARK    4  A    between atoms: C_7  and  N_21
REMARK    5  A    between atoms: C_8  and  O_9
REMARK    6  A    between atoms: O_9  and  C_10
REMARK    7  A    between atoms: C_10  and  C_11
REMARK    8  A    between atoms: C_11  and  C_13
REMARK    9  A    between atoms: C_11  and  O_20
REMARK   10  A    between atoms: C_22  and  O_23
REMARK                            x       y       z     vdW  Elec       q    Type
REMARK                         _______ _______ _______ _____ _____    ______ ____
ROOT
ATOM      1  C   UNL     1       0.626  -0.619   1.042  0.00  0.00    +0.164 A 
ATOM      2  C   UNL     1       1.202   0.138   2.052  0.00  0.00    +0.055 A 
ATOM      3  C   UNL     1       1.837  -0.484   3.110  0.00  0.00    -0.017 A 
ATOM      4  C   UNL     1       1.901  -1.864   3.168  0.00  0.00    +0.032 A 
ATOM      5  C   UNL     1       1.327  -2.630   2.162  0.00  0.00    +0.071 A 
ATOM      6  C   UNL     1       0.682  -2.006   1.098  0.00  0.00    +0.183 A 
ENDROOT
BRANCH   5   7
ATOM      7  N   UNL     1       1.392  -4.027   2.220  0.00  0.00    -0.355 N 
ATOM      8  H   UNL     1       1.838  -4.461   2.964  0.00  0.00    +0.142 HD
ATOM      9  H   UNL     1       0.990  -4.561   1.517  0.00  0.00    +0.142 HD
ENDBRANCH   5   7
BRANCH   1  11
ATOM     10  C   UNL     1      -0.017   1.425   0.010  0.00  0.00    +0.277 C 
ATOM     11  O   UNL     1       0.002  -0.004   0.002  0.00  0.00    -0.491 OA
ENDBRANCH   1  11
BRANCH   6  12
ATOM     12  O   UNL     1       0.114  -2.752   0.112  0.00  0.00    -0.484 OA
BRANCH  12  13
ATOM     13  C   UNL     1       0.939  -3.089  -1.005  0.00  0.00    +0.265 C 
BRANCH  13  14
ATOM     14  C   UNL     1       0.133  -3.924  -2.002  0.00  0.00    +0.182 C 
BRANCH  14  15
ATOM     15  C   UNL     1       1.035  -4.383  -3.118  0.00  0.00    -0.016 A 
ATOM     16  C   UNL     1       1.356  -3.517  -4.147  0.00  0.00    +0.007 A 
ATOM     17  C   UNL     1       2.184  -3.937  -5.171  0.00  0.00    +0.015 A 
ATOM     18  C   UNL     1       2.691  -5.224  -5.166  0.00  0.00    +0.018 A 
ATOM     19  C   UNL     1       2.369  -6.090  -4.136  0.00  0.00    +0.015 A 
ATOM     20  C   UNL     1       1.546  -5.667  -3.110  0.00  0.00    +0.007 A 
ATOM     21 BR   UNL     1       3.823  -5.800  -6.567  0.00  0.00    -0.050 Br
ENDBRANCH  14  15
BRANCH  14  22
ATOM     22  O   UNL     1      -0.926  -3.130  -2.541  0.00  0.00    -0.384 OA
ATOM     23  H   UNL     1      -0.626  -2.338  -3.008  0.00  0.00    +0.210 HD
ENDBRANCH  14  22
ENDBRANCH  13  14
ENDBRANCH  12  13
ENDBRANCH   6  12
BRANCH   3  24
ATOM     24  C   UNL     1       2.462   0.343   4.203  0.00  0.00    +0.191 C 
BRANCH  24  25
ATOM     25  O   UNL     1       1.499   0.580   5.231  0.00  0.00    -0.390 OA
ATOM     26  H   UNL     1       1.833   1.108   5.969  0.00  0.00    +0.210 HD
ENDBRANCH  24  25
ENDBRANCH   3  24
TORSDOF 9
