REMARK  Name = ZINC35790063
REMARK  6 active torsions:
REMARK  status: ('A' for Active; 'I' for Inactive)
REMARK    1  A    between atoms: C_3  and  C_10
REMARK    2  A    between atoms: C_5  and  N_7
REMARK    3  A    between atoms: N_20  and  C_21
REMARK    4  A    between atoms: C_21  and  C_22
REMARK    5  A    between atoms: C_26  and  O_29
REMARK    6  A    between atoms: C_27  and  O_28
REMARK                            x       y       z     vdW  Elec       q    Type
REMARK                         _______ _______ _______ _____ _____    ______ ____
ROOT
ATOM      1  C   UNL     1       3.605   2.217   0.020  0.00  0.00    +0.011 C 
ATOM      2  C   UNL     1       3.867   2.827   1.376  0.00  0.00    +0.009 A 
ATOM      3  C   UNL     1       3.467   2.331   2.563  0.00  0.00    +0.021 A 
ATOM      4  C   UNL     1       3.936   3.204   3.565  0.00  0.00    +0.019 A 
ATOM      5  C   UNL     1       4.603   4.203   2.951  0.00  0.00    +0.086 A 
ATOM      6  N   UNL     1       4.557   3.984   1.608  0.00  0.00    -0.352 N 
ATOM      7  C   UNL     1       5.132   4.840   0.565  0.00  0.00    +0.119 C 
ATOM      8  C   UNL     1       5.884   3.962  -0.440  0.00  0.00    +0.003 C 
ATOM      9  C   UNL     1       4.928   3.493  -1.530  0.00  0.00    -0.075 C 
ATOM     10  N   UNL     1       3.582   3.280  -0.994  0.00  0.00    +0.391 N 
ATOM     11  H   UNL     1       3.250   4.136  -0.575  0.00  0.00    -0.080 HD
ENDROOT
BRANCH   1  14
ATOM     12  C   UNL     1      -0.103   1.567   0.297  0.00  0.00    +0.002 A 
ATOM     13  C   UNL     1       1.116   2.218   0.283  0.00  0.00    +0.002 A 
ATOM     14  C   UNL     1       2.276   1.508   0.036  0.00  0.00    -0.053 A 
ATOM     15  C   UNL     1       2.217   0.146  -0.196  0.00  0.00    +0.035 A 
ATOM     16  C   UNL     1       0.998  -0.505  -0.181  0.00  0.00    +0.126 A 
ATOM     17  C   UNL     1      -0.163   0.206   0.064  0.00  0.00    +0.033 A 
BRANCH  16  18
ATOM     18  N   UNL     1       0.934  -1.962  -0.431  0.00  0.00    +0.056 N 
ATOM     19  O   UNL     1       1.948  -2.584  -0.648  0.00  0.00    -0.126 OA
ATOM     20  O   UNL     1      -0.133  -2.532  -0.418  0.00  0.00    -0.126 OA
ENDBRANCH  16  18
ENDBRANCH   1  14
BRANCH  10  21
ATOM     21  C   UNL     1       2.678   2.892  -2.086  0.00  0.00    -0.038 C 
BRANCH  21  22
ATOM     22  C   UNL     1       2.584   4.017  -3.084  0.00  0.00    -0.019 A 
ATOM     23  C   UNL     1       1.500   4.875  -3.059  0.00  0.00    +0.005 A 
ATOM     24  C   UNL     1       1.411   5.908  -3.973  0.00  0.00    +0.004 A 
ATOM     25  C   UNL     1       2.405   6.087  -4.917  0.00  0.00    +0.049 A 
ATOM     26  C   UNL     1       3.494   5.231  -4.948  0.00  0.00    +0.158 A 
ATOM     27  C   UNL     1       3.587   4.195  -4.023  0.00  0.00    +0.160 A 
BRANCH  27  28
ATOM     28  O   UNL     1       4.656   3.355  -4.046  0.00  0.00    -0.503 OA
ATOM     29  H   UNL     1       4.536   2.580  -4.612  0.00  0.00    +0.292 HD
ENDBRANCH  27  28
BRANCH  26  30
ATOM     30  O   UNL     1       4.472   5.406  -5.876  0.00  0.00    -0.503 OA
ATOM     31  H   UNL     1       5.189   5.988  -5.587  0.00  0.00    +0.292 HD
ENDBRANCH  26  30
ENDBRANCH  21  22
ENDBRANCH  10  21
TORSDOF 6
