REMARK  Name = ZINC18285676
REMARK  8 active torsions:
REMARK  status: ('A' for Active; 'I' for Inactive)
REMARK    1  A    between atoms: C_1  and  C_2
REMARK    2  A    between atoms: C_3  and  C_28
REMARK    3  A    between atoms: C_4  and  C_10
REMARK    4  A    between atoms: C_13  and  C_16
REMARK    5  A    between atoms: C_18  and  C_25
REMARK    6  A    between atoms: C_19  and  C_24
REMARK    7  A    between atoms: C_25  and  C_27
REMARK    8  A    between atoms: C_28  and  C_30
REMARK                            x       y       z     vdW  Elec       q    Type
REMARK                         _______ _______ _______ _____ _____    ______ ____
ROOT
ATOM      1  C   UNL     1      -1.871  -1.473  -0.746  0.00  0.00    -0.023 A 
ATOM      2  C   UNL     1      -1.244  -1.362  -1.973  0.00  0.00    +0.006 A 
ATOM      3  C   UNL     1      -1.996  -1.319  -3.132  0.00  0.00    +0.006 A 
ATOM      4  C   UNL     1      -3.376  -1.387  -3.064  0.00  0.00    -0.023 A 
ATOM      5  C   UNL     1      -4.002  -1.499  -1.837  0.00  0.00    +0.006 A 
ATOM      6  C   UNL     1      -3.250  -1.546  -0.678  0.00  0.00    +0.006 A 
ENDROOT
BRANCH   1  10
ATOM      7  C   UNL     1       1.165   1.545   1.282  0.00  0.00    +0.061 C 
ATOM      8  C   UNL     1       0.699   0.151   0.951  0.00  0.00    +0.017 C 
ATOM      9  C   UNL     1      -0.628  -0.104   0.853  0.00  0.00    +0.036 C 
ATOM     10  C   UNL     1      -1.051  -1.520   0.518  0.00  0.00    +0.140 C 
ATOM     11  N   UNL     1       0.024  -2.508   0.324  0.00  0.00    -0.288 N 
ATOM     12  C   UNL     1       1.301  -2.100   0.455  0.00  0.00    +0.304 C 
ATOM     13  O   UNL     1       2.195  -2.909   0.297  0.00  0.00    -0.252 OA
ATOM     14  N   UNL     1       1.620  -0.834   0.749  0.00  0.00    -0.273 N 
ATOM     15  H   UNL     1      -0.184  -3.430   0.108  0.00  0.00    +0.151 HD
ATOM     16  H   UNL     1       2.559  -0.604   0.825  0.00  0.00    +0.156 HD
BRANCH   9  17
ATOM     17  C   UNL     1      -1.580   0.910   1.057  0.00  0.00    +0.160 C 
ATOM     18  O   UNL     1      -1.645   1.846   0.285  0.00  0.00    -0.293 OA
ATOM     19  C   UNL     1      -2.520   0.836   2.232  0.00  0.00    +0.091 C 
ENDBRANCH   9  17
ENDBRANCH   1  10
BRANCH   4  20
ATOM     20  C   UNL     1      -4.196  -1.339  -4.327  0.00  0.00    +0.140 C 
ATOM     21  C   UNL     1      -4.473  -2.765  -4.759  0.00  0.00    +0.036 C 
ATOM     22  C   UNL     1      -5.768  -3.145  -4.883  0.00  0.00    +0.017 C 
ATOM     23  N   UNL     1      -6.784  -2.272  -4.629  0.00  0.00    -0.273 N 
ATOM     24  C   UNL     1      -6.595  -1.003  -4.245  0.00  0.00    +0.304 C 
ATOM     25  O   UNL     1      -7.565  -0.301  -4.041  0.00  0.00    -0.252 OA
ATOM     26  N   UNL     1      -5.365  -0.480  -4.077  0.00  0.00    -0.288 N 
ATOM     27  C   UNL     1      -6.091  -4.553  -5.311  0.00  0.00    +0.061 C 
ATOM     28  H   UNL     1      -7.695  -2.588  -4.731  0.00  0.00    +0.156 HD
ATOM     29  H   UNL     1      -5.253   0.442  -3.798  0.00  0.00    +0.151 HD
BRANCH  21  30
ATOM     30  C   UNL     1      -3.424  -3.662  -5.021  0.00  0.00    +0.160 C 
ATOM     31  O   UNL     1      -3.268  -4.638  -4.314  0.00  0.00    -0.293 OA
ATOM     32  C   UNL     1      -2.492  -3.414  -6.179  0.00  0.00    +0.091 C 
ENDBRANCH  21  30
ENDBRANCH   4  20
TORSDOF 4
