REMARK  Name = ZINC42896129
REMARK  10 active torsions:
REMARK  status: ('A' for Active; 'I' for Inactive)
REMARK    1  A    between atoms: C_1  and  C_2
REMARK    2  A    between atoms: C_2  and  C_4
REMARK    3  A    between atoms: C_2  and  N_11
REMARK    4  A    between atoms: N_14  and  C_15
REMARK    5  A    between atoms: C_15  and  C_17
REMARK    6  A    between atoms: C_15  and  C_19
REMARK    7  A    between atoms: C_17  and  O_18
REMARK    8  A    between atoms: C_19  and  C_21
REMARK    9  A    between atoms: C_19  and  O_30
REMARK   10  A    between atoms: C_24  and  N_27
REMARK                            x       y       z     vdW  Elec       q    Type
REMARK                         _______ _______ _______ _____ _____    ______ ____
ROOT
ATOM      1  C   UNK A   1       4.166  -1.166   2.249  0.00  0.00    +0.133 C 
ENDROOT
BRANCH   1   5
ATOM      2  N   UNK A   0       0.711  -0.489   1.189  0.00  0.00    -0.293 N 
ATOM      3  C   UNK A   0       2.054  -0.600   1.174  0.00  0.00    +0.300 C 
ATOM      4  O   UNK A   0       2.677  -0.297   0.175  0.00  0.00    -0.253 OA
ATOM      5  N   UNK A   1       2.706  -1.046   2.266  0.00  0.00    -0.292 N 
ATOM      6  H   UNK A   0       0.213  -0.731   1.986  0.00  0.00    +0.151 HD
ATOM      7  H   UNK A   1       2.208  -1.288   3.062  0.00  0.00    +0.151 HD
BRANCH   2   9
ATOM      8  C   UNK A   0      -0.019   1.526   0.010  0.00  0.00    +0.033 C 
ATOM      9  C   UNK A   0       0.002  -0.004   0.002  0.00  0.00    +0.103 C 
BRANCH   9  10
ATOM     10  C   UNK A   0      -1.412  -0.526   0.013  0.00  0.00    -0.009 A 
ATOM     11  C   UNK A   0      -2.015  -0.864   1.210  0.00  0.00    +0.007 A 
ATOM     12  C   UNK A   0      -3.312  -1.342   1.220  0.00  0.00    +0.000 A 
ATOM     13  C   UNK A   0      -4.006  -1.483   0.033  0.00  0.00    +0.001 A 
ATOM     14  C   UNK A   0      -3.404  -1.145  -1.165  0.00  0.00    +0.020 A 
ATOM     15  C   UNK A   0      -2.108  -0.661  -1.175  0.00  0.00    +0.046 A 
ATOM     16 CL   UNK A   0      -1.354  -0.230  -2.678  0.00  0.00    -0.083 Cl
ENDBRANCH   9  10
ENDBRANCH   2   9
ENDBRANCH   1   5
BRANCH   1  17
ATOM     17  C   UNK A   1       4.560  -2.515   1.643  0.00  0.00    +0.181 C 
BRANCH  17  18
ATOM     18  O   UNK A   1       4.103  -3.570   2.491  0.00  0.00    -0.393 OA
ATOM     19  H   UNK A   1       4.319  -4.456   2.168  0.00  0.00    +0.209 HD
ENDBRANCH  17  18
ENDBRANCH   1  17
BRANCH   1  20
ATOM     20  C   UNK A   1       4.701  -1.074   3.679  0.00  0.00    +0.167 C 
BRANCH  20  21
ATOM     21  C   UNK A   1       4.210   0.199   4.319  0.00  0.00    -0.017 A 
ATOM     22  C   UNK A   1       2.970   0.233   4.928  0.00  0.00    +0.008 A 
ATOM     23  C   UNK A   1       2.519   1.401   5.514  0.00  0.00    +0.033 A 
ATOM     24  C   UNK A   1       3.309   2.535   5.492  0.00  0.00    +0.126 A 
ATOM     25  C   UNK A   1       4.550   2.501   4.883  0.00  0.00    +0.033 A 
ATOM     26  C   UNK A   1       5.003   1.332   4.301  0.00  0.00    +0.008 A 
BRANCH  24  27
ATOM     27  N   UNK A   1       2.827   3.786   6.118  0.00  0.00    +0.056 N 
ATOM     28  O   UNK A   1       1.741   3.816   6.650  0.00  0.00    -0.126 OA
ATOM     29  O   UNK A   1       3.518   4.778   6.099  0.00  0.00    -0.126 OA
ENDBRANCH  24  27
ENDBRANCH  20  21
BRANCH  20  30
ATOM     30  O   UNK A   1       4.238  -2.196   4.434  0.00  0.00    -0.385 OA
ATOM     31  H   UNK A   1       3.275  -2.259   4.494  0.00  0.00    +0.210 HD
ENDBRANCH  20  30
ENDBRANCH   1  20
TORSDOF 9
