REMARK  Name = ZINC64773771
REMARK  5 active torsions:
REMARK  status: ('A' for Active; 'I' for Inactive)
REMARK    1  A    between atoms: C_1  and  C_2
REMARK    2  A    between atoms: C_7  and  C_8
REMARK    3  A    between atoms: C_8  and  S_9
REMARK    4  A    between atoms: S_9  and  C_10
REMARK    5  A    between atoms: C_16  and  C_24
REMARK                            x       y       z     vdW  Elec       q    Type
REMARK                         _______ _______ _______ _____ _____    ______ ____
ROOT
ATOM      1  C   UNL     1      -1.513   1.192   4.568  0.00  0.00    +0.182 C 
ATOM      2  N   UNL     1      -0.287   1.458   4.983  0.00  0.00    -0.154 NA
ATOM      3  C   UNL     1      -0.050   2.169   6.088  0.00  0.00    +0.249 C 
ATOM      4  O   UNL     1       1.082   2.386   6.476  0.00  0.00    -0.273 OA
ATOM      5  C   UNL     1      -1.260   2.692   6.833  0.00  0.00    +0.148 C 
ATOM      6  C   UNL     1      -1.174   2.212   8.283  0.00  0.00    +0.047 C 
ATOM      7  C   UNL     1      -2.297   2.875   9.085  0.00  0.00    +0.105 C 
ATOM      8  C   UNL     1      -3.615   2.738   8.380  0.00  0.00    +0.219 C 
ATOM      9  O   UNL     1      -4.633   2.889   9.021  0.00  0.00    -0.275 OA
ATOM     10  N   UNL     1      -3.717   2.455   7.071  0.00  0.00    -0.273 N 
ATOM     11  C   UNL     1      -2.608   2.229   6.313  0.00  0.00    +0.117 C 
ATOM     12  N   UNL     1      -2.636   1.537   5.210  0.00  0.00    -0.212 NA
ATOM     13  H   UNL     1      -4.592   2.424   6.653  0.00  0.00    +0.156 HD
ENDROOT
BRANCH   6  14
ATOM     14  C   UNL     1       0.162   2.597   8.864  0.00  0.00    -0.041 A 
ATOM     15  C   UNL     1       0.526   3.929   8.938  0.00  0.00    +0.007 A 
ATOM     16  C   UNL     1       1.751   4.283   9.471  0.00  0.00    +0.040 A 
ATOM     17  C   UNL     1       2.614   3.304   9.932  0.00  0.00    +0.137 A 
ATOM     18  C   UNL     1       2.249   1.969   9.858  0.00  0.00    +0.053 A 
ATOM     19  C   UNL     1       1.020   1.618   9.329  0.00  0.00    +0.022 A 
ATOM     20 BR   UNL     1       3.426   0.630  10.488  0.00  0.00    -0.047 Br
ATOM     21  F   UNL     1       3.812   3.649  10.453  0.00  0.00    -0.204 F 
ENDBRANCH   6  14
BRANCH   1  22
ATOM     22  S   UNL     1      -1.684   0.321   3.046  0.00  0.00    -0.084 S 
BRANCH  22  23
ATOM     23  C   UNL     1       0.025   0.045   2.504  0.00  0.00    +0.112 C 
BRANCH  23  30
ATOM     24  C   UNL     1      -0.018   1.503   0.010  0.00  0.00    +0.044 C 
ATOM     25  C   UNL     1       0.002  -0.004   0.002  0.00  0.00    -0.046 A 
ATOM     26  C   UNL     1       0.006  -0.689  -1.199  0.00  0.00    +0.003 A 
ATOM     27  C   UNL     1       0.025  -2.071  -1.207  0.00  0.00    +0.000 A 
ATOM     28  C   UNL     1       0.040  -2.768  -0.013  0.00  0.00    +0.000 A 
ATOM     29  C   UNL     1       0.037  -2.084   1.188  0.00  0.00    +0.005 A 
ATOM     30  C   UNL     1       0.023  -0.702   1.195  0.00  0.00    -0.034 A 
ENDBRANCH  23  30
ENDBRANCH  22  23
ENDBRANCH   1  22
TORSDOF 4
