REMARK  Name = ZINC64626288
REMARK  6 active torsions:
REMARK  status: ('A' for Active; 'I' for Inactive)
REMARK    1  A    between atoms: C_6  and  C_10
REMARK    2  A    between atoms: C_17  and  C_19
REMARK    3  A    between atoms: C_19  and  C_20
REMARK    4  A    between atoms: C_20  and  C_21
REMARK    5  A    between atoms: C_21  and  C_27
REMARK    6  A    between atoms: C_27  and  C_28
REMARK                            x       y       z     vdW  Elec       q    Type
REMARK                         _______ _______ _______ _____ _____    ______ ____
ROOT
ATOM      1  C   UNL     1       3.545  -2.788  -1.300  0.00  0.00    +0.118 C 
ATOM      2  C   UNL     1       2.906  -2.137  -2.531  0.00  0.00    +0.026 C 
ATOM      3  C   UNL     1       3.264  -2.949  -3.777  0.00  0.00    +0.003 C 
ATOM      4  C   UNL     1       2.710  -4.369  -3.639  0.00  0.00    +0.019 C 
ATOM      5  C   UNL     1       3.348  -5.045  -2.421  0.00  0.00    +0.108 C 
ATOM      6  N   UNL     1       3.135  -4.197  -1.240  0.00  0.00    -0.295 N 
ATOM      7  C   UNL     1       2.570  -4.701  -0.125  0.00  0.00    +0.216 C 
ATOM      8  O   UNL     1       2.311  -3.969   0.807  0.00  0.00    -0.276 OA
ENDROOT
BRANCH   1  14
ATOM      9  C   UNL     1       0.020   1.369   0.018  0.00  0.00    +0.002 A 
ATOM     10  C   UNL     1       1.201   2.133   0.016  0.00  0.00    +0.002 A 
ATOM     11  C   UNL     1       2.428   1.574   0.002  0.00  0.00    +0.027 A 
ATOM     12  C   UNL     1       2.558   0.111  -0.012  0.00  0.00    +0.060 A 
ATOM     13  N   UNL     1       3.588  -0.686  -0.028  0.00  0.00    -0.362 N 
ATOM     14  C   UNL     1       3.079  -2.063  -0.036  0.00  0.00    +0.195 C 
ATOM     15  N   UNL     1       1.614  -1.963  -0.024  0.00  0.00    -0.362 N 
ATOM     16  C   UNL     1       1.309  -0.698  -0.010  0.00  0.00    +0.060 A 
ATOM     17  C   UNL     1       0.027   0.021   0.006  0.00  0.00    +0.027 A 
ATOM     18  H   UNL     1       4.520  -0.418  -0.033  0.00  0.00    +0.162 HD
ATOM     19  H   UNL     1       0.988  -2.704  -0.026  0.00  0.00    +0.162 HD
ENDBRANCH   1  14
BRANCH   7  20
ATOM     20  C   UNL     1       2.262  -6.173  -0.035  0.00  0.00    +0.098 C 
BRANCH  20  21
ATOM     21  C   UNL     1       1.631  -6.481   1.324  0.00  0.00    +0.035 C 
BRANCH  21  22
ATOM     22  C   UNL     1       1.317  -7.975   1.415  0.00  0.00    +0.040 C 
ATOM     23  C   UNL     1       0.511  -8.276   2.698  0.00  0.00    +0.035 C 
ATOM     24  C   UNL     1      -0.436  -9.400   2.219  0.00  0.00    +0.098 C 
ATOM     25  C   UNL     1      -0.541  -9.186   0.725  0.00  0.00    +0.214 C 
ATOM     26  O   UNL     1      -1.395  -9.669   0.012  0.00  0.00    -0.276 OA
ATOM     27  N   UNL     1       0.449  -8.381   0.303  0.00  0.00    -0.309 N 
ATOM     28  H   UNL     1       0.574  -8.103  -0.618  0.00  0.00    +0.149 HD
BRANCH  22  29
ATOM     29  C   UNL     1       2.613  -8.789   1.398  0.00  0.00    +0.068 C 
BRANCH  29  30
ATOM     30  C   UNL     1       2.283 -10.259   1.364  0.00  0.00    -0.008 A 
ATOM     31  C   UNL     1       2.103 -11.069   0.292  0.00  0.00    +0.011 A 
ATOM     32  C   UNL     1       1.803 -12.402   0.502  0.00  0.00    +0.008 A 
ATOM     33  C   UNL     1       1.698 -12.860   1.774  0.00  0.00    +0.045 A 
ATOM     34  S   UNL     1       2.034 -11.387   2.725  0.00  0.00    -0.102 S 
ENDBRANCH  29  30
ENDBRANCH  22  29
ENDBRANCH  21  22
ENDBRANCH  20  21
ENDBRANCH   7  20
TORSDOF 6
