REMARK  Name = ZINC66895186
REMARK  7 active torsions:
REMARK  status: ('A' for Active; 'I' for Inactive)
REMARK    1  A    between atoms: C_4  and  O_7
REMARK    2  A    between atoms: O_7  and  C_8
REMARK    3  A    between atoms: N_10  and  C_11
REMARK    4  A    between atoms: N_14  and  C_17
REMARK    5  A    between atoms: C_17  and  C_18
REMARK    6  A    between atoms: C_18  and  C_20
REMARK    7  A    between atoms: C_18  and  O_28
REMARK                            x       y       z     vdW  Elec       q    Type
REMARK                         _______ _______ _______ _____ _____    ______ ____
ROOT
ATOM      1  C   UNL     1       4.962  -4.069   0.191  0.00  0.00    +0.073 C 
ATOM      2  C   UNL     1       4.649  -4.475   1.635  0.00  0.00    +0.004 C 
ATOM      3  C   UNL     1       4.629  -6.002   1.737  0.00  0.00    -0.077 C 
ATOM      4  N   UNL     1       5.939  -6.539   1.349  0.00  0.00    +0.382 N 
ATOM      5  C   UNL     1       6.214  -6.215  -0.056  0.00  0.00    -0.077 C 
ATOM      6  C   UNL     1       6.295  -4.697  -0.227  0.00  0.00    +0.004 C 
ATOM      7  H   UNL     1       6.654  -6.132   1.933  0.00  0.00    -0.082 HD
ENDROOT
BRANCH   1  10
ATOM      8  C   UNL     1       3.945  -1.871  -0.077  0.00  0.00    +0.406 C 
ATOM      9  O   UNL     1       2.862  -2.416  -0.165  0.00  0.00    -0.226 OA
ATOM     10  N   UNL     1       5.058  -2.610   0.102  0.00  0.00    -0.278 N 
ATOM     11  H   UNL     1       5.923  -2.176   0.173  0.00  0.00    +0.152 HD
BRANCH   8  12
ATOM     12  O   UNL     1       4.034  -0.530  -0.159  0.00  0.00    -0.412 OA
BRANCH  12  16
ATOM     13  C   UNL     1       0.526   1.635  -0.342  0.00  0.00    +0.000 A 
ATOM     14  C   UNL     1       0.945   1.100   0.862  0.00  0.00    +0.004 A 
ATOM     15  C   UNL     1       2.119   0.374   0.926  0.00  0.00    +0.046 A 
ATOM     16  C   UNL     1       2.878   0.183  -0.219  0.00  0.00    +0.133 A 
ATOM     17  C   UNL     1       2.456   0.721  -1.426  0.00  0.00    +0.046 A 
ATOM     18  C   UNL     1       1.281   1.446  -1.485  0.00  0.00    +0.004 A 
ENDBRANCH  12  16
ENDBRANCH   8  12
ENDBRANCH   1  10
BRANCH   4  19
ATOM     19  C   UNL     1       5.939  -7.997   1.523  0.00  0.00    -0.042 C 
BRANCH  19  20
ATOM     20  C   UNL     1       5.799  -8.334   3.009  0.00  0.00    +0.128 C 
BRANCH  20  21
ATOM     21  C   UNL     1       5.754  -9.830   3.183  0.00  0.00    -0.018 A 
ATOM     22  C   UNL     1       6.931 -10.550   3.272  0.00  0.00    +0.009 A 
ATOM     23  C   UNL     1       6.893 -11.923   3.432  0.00  0.00    +0.041 A 
ATOM     24  C   UNL     1       5.675 -12.577   3.504  0.00  0.00    +0.158 A 
ATOM     25  C   UNL     1       4.495 -11.855   3.415  0.00  0.00    +0.159 A 
ATOM     26  C   UNL     1       4.537 -10.480   3.260  0.00  0.00    +0.047 A 
ATOM     27  F   UNL     1       3.305 -12.492   3.484  0.00  0.00    -0.202 F 
ATOM     28  F   UNL     1       5.637 -13.919   3.660  0.00  0.00    -0.202 F 
ENDBRANCH  20  21
BRANCH  20  29
ATOM     29  O   UNL     1       6.917  -7.804   3.725  0.00  0.00    -0.389 OA
ATOM     30  H   UNL     1       7.771  -8.151   3.433  0.00  0.00    +0.210 HD
ENDBRANCH  20  29
ENDBRANCH  19  20
ENDBRANCH   4  19
TORSDOF 7
