REMARK  Name = ZINC22132657
REMARK  8 active torsions:
REMARK  status: ('A' for Active; 'I' for Inactive)
REMARK    1  A    between atoms: C_1  and  C_2
REMARK    2  A    between atoms: C_2  and  C_4
REMARK    3  A    between atoms: C_2  and  S_19
REMARK    4  A    between atoms: C_4  and  C_6
REMARK    5  A    between atoms: C_8  and  C_17
REMARK    6  A    between atoms: C_8  and  C_18
REMARK    7  A    between atoms: N_15  and  C_16
REMARK    8  A    between atoms: S_19  and  C_20
REMARK                            x       y       z     vdW  Elec       q    Type
REMARK                         _______ _______ _______ _____ _____    ______ ____
ROOT
ATOM      1  C   UNL     1      -0.813   8.168   0.372  0.00  0.00    +0.171 C 
ATOM      2  O   UNL     1       0.310   7.709   0.448  0.00  0.00    -0.291 OA
ENDROOT
BRANCH   1   3
ATOM      3  C   UNL     1      -1.894   7.329   0.066  0.00  0.00    +0.067 C 
ATOM      4  C   UNL     1      -1.706   5.990  -0.034  0.00  0.00    +0.024 C 
ATOM      5  C   UNL     1      -0.390   5.252   0.094  0.00  0.00    +0.030 C 
ATOM      6  C   UNL     1      -0.760   3.800  -0.100  0.00  0.00    -0.015 A 
ATOM      7  C   UNL     1      -0.018   2.640  -0.099  0.00  0.00    +0.006 A 
ATOM      8  C   UNL     1      -0.640   1.422  -0.309  0.00  0.00    +0.000 A 
ATOM      9  C   UNL     1      -2.006   1.374  -0.520  0.00  0.00    +0.002 A 
ATOM     10  C   UNL     1      -2.751   2.534  -0.527  0.00  0.00    +0.024 A 
ATOM     11  C   UNL     1      -2.133   3.765  -0.311  0.00  0.00    +0.038 A 
ATOM     12  N   UNL     1      -2.663   5.053  -0.268  0.00  0.00    -0.305 N 
ATOM     13  C   UNL     1      -4.084   5.361  -0.452  0.00  0.00    +0.135 C 
ATOM     14  C   UNL     1       0.213   5.470   1.483  0.00  0.00    +0.022 C 
ATOM     15  C   UNL     1       0.587   5.706  -0.993  0.00  0.00    +0.022 C 
ENDBRANCH   1   3
BRANCH   1  17
ATOM     16  C   UNL     1      -1.443   9.864   2.068  0.00  0.00    +0.028 C 
ATOM     17  C   UNL     1      -1.043   9.638   0.608  0.00  0.00    +0.122 C 
BRANCH  17  18
ATOM     18  S   UNL     1       0.481  10.554   0.249  0.00  0.00    -0.075 S 
BRANCH  18  19
ATOM     19  C   UNL     1       0.014  12.244   0.425  0.00  0.00    +0.197 A 
ATOM     20  N   UNL     1      -1.179  12.693   0.745  0.00  0.00    -0.122 NA
ATOM     21  N   UNL     1      -1.175  13.979   0.786  0.00  0.00    -0.129 NA
ATOM     22  C   UNL     1       0.030  14.430   0.493  0.00  0.00    +0.162 A 
ATOM     23  N   UNL     1       0.825  13.328   0.259  0.00  0.00    -0.278 N 
ATOM     24  C   UNL     1       2.141  13.482  -0.078  0.00  0.00    +0.095 A 
ATOM     25  C   UNL     1       2.681  14.713  -0.175  0.00  0.00    +0.018 A 
ATOM     26  C   UNL     1       1.897  15.857   0.064  0.00  0.00    +0.005 A 
ATOM     27  C   UNL     1       0.586  15.722   0.394  0.00  0.00    +0.049 A 
ENDBRANCH  18  19
ENDBRANCH  17  18
ENDBRANCH   1  17
TORSDOF 4
