REMARK  Name = ZINC06936550
REMARK  4 active torsions:
REMARK  status: ('A' for Active; 'I' for Inactive)
REMARK    1  A    between atoms: C_1  and  C_2
REMARK    2  A    between atoms: C_7  and  N_12
REMARK    3  A    between atoms: C_9  and  C_11
REMARK    4  A    between atoms: C_13  and  C_15
REMARK                            x       y       z     vdW  Elec       q    Type
REMARK                         _______ _______ _______ _____ _____    ______ ____
ROOT
ATOM      1  C   UNL     1       6.314  -2.105  -1.126  0.00  0.00    +0.078 C 
ATOM      2  C   UNL     1       6.607  -1.157   0.040  0.00  0.00    +0.031 C 
ATOM      3  C   UNL     1       5.719   0.083  -0.081  0.00  0.00    +0.107 C 
ATOM      4  N   UNL     1       4.307  -0.321  -0.065  0.00  0.00    -0.313 N 
ATOM      5  C   UNL     1       3.991  -1.194  -1.202  0.00  0.00    +0.107 C 
ATOM      6  C   UNL     1       4.828  -2.472  -1.114  0.00  0.00    +0.031 C 
ATOM      7  C   UNL     1       3.475   0.785  -0.042  0.00  0.00    +0.152 A 
ATOM      8  C   UNL     1       2.078   0.633  -0.023  0.00  0.00    +0.148 A 
ATOM      9  C   UNL     1       1.285   1.792  -0.001  0.00  0.00    +0.166 A 
ATOM     10  N   UNL     1       1.879   2.982   0.005  0.00  0.00    -0.216 NA
ATOM     11  C   UNL     1       3.192   3.075  -0.014  0.00  0.00    +0.225 A 
ATOM     12  N   UNL     1       3.978   2.015  -0.037  0.00  0.00    -0.218 NA
ATOM     13  N   UNL     1      -0.016   1.360   0.009  0.00  0.00    -0.312 N 
ATOM     14  C   UNL     1       0.002  -0.004   0.002  0.00  0.00    +0.112 A 
ATOM     15  N   UNL     1       1.235  -0.427  -0.021  0.00  0.00    -0.227 NA
ATOM     16  C   UNL     1      -1.222  -0.888   0.025  0.00  0.00    +0.074 C 
ATOM     17  C   UNL     1      -2.234  -0.379  -1.004  0.00  0.00    +0.008 C 
ATOM     18  C   UNL     1      -3.140   0.664  -0.357  0.00  0.00    +0.002 C 
ATOM     19  C   UNL     1      -2.367   1.467   0.688  0.00  0.00    +0.022 C 
ATOM     20  C   UNL     1      -1.211   2.210   0.015  0.00  0.00    +0.125 C 
ENDROOT
BRANCH   1  22
ATOM     21  N   UNL     1       7.051  -4.337  -1.898  0.00  0.00    -0.312 N 
ATOM     22  C   UNL     1       7.144  -3.354  -0.980  0.00  0.00    +0.216 C 
ATOM     23  O   UNL     1       7.896  -3.476  -0.036  0.00  0.00    -0.276 OA
ATOM     24  H   UNL     1       6.449  -4.239  -2.653  0.00  0.00    +0.149 HD
BRANCH  21  30
ATOM     25  C   UNL     1       8.157  -8.322  -0.853  0.00  0.00    +0.008 C 
ATOM     26  C   UNL     1       8.013  -7.976  -2.336  0.00  0.00    -0.009 C 
ATOM     27  C   UNL     1       9.398  -7.742  -2.942  0.00  0.00    +0.003 C 
ATOM     28  C   UNL     1      10.085  -6.586  -2.213  0.00  0.00    +0.002 C 
ATOM     29  C   UNL     1       9.242  -5.317  -2.362  0.00  0.00    +0.022 C 
ATOM     30  C   UNL     1       7.857  -5.551  -1.756  0.00  0.00    +0.076 C 
ATOM     31  C   UNL     1       7.170  -6.708  -2.485  0.00  0.00    +0.009 C 
ATOM     32  C   UNL     1       5.785  -6.942  -1.879  0.00  0.00    +0.009 C 
ENDBRANCH  21  30
ENDBRANCH   1  22
TORSDOF 2
