REMARK  Name = ZINC54061204
REMARK  4 active torsions:
REMARK  status: ('A' for Active; 'I' for Inactive)
REMARK    1  A    between atoms: C_1  and  C_2
REMARK    2  A    between atoms: N_8  and  C_9
REMARK    3  A    between atoms: C_10  and  N_12
REMARK    4  A    between atoms: C_16  and  C_18
REMARK                            x       y       z     vdW  Elec       q    Type
REMARK                         _______ _______ _______ _____ _____    ______ ____
ROOT
ATOM      1  N   UNL     1       0.051  -2.633   2.421  0.00  0.00    -0.307 N 
ATOM      2  C   UNL     1      -0.026  -4.094   2.604  0.00  0.00    +0.107 C 
ATOM      3  C   UNL     1      -0.587  -4.285   4.035  0.00  0.00    +0.021 C 
ATOM      4  C   UNL     1       0.102  -3.122   4.798  0.00  0.00    +0.029 C 
ATOM      5  C   UNL     1       0.153  -1.997   3.743  0.00  0.00    +0.105 C 
ENDROOT
BRANCH   1  15
ATOM      6  C   UNL     1      -0.057   1.502   0.010  0.00  0.00    +0.088 C 
ATOM      7  C   UNL     1      -0.016  -0.004   0.002  0.00  0.00    +0.130 A 
ATOM      8  N   UNL     1       0.004  -0.629  -1.155  0.00  0.00    -0.213 NA
ATOM      9  C   UNL     1       0.041  -1.959  -1.209  0.00  0.00    +0.163 A 
ATOM     10  C   UNL     1       0.058  -2.688  -0.004  0.00  0.00    +0.078 A 
ATOM     11  C   UNL     1       0.097  -4.056  -0.348  0.00  0.00    +0.148 A 
ATOM     12  N   UNL     1       0.102  -4.155  -1.647  0.00  0.00    -0.177 NA
ATOM     13  N   UNL     1       0.069  -2.876  -2.217  0.00  0.00    -0.249 N 
ATOM     14  C   UNL     1       0.063  -2.576  -3.651  0.00  0.00    +0.174 C 
ATOM     15  C   UNL     1       0.035  -1.972   1.209  0.00  0.00    +0.136 A 
ATOM     16  N   UNL     1       0.004  -0.644   1.158  0.00  0.00    -0.217 NA
ENDBRANCH   1  15
BRANCH   5  17
ATOM     17  C   UNL     1       1.455  -1.247   3.852  0.00  0.00    -0.026 A 
ATOM     18  C   UNL     1       2.611  -1.790   3.321  0.00  0.00    +0.007 A 
ATOM     19  C   UNL     1       3.807  -1.103   3.421  0.00  0.00    +0.022 A 
ATOM     20  C   UNL     1       3.847   0.128   4.051  0.00  0.00    +0.059 A 
ATOM     21  C   UNL     1       2.689   0.671   4.582  0.00  0.00    +0.060 A 
ATOM     22  C   UNL     1       1.493  -0.015   4.476  0.00  0.00    +0.027 A 
ATOM     23 CL   UNL     1       2.739   2.215   5.373  0.00  0.00    -0.082 Cl
ATOM     24 CL   UNL     1       5.348   0.990   4.177  0.00  0.00    -0.082 Cl
ENDBRANCH   5  17
TORSDOF 2
