REMARK  Name = ZINC67335810
REMARK  6 active torsions:
REMARK  status: ('A' for Active; 'I' for Inactive)
REMARK    1  A    between atoms: C_3  and  C_8
REMARK    2  A    between atoms: C_11  and  N_13
REMARK    3  A    between atoms: C_14  and  C_16
REMARK    4  A    between atoms: C_16  and  C_17
REMARK    5  A    between atoms: C_17  and  C_19
REMARK    6  A    between atoms: C_17  and  N_24
REMARK                            x       y       z     vdW  Elec       q    Type
REMARK                         _______ _______ _______ _____ _____    ______ ____
ROOT
ATOM      1  N   UNL     1       4.235   1.005   2.180  0.00  0.00    -0.312 N 
ATOM      2  C   UNL     1       4.738   1.112   3.426  0.00  0.00    +0.215 C 
ATOM      3  O   UNL     1       5.524   1.998   3.688  0.00  0.00    -0.276 OA
ATOM      4  H   UNL     1       3.607   0.297   1.970  0.00  0.00    +0.149 HD
ENDROOT
BRANCH   1   7
ATOM      5  C   UNL     1       3.672   2.186  -0.021  0.00  0.00    +0.041 C 
ATOM      6  C   UNL     1       4.964   1.398  -0.244  0.00  0.00    +0.033 C 
ATOM      7  C   UNL     1       4.638   1.958   1.143  0.00  0.00    +0.081 C 
BRANCH   5  10
ATOM      8  C   UNL     1      -0.017   1.377   0.010  0.00  0.00    +0.003 A 
ATOM      9  C   UNL     1       1.171   2.086   0.002  0.00  0.00    +0.004 A 
ATOM     10  C   UNL     1       2.378   1.413  -0.013  0.00  0.00    -0.040 A 
ATOM     11  C   UNL     1       2.399   0.030  -0.021  0.00  0.00    +0.042 A 
ATOM     12  C   UNL     1       1.211  -0.679  -0.013  0.00  0.00    +0.124 A 
ATOM     13  C   UNL     1       0.002  -0.004   0.002  0.00  0.00    +0.038 A 
ATOM     14  F   UNL     1       1.230  -2.030  -0.022  0.00  0.00    -0.205 F 
ENDBRANCH   5  10
ENDBRANCH   1   7
BRANCH   2  15
ATOM     15  C   UNL     1       4.324   0.132   4.492  0.00  0.00    +0.123 C 
BRANCH  15  16
ATOM     16  C   UNL     1       5.034   0.474   5.804  0.00  0.00    +0.120 C 
BRANCH  16  17
ATOM     17  N   UNL     1       6.478   0.284   5.641  0.00  0.00    -0.292 N 
ATOM     18  C   UNL     1       7.340   0.965   6.423  0.00  0.00    +0.298 C 
ATOM     19  O   UNL     1       6.919   1.737   7.262  0.00  0.00    -0.253 OA
ATOM     20  N   UNL     1       8.667   0.789   6.273  0.00  0.00    -0.313 N 
ATOM     21  H   UNL     1       6.813  -0.333   4.972  0.00  0.00    +0.151 HD
ATOM     22  H   UNL     1       9.003   0.173   5.604  0.00  0.00    +0.146 HD
ATOM     23  H   UNL     1       9.288   1.279   6.835  0.00  0.00    +0.146 HD
ENDBRANCH  16  17
BRANCH  16  24
ATOM     24  C   UNL     1       4.528  -0.428   6.900  0.00  0.00    +0.010 A 
ATOM     25  C   UNL     1       3.606  -0.171   7.859  0.00  0.00    +0.013 A 
ATOM     26  C   UNL     1       3.294  -1.161   8.771  0.00  0.00    +0.008 A 
ATOM     27  C   UNL     1       3.919  -2.360   8.679  0.00  0.00    +0.045 A 
ATOM     28  S   UNL     1       4.982  -2.115   7.266  0.00  0.00    -0.100 S 
ENDBRANCH  16  24
ENDBRANCH  15  16
ENDBRANCH   2  15
TORSDOF 6
