REMARK  Name = ZINC00925563
REMARK  16 active torsions:
REMARK  status: ('A' for Active; 'I' for Inactive)
REMARK    1  A    between atoms: C_1  and  C_2
REMARK    2  A    between atoms: C_2  and  C_3
REMARK    3  A    between atoms: C_2  and  C_4
REMARK    4  A    between atoms: C_2  and  C_5
REMARK    5  A    between atoms: C_8  and  S_11
REMARK    6  A    between atoms: S_11  and  N_14
REMARK    7  A    between atoms: N_14  and  C_15
REMARK    8  A    between atoms: N_14  and  C_24
REMARK    9  A    between atoms: C_15  and  C_16
REMARK   10  A    between atoms: C_19  and  O_22
REMARK   11  A    between atoms: O_22  and  C_23
REMARK   12  A    between atoms: C_24  and  C_25
REMARK   13  A    between atoms: C_29  and  O_39
REMARK   14  A    between atoms: C_30  and  O_37
REMARK   15  A    between atoms: O_37  and  C_38
REMARK   16  A    between atoms: O_39  and  C_40
REMARK                            x       y       z     vdW  Elec       q    Type
REMARK                         _______ _______ _______ _____ _____    ______ ____
ROOT
ATOM      1  N   UNL     1      -5.493   3.944  -1.326  0.00  0.00    -0.168 NA
ENDROOT
BRANCH   1   2
ATOM      2  S   UNL     1      -5.224   5.337  -2.180  0.00  0.00    +0.061 S 
ATOM      3  O   UNL     1      -6.235   5.405  -3.176  0.00  0.00    -0.153 OA
ATOM      4  O   UNL     1      -5.028   6.369  -1.223  0.00  0.00    -0.153 OA
BRANCH   2   8
ATOM      5  C   UNL     1      -1.290   4.831  -4.361  0.00  0.00    -0.042 A 
ATOM      6  C   UNL     1      -2.471   4.444  -4.967  0.00  0.00    +0.006 A 
ATOM      7  C   UNL     1      -3.672   4.599  -4.301  0.00  0.00    +0.029 A 
ATOM      8  C   UNL     1      -3.693   5.140  -3.029  0.00  0.00    +0.106 A 
ATOM      9  C   UNL     1      -2.512   5.531  -2.425  0.00  0.00    +0.029 A 
ATOM     10  C   UNL     1      -1.310   5.372  -3.090  0.00  0.00    +0.006 A 
BRANCH   5  12
ATOM     11  C   UNL     1      -0.011   5.469  -6.388  0.00  0.00    +0.015 C 
ATOM     12  C   UNL     1       0.020   4.663  -5.088  0.00  0.00    -0.013 C 
ATOM     13  C   UNL     1       1.162   5.165  -4.202  0.00  0.00    +0.015 C 
ATOM     14  C   UNL     1       0.237   3.183  -5.410  0.00  0.00    +0.015 C 
ENDBRANCH   5  12
ENDBRANCH   2   8
ENDBRANCH   1   2
BRANCH   1  15
ATOM     15  C   UNL     1      -6.227   2.837  -1.943  0.00  0.00    +0.145 C 
BRANCH  15  16
ATOM     16  C   UNL     1      -7.683   2.925  -1.563  0.00  0.00    -0.031 A 
ATOM     17  C   UNL     1      -8.140   2.283  -0.427  0.00  0.00    +0.008 A 
ATOM     18  C   UNL     1      -9.473   2.367  -0.073  0.00  0.00    +0.046 A 
ATOM     19  C   UNL     1     -10.355   3.087  -0.865  0.00  0.00    +0.120 A 
ATOM     20  C   UNL     1      -9.895   3.726  -2.008  0.00  0.00    +0.046 A 
ATOM     21  C   UNL     1      -8.560   3.643  -2.354  0.00  0.00    +0.008 A 
BRANCH  19  22
ATOM     22  O   UNL     1     -11.668   3.167  -0.522  0.00  0.00    -0.495 OA
ATOM     23  C   UNL     1     -12.070   2.485   0.667  0.00  0.00    +0.277 C 
ENDBRANCH  19  22
ENDBRANCH  15  16
ENDBRANCH   1  15
BRANCH   1  24
ATOM     24  C   UNL     1      -4.997   3.819   0.047  0.00  0.00    +0.150 C 
BRANCH  24  25
ATOM     25  C   UNL     1      -3.659   3.128   0.036  0.00  0.00    +0.033 A 
ATOM     26  C   UNL     1      -2.518   3.863   0.047  0.00  0.00    +0.020 A 
ATOM     27  C   UNL     1      -1.234   3.163   0.031  0.00  0.00    +0.003 A 
ATOM     28  C   UNL     1      -0.025   3.871   0.023  0.00  0.00    +0.059 A 
ATOM     29  C   UNL     1       1.168   3.183   0.008  0.00  0.00    +0.162 A 
ATOM     30  C   UNL     1       1.175   1.784   0.000  0.00  0.00    +0.163 A 
ATOM     31  C   UNL     1      -0.013   1.076   0.008  0.00  0.00    +0.075 A 
ATOM     32  C   UNL     1      -1.225   1.755   0.017  0.00  0.00    +0.053 A 
ATOM     33  N   UNL     1      -2.421   1.066   0.019  0.00  0.00    -0.322 N 
ATOM     34  H   UNL     1      -2.413   0.066   0.014  0.00  0.00    +0.169 HD
ATOM     35  C   UNL     1      -3.595   1.720   0.028  0.00  0.00    +0.254 A 
ATOM     36  O   UNL     1      -4.632   1.078   0.029  0.00  0.00    -0.268 OA
BRANCH  30  37
ATOM     37  O   UNL     1       2.357   1.116  -0.015  0.00  0.00    -0.491 OA
ATOM     38  C   UNL     1       2.296  -0.311  -0.022  0.00  0.00    +0.277 C 
ENDBRANCH  30  37
BRANCH  29  39
ATOM     39  O   UNL     1       2.344   3.866   0.000  0.00  0.00    -0.491 OA
ATOM     40  C   UNL     1       2.265   5.293   0.008  0.00  0.00    +0.277 C 
ENDBRANCH  29  39
ENDBRANCH  24  25
ENDBRANCH   1  24
TORSDOF 10
