REMARK  Name = ZINC07714565
REMARK  7 active torsions:
REMARK  status: ('A' for Active; 'I' for Inactive)
REMARK    1  A    between atoms: C_1  and  C_2
REMARK    2  A    between atoms: C_2  and  C_3
REMARK    3  A    between atoms: C_2  and  N_4
REMARK    4  A    between atoms: C_12  and  C_15
REMARK    5  A    between atoms: C_12  and  C_17
REMARK    6  A    between atoms: N_23  and  C_32
REMARK    7  A    between atoms: C_24  and  C_26
REMARK                            x       y       z     vdW  Elec       q    Type
REMARK                         _______ _______ _______ _____ _____    ______ ____
ROOT
ATOM      1  N   UNL     1       3.020   1.693  -5.816  0.00  0.00    -0.244 N 
ATOM      2  C   UNL     1       2.145   2.327  -5.007  0.00  0.00    +0.159 A 
ATOM      3  C   UNL     1       2.002   1.536  -3.870  0.00  0.00    +0.040 A 
ATOM      4  C   UNL     1       2.829   0.445  -3.997  0.00  0.00    +0.142 A 
ATOM      5  N   UNL     1       3.446   0.528  -5.156  0.00  0.00    -0.177 NA
ATOM      6  C   UNL     1       1.047   1.950  -2.761  0.00  0.00    +0.066 C 
ATOM      7  C   UNL     1       1.572   1.422  -1.444  0.00  0.00    +0.033 C 
ATOM      8  C   UNL     1       0.575   1.473  -0.299  0.00  0.00    +0.029 C 
ATOM      9  C   UNL     1      -0.788   0.908  -0.682  0.00  0.00    +0.082 C 
ATOM     10  C   UNL     1      -1.306   1.585  -1.949  0.00  0.00    +0.029 C 
ATOM     11  C   UNL     1      -0.330   1.388  -3.101  0.00  0.00    +0.033 C 
ATOM     12  N   UNL     1       1.024   3.417  -2.835  0.00  0.00    -0.308 N 
ATOM     13  C   UNL     1       0.887   4.011  -4.080  0.00  0.00    +0.131 C 
ATOM     14  N   UNL     1       1.450   3.489  -5.150  0.00  0.00    -0.213 NA
ATOM     15  C   UNL     1       1.158   4.275  -1.661  0.00  0.00    +0.131 C 
ENDROOT
BRANCH   9  16
ATOM     16  C   UNL     1      -1.757   1.178   0.440  0.00  0.00    -0.028 A 
ATOM     17  C   UNL     1      -1.332   1.842   1.575  0.00  0.00    +0.005 A 
ATOM     18  C   UNL     1      -2.222   2.094   2.602  0.00  0.00    +0.000 A 
ATOM     19  C   UNL     1      -3.535   1.674   2.498  0.00  0.00    +0.000 A 
ATOM     20  C   UNL     1      -3.959   1.006   1.365  0.00  0.00    +0.000 A 
ATOM     21  C   UNL     1      -3.070   0.758   0.335  0.00  0.00    +0.005 A 
ENDBRANCH   9  16
BRANCH  13  22
ATOM     22  C   UNL     1       0.092   5.250  -4.202  0.00  0.00    +0.015 A 
ATOM     23  C   UNL     1      -0.678   5.698  -3.126  0.00  0.00    +0.011 A 
ATOM     24  C   UNL     1      -1.414   6.859  -3.245  0.00  0.00    +0.001 A 
ATOM     25  C   UNL     1      -1.399   7.573  -4.430  0.00  0.00    +0.000 A 
ATOM     26  C   UNL     1      -0.643   7.132  -5.501  0.00  0.00    +0.001 A 
ATOM     27  C   UNL     1       0.102   5.976  -5.395  0.00  0.00    +0.011 A 
ENDBRANCH  13  22
BRANCH   1  29
ATOM     28  C   UNL     1       4.965   2.351  -7.144  0.00  0.00    +0.032 C 
ATOM     29  C   UNL     1       3.450   2.139  -7.144  0.00  0.00    +0.103 C 
ATOM     30  C   UNL     1       3.083   1.076  -8.181  0.00  0.00    +0.032 C 
ENDBRANCH   1  29
BRANCH   9  31
ATOM     31  C   UNL     1      -0.698  -0.547  -0.879  0.00  0.00    +0.074 C 
ATOM     32  N   UNL     1      -0.629  -1.671  -1.031  0.00  0.00    -0.196 NA
ENDBRANCH   9  31
TORSDOF 4
