REMARK  Name = ZINC39302180
REMARK  5 active torsions:
REMARK  status: ('A' for Active; 'I' for Inactive)
REMARK    1  A    between atoms: N_11  and  C_12
REMARK    2  A    between atoms: C_12  and  C_13
REMARK    3  A    between atoms: C_13  and  N_14
REMARK    4  A    between atoms: C_15  and  C_17
REMARK    5  A    between atoms: C_23  and  C_25
REMARK                            x       y       z     vdW  Elec       q    Type
REMARK                         _______ _______ _______ _____ _____    ______ ____
ROOT
ATOM      1  C   UNL     1       8.934   0.285   2.523  0.00  0.00    +0.091 C 
ATOM      2  C   UNL     1       9.668  -0.841   1.792  0.00  0.00    +0.040 C 
ATOM      3  C   UNL     1      11.148  -0.715   2.001  0.00  0.00    -0.030 C 
ATOM      4  C   UNL     1      11.691   0.001   2.933  0.00  0.00    -0.030 C 
ATOM      5  C   UNL     1      10.915   0.811   3.930  0.00  0.00    +0.040 C 
ATOM      6  C   UNL     1       9.455   0.355   3.964  0.00  0.00    +0.091 C 
ENDROOT
BRANCH   6   7
ATOM      7  C   UNL     1       8.631   1.338   4.754  0.00  0.00    +0.220 C 
ATOM      8  O   UNL     1       8.193   2.333   4.216  0.00  0.00    -0.275 OA
ATOM      9  N   UNL     1       8.380   1.113   6.059  0.00  0.00    -0.298 N 
ATOM     10  C   UNL     1       9.008  -0.019   6.756  0.00  0.00    +0.126 C 
ATOM     11  C   UNL     1       9.752   0.516   7.986  0.00  0.00    +0.125 C 
ATOM     12  N   UNL     1       8.847   1.397   8.737  0.00  0.00    -0.314 N 
ATOM     13  C   UNL     1       8.220   2.528   8.040  0.00  0.00    +0.125 C 
ATOM     14  C   UNL     1       7.479   1.997   6.811  0.00  0.00    +0.126 C 
ATOM     15  C   UNL     1       8.588   1.164  10.083  0.00  0.00    +0.099 A 
ATOM     16  C   UNL     1       9.284   0.164  10.755  0.00  0.00    +0.042 A 
ATOM     17  C   UNL     1       9.016  -0.057  12.094  0.00  0.00    +0.005 A 
ATOM     18  C   UNL     1       8.059   0.732  12.718  0.00  0.00    +0.018 A 
ATOM     19  C   UNL     1       7.408   1.707  11.990  0.00  0.00    +0.084 A 
ATOM     20  N   UNL     1       7.687   1.899  10.715  0.00  0.00    -0.350 N 
ATOM     21  H   UNL     1       7.217   2.594  10.227  0.00  0.00    +0.166 HD
ENDBRANCH   6   7
BRANCH   1  23
ATOM     22  N   UNL     1       6.781  -0.110   1.370  0.00  0.00    -0.313 N 
ATOM     23  C   UNL     1       7.454   0.003   2.533  0.00  0.00    +0.217 C 
ATOM     24  O   UNL     1       6.867  -0.123   3.587  0.00  0.00    -0.275 OA
ATOM     25  H   UNL     1       7.250  -0.009   0.527  0.00  0.00    +0.149 HD
BRANCH  22  26
ATOM     26  C   UNL     1       5.342  -0.384   1.380  0.00  0.00    +0.126 C 
BRANCH  26  27
ATOM     27  C   UNL     1       4.829  -0.463  -0.059  0.00  0.00    +0.145 C 
BRANCH  27  38
ATOM     28  C   UNL     1      -0.020   1.606   0.010  0.00  0.00    +0.002 A 
ATOM     29  C   UNL     1       1.181   2.294   0.007  0.00  0.00    +0.002 A 
ATOM     30  C   UNL     1       2.379   1.606  -0.012  0.00  0.00    +0.028 A 
ATOM     31  C   UNL     1       2.377   0.219  -0.029  0.00  0.00    +0.070 A 
ATOM     32  C   UNL     1       1.166  -0.475  -0.026  0.00  0.00    +0.067 A 
ATOM     33  C   UNL     1      -0.031   0.225  -0.007  0.00  0.00    +0.028 A 
ATOM     34  N   UNL     1       1.480  -1.832  -0.045  0.00  0.00    -0.306 N 
ATOM     35  H   UNL     1       0.841  -2.562  -0.048  0.00  0.00    +0.170 HD
ATOM     36  C   UNL     1       2.820  -1.957  -0.059  0.00  0.00    +0.328 A 
ATOM     37  O   UNL     1       3.425  -3.013  -0.076  0.00  0.00    -0.247 OA
ATOM     38  N   UNL     1       3.389  -0.737  -0.049  0.00  0.00    -0.291 N 
ENDBRANCH  27  38
ENDBRANCH  26  27
ENDBRANCH  22  26
ENDBRANCH   1  23
TORSDOF 5
