REMARK  Name = ZINC66952895
REMARK  6 active torsions:
REMARK  status: ('A' for Active; 'I' for Inactive)
REMARK    1  A    between atoms: C_1  and  C_2
REMARK    2  A    between atoms: N_8  and  C_9
REMARK    3  A    between atoms: C_14  and  N_15
REMARK    4  A    between atoms: N_18  and  C_19
REMARK    5  A    between atoms: C_19  and  C_20
REMARK    6  A    between atoms: C_20  and  O_30
REMARK                            x       y       z     vdW  Elec       q    Type
REMARK                         _______ _______ _______ _____ _____    ______ ____
ROOT
ATOM      1  N   UNL     1       2.453  -0.373   2.437  0.00  0.00    -0.268 N 
ATOM      2  C   UNL     1       3.616  -0.053   3.037  0.00  0.00    +0.304 C 
ATOM      3  O   UNL     1       3.622   0.319   4.194  0.00  0.00    -0.253 OA
ATOM      4  N   UNL     1       4.774  -0.146   2.353  0.00  0.00    -0.296 N 
ATOM      5  H   UNL     1       2.454  -0.731   1.535  0.00  0.00    +0.156 HD
ATOM      6  H   UNL     1       4.770  -0.443   1.430  0.00  0.00    +0.150 HD
ENDROOT
BRANCH   1  12
ATOM      7  C   UNL     1       0.099   0.198   2.415  0.00  0.00    +0.072 A 
ATOM      8  C   UNL     1      -1.099   0.373   3.092  0.00  0.00    +0.028 A 
ATOM      9  C   UNL     1      -1.157   0.170   4.458  0.00  0.00    +0.002 A 
ATOM     10  C   UNL     1      -0.022  -0.207   5.154  0.00  0.00    +0.002 A 
ATOM     11  C   UNL     1       1.175  -0.384   4.487  0.00  0.00    +0.025 A 
ATOM     12  C   UNL     1       1.241  -0.189   3.115  0.00  0.00    +0.059 A 
BRANCH   7  20
ATOM     13  C   UNL     1       0.767   2.911   1.072  0.00  0.00    +0.065 C 
ATOM     14  C   UNL     1       0.456   1.601   0.394  0.00  0.00    +0.042 A 
ATOM     15  C   UNL     1       0.421   1.389  -0.917  0.00  0.00    +0.109 A 
ATOM     16  N   UNL     1       0.098   0.056  -1.124  0.00  0.00    -0.312 N 
ATOM     17  H   UNL     1       0.003  -0.380  -1.986  0.00  0.00    +0.170 HD
ATOM     18  C   UNL     1      -0.060  -0.528   0.080  0.00  0.00    +0.331 A 
ATOM     19  O   UNL     1      -0.348  -1.695   0.276  0.00  0.00    -0.246 OA
ATOM     20  N   UNL     1       0.160   0.403   1.029  0.00  0.00    -0.264 N 
ENDBRANCH   7  20
ENDBRANCH   1  12
BRANCH   4  21
ATOM     21  C   UNL     1       6.040   0.202   3.005  0.00  0.00    +0.145 C 
BRANCH  21  22
ATOM     22  C   UNL     1       7.176   0.132   1.983  0.00  0.00    +0.107 C 
ATOM     23  C   UNL     1       6.825   1.006   0.780  0.00  0.00    +0.041 C 
ATOM     24  C   UNL     1       8.058   1.097  -0.127  0.00  0.00    +0.008 C 
ATOM     25  C   UNL     1       9.116   1.940   0.583  0.00  0.00    +0.035 C 
ATOM     26  C   UNL     1       9.346   1.432   1.983  0.00  0.00    -0.041 A 
ATOM     27  C   UNL     1       8.453   0.605   2.627  0.00  0.00    -0.011 A 
ATOM     28  C   UNL     1       8.722   0.178   3.921  0.00  0.00    +0.007 A 
ATOM     29  C   UNL     1       9.877   0.573   4.564  0.00  0.00    +0.000 A 
ATOM     30  C   UNL     1      10.775   1.399   3.916  0.00  0.00    +0.000 A 
ATOM     31  C   UNL     1      10.509   1.827   2.631  0.00  0.00    +0.004 A 
BRANCH  22  32
ATOM     32  O   UNL     1       7.339  -1.220   1.551  0.00  0.00    -0.382 OA
ATOM     33  H   UNL     1       7.555  -1.837   2.264  0.00  0.00    +0.211 HD
ENDBRANCH  22  32
ENDBRANCH  21  22
ENDBRANCH   4  21
TORSDOF 5
