REMARK  Name = ZINC12411371
REMARK  12 active torsions:
REMARK  status: ('A' for Active; 'I' for Inactive)
REMARK    1  A    between atoms: C_1  and  C_2
REMARK    2  A    between atoms: C_2  and  O_3
REMARK    3  A    between atoms: O_3  and  C_4
REMARK    4  A    between atoms: C_6  and  C_14
REMARK    5  A    between atoms: C_8  and  N_11
REMARK    6  A    between atoms: C_19  and  C_24
REMARK    7  A    between atoms: C_30  and  C_38
REMARK    8  A    between atoms: C_31  and  C_32
REMARK    9  A    between atoms: C_32  and  O_34
REMARK   10  A    between atoms: O_34  and  C_35
REMARK   11  A    between atoms: C_35  and  C_36
REMARK   12  A    between atoms: C_35  and  C_37
REMARK                            x       y       z     vdW  Elec       q    Type
REMARK                         _______ _______ _______ _____ _____    ______ ____
ROOT
ATOM      1  C   UNL     1      -2.095   3.216   2.428  0.00  0.00    +0.092 C 
ATOM      2  C   UNL     1      -1.245   2.757   1.270  0.00  0.00    +0.024 C 
ATOM      3  C   UNL     1      -0.570   1.590   1.331  0.00  0.00    +0.016 C 
ATOM      4  C   UNL     1       0.284   1.124   0.178  0.00  0.00    +0.060 C 
ATOM      5  C   UNL     1      -0.303   1.642  -1.137  0.00  0.00    +0.039 C 
ATOM      6  C   UNL     1      -0.367   3.171  -1.072  0.00  0.00    +0.088 C 
ATOM      7  C   UNL     1      -1.178   3.575   0.129  0.00  0.00    +0.162 C 
ATOM      8  O   UNL     1      -1.785   4.628   0.113  0.00  0.00    -0.292 OA
ATOM      9  N   UNL     1      -0.641   0.804   2.450  0.00  0.00    -0.321 N 
ATOM     10  C   UNL     1      -1.042   1.330   3.646  0.00  0.00    +0.016 C 
ATOM     11  C   UNL     1      -1.735   2.481   3.686  0.00  0.00    +0.065 C 
ATOM     12  C   UNL     1      -0.707   0.614   4.929  0.00  0.00    +0.061 C 
ATOM     13  H   UNL     1      -0.373  -0.262   2.392  0.00  0.00    +0.152 HD
ENDROOT
BRANCH   1  16
ATOM     14  C   UNL     1      -5.771   3.790   1.772  0.00  0.00    +0.170 A 
ATOM     15  C   UNL     1      -4.438   4.020   2.071  0.00  0.00    +0.054 A 
ATOM     16  C   UNL     1      -3.546   2.964   2.107  0.00  0.00    -0.029 A 
ATOM     17  C   UNL     1      -3.983   1.677   1.855  0.00  0.00    +0.041 A 
ATOM     18  C   UNL     1      -5.313   1.441   1.560  0.00  0.00    +0.177 A 
ATOM     19  C   UNL     1      -6.211   2.495   1.518  0.00  0.00    +0.250 A 
ATOM     20  O   UNL     1      -7.520   2.264   1.228  0.00  0.00    -0.282 OA
BRANCH  18  21
ATOM     21  N   UNL     1      -5.777   0.061   1.291  0.00  0.00    +0.060 N 
ATOM     22  O   UNL     1      -4.988  -0.866   1.329  0.00  0.00    -0.126 OA
ATOM     23  O   UNL     1      -6.949  -0.147   1.031  0.00  0.00    -0.126 OA
ENDBRANCH  18  21
BRANCH  14  24
ATOM     24  O   UNL     1      -6.649   4.828   1.731  0.00  0.00    -0.488 OA
BRANCH  24  26
ATOM     25  C   UNL     1      -7.254   7.161   1.912  0.00  0.00    +0.048 C 
ATOM     26  C   UNL     1      -6.127   6.130   2.003  0.00  0.00    +0.226 C 
ENDBRANCH  24  26
ENDBRANCH  14  24
ENDBRANCH   1  16
BRANCH   5  27
ATOM     27  C   UNL     1       0.578   1.220  -2.285  0.00  0.00    -0.006 A 
ATOM     28  C   UNL     1       0.271   0.454  -3.361  0.00  0.00    +0.011 A 
ATOM     29  C   UNL     1       1.250   0.195  -4.301  0.00  0.00    +0.008 A 
ATOM     30  C   UNL     1       2.489   0.714  -4.120  0.00  0.00    +0.045 A 
ATOM     31  S   UNL     1       2.295   1.607  -2.586  0.00  0.00    -0.101 S 
ENDBRANCH   5  27
BRANCH  11  32
ATOM     32  C   UNL     1      -2.133   3.009   4.936  0.00  0.00    +0.338 C 
ATOM     33  O   UNL     1      -1.558   3.978   5.398  0.00  0.00    -0.245 OA
BRANCH  32  34
ATOM     34  O   UNL     1      -3.149   2.440   5.617  0.00  0.00    -0.459 OA
BRANCH  34  35
ATOM     35  C   UNL     1      -3.497   3.025   6.873  0.00  0.00    +0.171 C 
ATOM     36  C   UNL     1      -4.557   4.107   6.655  0.00  0.00    +0.052 C 
ATOM     37  C   UNL     1      -4.055   1.945   7.802  0.00  0.00    +0.052 C 
ENDBRANCH  34  35
ENDBRANCH  32  34
ENDBRANCH  11  32
TORSDOF 8
