REMARK  Name = ZINC02263427
REMARK  6 active torsions:
REMARK  status: ('A' for Active; 'I' for Inactive)
REMARK    1  A    between atoms: C_2  and  C_3
REMARK    2  A    between atoms: C_3  and  N_4
REMARK    3  A    between atoms: C_5  and  C_7
REMARK    4  A    between atoms: N_18  and  N_21
REMARK    5  A    between atoms: C_19  and  N_20
REMARK    6  A    between atoms: C_22  and  C_23
REMARK                            x       y       z     vdW  Elec       q    Type
REMARK                         _______ _______ _______ _____ _____    ______ ____
ROOT
ATOM      1  C   UNL     1       5.424   7.045   0.766  0.00  0.00    +0.105 A 
ATOM      2  C   UNL     1       5.460   7.083  -0.705  0.00  0.00    +0.124 A 
ATOM      3  C   UNL     1       4.259   6.365  -1.143  0.00  0.00    +0.183 A 
ATOM      4  N   UNL     1       4.016   6.234  -2.429  0.00  0.00    -0.224 NA
ATOM      5  C   UNL     1       4.864   6.755  -3.325  0.00  0.00    +0.092 A 
ATOM      6  C   UNL     1       4.612   6.619  -4.702  0.00  0.00    +0.030 A 
ATOM      7  C   UNL     1       5.480   7.151  -5.605  0.00  0.00    +0.002 A 
ATOM      8  C   UNL     1       6.622   7.832  -5.187  0.00  0.00    +0.002 A 
ATOM      9  C   UNL     1       6.899   7.984  -3.863  0.00  0.00    +0.030 A 
ATOM     10  C   UNL     1       6.025   7.448  -2.899  0.00  0.00    +0.090 A 
ATOM     11  N   UNL     1       6.289   7.590  -1.595  0.00  0.00    -0.241 NA
ATOM     12  N   UNL     1       3.596   5.955  -0.001  0.00  0.00    -0.198 N 
ATOM     13  C   UNL     1       4.269   6.353   1.116  0.00  0.00    +0.134 A 
ENDROOT
BRANCH   1  15
ATOM     14  N   UNL     1       7.459   6.892   2.090  0.00  0.00    -0.308 N 
ATOM     15  C   UNL     1       6.405   7.625   1.680  0.00  0.00    +0.250 C 
ATOM     16  O   UNL     1       6.271   8.771   2.070  0.00  0.00    -0.270 OA
ATOM     17  H   UNL     1       7.566   5.980   1.779  0.00  0.00    +0.149 HD
BRANCH  14  18
ATOM     18  C   UNL     1       8.444   7.474   3.006  0.00  0.00    +0.131 C 
BRANCH  18  20
ATOM     19  C   UNL     1      10.773   6.748   3.098  0.00  0.00    +0.005 C 
ATOM     20  C   UNL     1       9.513   6.456   3.307  0.00  0.00    -0.016 C 
ENDBRANCH  18  20
ENDBRANCH  14  18
ENDBRANCH   1  15
BRANCH  13  21
ATOM     21  N   UNL     1       3.866   6.103   2.403  0.00  0.00    -0.342 N 
ATOM     22  H   UNL     1       3.047   5.610   2.567  0.00  0.00    +0.144 HD
ATOM     23  H   UNL     1       4.399   6.420   3.148  0.00  0.00    +0.144 HD
ENDBRANCH  13  21
BRANCH  12  24
ATOM     24  N   UNL     1       2.395   5.233   0.007  0.00  0.00    -0.171 NA
ATOM     25  C   UNL     1       2.417   3.936  -0.000  0.00  0.00    +0.141 C 
BRANCH  25  26
ATOM     26  C   UNL     1       1.153   3.177   0.008  0.00  0.00    -0.004 A 
ATOM     27  C   UNL     1       1.173   1.780   0.000  0.00  0.00    +0.009 A 
ATOM     28  C   UNL     1      -0.013   1.076   0.008  0.00  0.00    +0.002 A 
ATOM     29  C   UNL     1      -1.221   1.750   0.017  0.00  0.00    +0.015 A 
ATOM     30  C   UNL     1      -1.249   3.134   0.031  0.00  0.00    +0.018 A 
ATOM     31  C   UNL     1      -0.070   3.851   0.023  0.00  0.00    +0.024 A 
ATOM     32 BR   UNL     1      -2.907   4.043   0.051  0.00  0.00    -0.050 Br
ENDBRANCH  25  26
ENDBRANCH  12  24
TORSDOF 6
