REMARK  Name = ZINC28676089
REMARK  11 active torsions:
REMARK  status: ('A' for Active; 'I' for Inactive)
REMARK    1  A    between atoms: C_1  and  C_2
REMARK    2  A    between atoms: C_2  and  C_3
REMARK    3  A    between atoms: C_3  and  C_4
REMARK    4  A    between atoms: C_4  and  N_5
REMARK    5  A    between atoms: C_15  and  S_16
REMARK    6  A    between atoms: S_16  and  C_17
REMARK    7  A    between atoms: C_17  and  C_18
REMARK    8  A    between atoms: C_20  and  O_21
REMARK    9  A    between atoms: C_30  and  O_32
REMARK   10  A    between atoms: O_32  and  C_33
REMARK   11  A    between atoms: C_33  and  C_34
REMARK                            x       y       z     vdW  Elec       q    Type
REMARK                         _______ _______ _______ _____ _____    ______ ____
ROOT
ATOM      1  C   UNL     1       3.210   5.285   2.861  0.00  0.00    -0.020 A 
ATOM      2  C   UNL     1       2.549   6.426   3.186  0.00  0.00    +0.092 A 
ATOM      3  C   UNL     1       2.931   7.651   2.600  0.00  0.00    +0.285 A 
ATOM      4  O   UNL     1       3.941   7.726   1.719  0.00  0.00    -0.425 OA
ATOM      5  C   UNL     1       4.639   6.629   1.352  0.00  0.00    +0.141 A 
ATOM      6  C   UNL     1       4.314   5.375   1.903  0.00  0.00    +0.022 A 
ATOM      7  C   UNL     1       5.031   4.235   1.521  0.00  0.00    +0.013 A 
ATOM      8  C   UNL     1       6.052   4.345   0.623  0.00  0.00    +0.024 A 
ATOM      9  C   UNL     1       6.382   5.586   0.077  0.00  0.00    +0.040 A 
ATOM     10  C   UNL     1       5.678   6.724   0.440  0.00  0.00    +0.070 A 
ATOM     11  N   UNL     1       7.429   5.682  -0.841  0.00  0.00    -0.251 N 
ATOM     12  C   UNL     1       8.198   6.788  -0.872  0.00  0.00    +0.405 C 
ATOM     13  O   UNL     1       8.044   7.659  -0.038  0.00  0.00    -0.226 OA
ATOM     14  H   UNL     1       7.625   4.855  -1.539  0.00  0.00    +0.158 HD
ENDROOT
BRANCH   3  15
ATOM     15  O   UNL     1       2.329   8.666   2.901  0.00  0.00    -0.480 OA
ATOM     16  H   UNL     1       2.616   9.628   2.452  0.00  0.00    +0.295 HD
ENDBRANCH   3  15
BRANCH   1  17
ATOM     17  C   UNL     1       2.822   3.964   3.473  0.00  0.00    +0.113 C 
BRANCH  17  18
ATOM     18  S   UNL     1       1.570   3.164   2.439  0.00  0.00    -0.083 S 
BRANCH  18  29
ATOM     19  N   UNL     1       0.401   0.780   2.897  0.00  0.00    -0.287 N 
ATOM     20  C   UNL     1       0.164  -0.366   3.577  0.00  0.00    +0.262 A 
ATOM     21  O   UNL     1      -0.646  -1.182   3.178  0.00  0.00    -0.267 OA
ATOM     22  C   UNL     1       0.926  -0.590   4.813  0.00  0.00    +0.065 A 
ATOM     23  C   UNL     1       0.759  -1.740   5.583  0.00  0.00    +0.015 A 
ATOM     24  C   UNL     1       1.490  -1.897   6.728  0.00  0.00    +0.001 A 
ATOM     25  C   UNL     1       2.395  -0.923   7.131  0.00  0.00    +0.002 A 
ATOM     26  C   UNL     1       2.578   0.214   6.396  0.00  0.00    +0.028 A 
ATOM     27  C   UNL     1       1.846   0.403   5.220  0.00  0.00    +0.079 A 
ATOM     28  N   UNL     1       1.996   1.510   4.465  0.00  0.00    -0.223 NA
ATOM     29  C   UNL     1       1.309   1.687   3.363  0.00  0.00    +0.172 A 
BRANCH  19  30
ATOM     30  C   UNL     1      -0.327   1.052   1.655  0.00  0.00    +0.127 C 
BRANCH  30  31
ATOM     31  C   UNL     1       0.460   0.491   0.469  0.00  0.00    +0.021 C 
BRANCH  31  33
ATOM     32  C   UNL     1       0.488   0.214  -2.014  0.00  0.00    +0.004 C 
ATOM     33  C   UNL     1      -0.300   0.775  -0.828  0.00  0.00    -0.002 C 
ENDBRANCH  31  33
ENDBRANCH  30  31
ENDBRANCH  19  30
ENDBRANCH  18  29
ENDBRANCH  17  18
ENDBRANCH   1  17
BRANCH  12  34
ATOM     34  O   UNL     1       9.138   6.928  -1.825  0.00  0.00    -0.450 OA
BRANCH  34  35
ATOM     35  C   UNL     1       9.930   8.144  -1.798  0.00  0.00    +0.230 C 
ATOM     36  C   UNL     1      10.938   8.124  -2.949  0.00  0.00    +0.048 C 
ENDBRANCH  34  35
ENDBRANCH  12  34
TORSDOF 9
