REMARK  Name = ZINC01886035
REMARK  12 active torsions:
REMARK  status: ('A' for Active; 'I' for Inactive)
REMARK    1  A    between atoms: C_1  and  O_2
REMARK    2  A    between atoms: O_2  and  C_3
REMARK    3  A    between atoms: C_5  and  C_13
REMARK    4  A    between atoms: C_6  and  O_11
REMARK    5  A    between atoms: C_8  and  O_9
REMARK    6  A    between atoms: O_9  and  C_10
REMARK    7  A    between atoms: O_11  and  C_12
REMARK    8  A    between atoms: N_14  and  N_15
REMARK    9  A    between atoms: C_16  and  C_18
REMARK   10  A    between atoms: C_18  and  S_19
REMARK   11  A    between atoms: S_19  and  C_20
REMARK   12  A    between atoms: N_33  and  C_34
REMARK                            x       y       z     vdW  Elec       q    Type
REMARK                         _______ _______ _______ _____ _____    ______ ____
ROOT
ATOM      1  S   UNL     1       7.053  -0.242  -9.297  0.00  0.00    -0.078 S 
ENDROOT
BRANCH   1   2
ATOM      2  C   UNL     1       6.844   0.824 -10.684  0.00  0.00    +0.178 A 
ATOM      3  N   UNL     1       6.757   2.125 -10.496  0.00  0.00    -0.215 NA
ATOM      4  C   UNL     1       6.599   2.952 -11.523  0.00  0.00    +0.117 A 
ATOM      5  C   UNL     1       6.518   2.491 -12.848  0.00  0.00    +0.076 A 
ATOM      6  C   UNL     1       6.343   3.521 -13.874  0.00  0.00    -0.023 A 
ATOM      7  C   UNL     1       6.278   4.800 -13.452  0.00  0.00    -0.004 A 
ATOM      8  S   UNL     1       6.443   4.712 -11.689  0.00  0.00    -0.073 S 
ATOM      9  C   UNL     1       6.105   6.026 -14.295  0.00  0.00    +0.043 C 
ATOM     10  C   UNL     1       6.381   5.652 -15.758  0.00  0.00    +0.005 C 
ATOM     11  C   UNL     1       5.611   4.370 -16.091  0.00  0.00    +0.005 C 
ATOM     12  C   UNL     1       6.237   3.183 -15.358  0.00  0.00    +0.037 C 
ATOM     13  C   UNL     1       6.616   1.074 -13.023  0.00  0.00    +0.268 A 
ATOM     14  O   UNL     1       6.556   0.584 -14.137  0.00  0.00    -0.267 OA
ATOM     15  N   UNL     1       6.780   0.291 -11.941  0.00  0.00    -0.255 N 
BRANCH  15  16
ATOM     16  C   UNL     1       6.882  -1.097 -12.105  0.00  0.00    +0.052 A 
ATOM     17  C   UNL     1       8.125  -1.686 -12.289  0.00  0.00    +0.026 A 
ATOM     18  C   UNL     1       8.222  -3.054 -12.450  0.00  0.00    +0.002 A 
ATOM     19  C   UNL     1       7.082  -3.837 -12.430  0.00  0.00    +0.000 A 
ATOM     20  C   UNL     1       5.843  -3.253 -12.247  0.00  0.00    +0.002 A 
ATOM     21  C   UNL     1       5.740  -1.886 -12.079  0.00  0.00    +0.026 A 
ENDBRANCH  15  16
ENDBRANCH   1   2
BRANCH   1  22
ATOM     22  C   UNL     1       7.081   0.885  -7.876  0.00  0.00    +0.174 C 
BRANCH  22  24
ATOM     23  N   UNL     1       7.307   0.723  -5.418  0.00  0.00    -0.206 N 
ATOM     24  C   UNL     1       7.257   0.091  -6.608  0.00  0.00    +0.242 C 
ATOM     25  O   UNL     1       7.354  -1.117  -6.657  0.00  0.00    -0.273 OA
ATOM     26  H   UNL     1       7.229   1.689  -5.379  0.00  0.00    +0.177 HD
BRANCH  23  28
ATOM     27  C   UNL     1       7.518   0.593  -3.093  0.00  0.00    +0.142 C 
ATOM     28  N   UNL     1       7.471  -0.015  -4.239  0.00  0.00    -0.188 NA
BRANCH  27  31
ATOM     29  C   UNL     1       7.903  -0.263   0.541  0.00  0.00    +0.162 A 
ATOM     30  C   UNL     1       7.742   0.470  -0.619  0.00  0.00    +0.062 A 
ATOM     31  C   UNL     1       7.691  -0.183  -1.853  0.00  0.00    +0.040 A 
ATOM     32  C   UNL     1       7.802  -1.579  -1.907  0.00  0.00    +0.132 A 
ATOM     33  C   UNL     1       7.963  -2.304  -0.739  0.00  0.00    +0.095 A 
ATOM     34  C   UNL     1       8.019  -1.650   0.482  0.00  0.00    +0.165 A 
BRANCH  29  36
ATOM     35  C   UNL     1       7.829   1.796   1.732  0.00  0.00    +0.277 C 
ATOM     36  O   UNL     1       7.955   0.372   1.744  0.00  0.00    -0.491 OA
ENDBRANCH  29  36
BRANCH  34  37
ATOM     37  O   UNL     1       8.183  -2.365   1.626  0.00  0.00    -0.491 OA
ATOM     38  C   UNL     1       8.295  -3.784   1.494  0.00  0.00    +0.277 C 
ENDBRANCH  34  37
BRANCH  32  39
ATOM     39  O   UNL     1       7.752  -2.220  -3.104  0.00  0.00    -0.494 OA
ATOM     40  C   UNL     1       7.873  -3.644  -3.084  0.00  0.00    +0.277 C 
ENDBRANCH  32  39
ENDBRANCH  27  31
ENDBRANCH  23  28
ENDBRANCH  22  24
ENDBRANCH   1  22
TORSDOF 9
