REMARK  Name = ZINC43396390
REMARK  6 active torsions:
REMARK  status: ('A' for Active; 'I' for Inactive)
REMARK    1  A    between atoms: C_1  and  C_2
REMARK    2  A    between atoms: C_9  and  O_12
REMARK    3  A    between atoms: O_12  and  C_13
REMARK    4  A    between atoms: C_14  and  C_20
REMARK    5  A    between atoms: C_17  and  C_19
REMARK    6  A    between atoms: C_20  and  N_21
REMARK                            x       y       z     vdW  Elec       q    Type
REMARK                         _______ _______ _______ _____ _____    ______ ____
ROOT
ATOM      1  O   UNL     1       0.046  -1.980   3.588  0.00  0.00    -0.436 OA
ENDROOT
BRANCH   1  10
ATOM      2  C   UNL     1      -4.713  -2.856   2.359  0.00  0.00    +0.065 C 
ATOM      3  C   UNL     1      -3.390  -3.196   1.723  0.00  0.00    +0.039 A 
ATOM      4  C   UNL     1      -3.376  -3.910   0.527  0.00  0.00    +0.023 A 
ATOM      5  C   UNL     1      -2.186  -4.227  -0.063  0.00  0.00    +0.012 A 
ATOM      6  C   UNL     1      -0.999  -3.813   0.571  0.00  0.00    +0.004 A 
ATOM      7  C   UNL     1       0.262  -4.101   0.023  0.00  0.00    +0.010 A 
ATOM      8  C   UNL     1       1.388  -3.684   0.664  0.00  0.00    +0.004 A 
ATOM      9  C   UNL     1       1.310  -2.973   1.859  0.00  0.00    +0.048 A 
ATOM     10  C   UNL     1       0.103  -2.674   2.422  0.00  0.00    +0.156 A 
ATOM     11  C   UNL     1      -1.086  -3.090   1.785  0.00  0.00    +0.113 A 
ATOM     12  N   UNL     1      -2.283  -2.808   2.308  0.00  0.00    -0.248 NA
ENDBRANCH   1  10
BRANCH   1  13
ATOM     13  C   UNL     1      -0.043  -2.684   4.744  0.00  0.00    +0.222 A 
ATOM     14  C   UNL     1      -0.162  -2.009   5.953  0.00  0.00    -0.003 A 
ATOM     15  C   UNL     1      -0.253  -2.739   7.125  0.00  0.00    +0.008 A 
ATOM     16  C   UNL     1      -0.221  -4.125   7.046  0.00  0.00    +0.023 A 
ATOM     17  C   UNL     1      -0.101  -4.729   5.811  0.00  0.00    +0.042 A 
ATOM     18  N   UNL     1      -0.022  -4.006   4.710  0.00  0.00    -0.218 NA
ATOM     19  C   UNL     1      -0.067  -6.232   5.718  0.00  0.00    +0.066 C 
BRANCH  14  20
ATOM     20  C   UNL     1      -0.191  -0.503   5.987  0.00  0.00    -0.045 C 
BRANCH  20  21
ATOM     21  N   UNL     1      -1.538  -0.031   5.638  0.00  0.00    +0.381 N 
ATOM     22  H   UNL     1      -1.557   0.978   5.661  0.00  0.00    -0.090 HD
ATOM     23  H   UNL     1      -1.777  -0.351   4.712  0.00  0.00    -0.090 HD
ATOM     24  H   UNL     1      -2.204  -0.396   6.303  0.00  0.00    -0.090 HD
ENDBRANCH  20  21
ENDBRANCH  14  20
ENDBRANCH   1  13
TORSDOF 4
