REMARK  Name = ZINC59565558
REMARK  7 active torsions:
REMARK  status: ('A' for Active; 'I' for Inactive)
REMARK    1  A    between atoms: C_4  and  C_7
REMARK    2  A    between atoms: C_7  and  C_8
REMARK    3  A    between atoms: C_7  and  C_14
REMARK    4  A    between atoms: C_7  and  O_28
REMARK    5  A    between atoms: N_16  and  N_17
REMARK    6  A    between atoms: C_18  and  C_19
REMARK    7  A    between atoms: C_24  and  O_25
REMARK                            x       y       z     vdW  Elec       q    Type
REMARK                         _______ _______ _______ _____ _____    ______ ____
ROOT
ATOM      1  C   UNL     1       4.426  -1.005  -1.330  0.00  0.00    +0.273 C 
ATOM      2  O   UNL     1       3.789  -1.243  -2.335  0.00  0.00    -0.270 OA
ATOM      3  N   UNL     1       5.774  -1.006  -1.370  0.00  0.00    -0.204 N 
ATOM      4  H   UNL     1       6.283  -0.816  -0.567  0.00  0.00    +0.177 HD
ENDROOT
BRANCH   3   5
ATOM      5  N   UNL     1       6.438  -1.283  -2.572  0.00  0.00    -0.188 NA
ATOM      6  C   UNL     1       7.736  -1.284  -2.610  0.00  0.00    +0.142 C 
BRANCH   6   7
ATOM      7  C   UNL     1       8.435  -1.576  -3.874  0.00  0.00    +0.038 A 
ATOM      8  C   UNL     1       9.831  -1.584  -3.919  0.00  0.00    +0.033 A 
ATOM      9  C   UNL     1      10.480  -1.857  -5.106  0.00  0.00    +0.043 A 
ATOM     10  C   UNL     1       9.752  -2.123  -6.254  0.00  0.00    +0.038 A 
ATOM     11  C   UNL     1       8.370  -2.118  -6.222  0.00  0.00    +0.057 A 
ATOM     12  C   UNL     1       7.703  -1.851  -5.037  0.00  0.00    +0.139 A 
ATOM     13  I   UNL     1       7.282  -2.520  -7.967  0.00  0.00    -0.040 I 
ATOM     14 CL   UNL     1      12.215  -1.867  -5.160  0.00  0.00    -0.083 Cl
BRANCH  12  15
ATOM     15  O   UNL     1       6.345  -1.852  -5.004  0.00  0.00    -0.505 OA
ATOM     16  H   UNL     1       5.947  -0.992  -5.195  0.00  0.00    +0.292 HD
ENDBRANCH  12  15
ENDBRANCH   6   7
ENDBRANCH   3   5
BRANCH   1  17
ATOM     17  C   UNL     1       3.711  -0.707  -0.038  0.00  0.00    +0.194 C 
BRANCH  17  21
ATOM     18  C   UNL     1      -0.188   0.819  -0.884  0.00  0.00    +0.000 A 
ATOM     19  C   UNL     1       0.132  -0.484  -1.218  0.00  0.00    +0.000 A 
ATOM     20  C   UNL     1       1.394  -0.978  -0.944  0.00  0.00    +0.007 A 
ATOM     21  C   UNL     1       2.336  -0.169  -0.337  0.00  0.00    -0.003 A 
ATOM     22  C   UNL     1       2.016   1.134  -0.004  0.00  0.00    +0.007 A 
ATOM     23  C   UNL     1       0.754   1.628  -0.276  0.00  0.00    +0.000 A 
ENDBRANCH  17  21
BRANCH  17  24
ATOM     24  C   UNL     1       3.590  -1.972   0.772  0.00  0.00    -0.003 A 
ATOM     25  C   UNL     1       3.295  -3.168   0.146  0.00  0.00    +0.007 A 
ATOM     26  C   UNL     1       3.184  -4.329   0.889  0.00  0.00    +0.000 A 
ATOM     27  C   UNL     1       3.368  -4.293   2.258  0.00  0.00    +0.000 A 
ATOM     28  C   UNL     1       3.663  -3.097   2.885  0.00  0.00    +0.000 A 
ATOM     29  C   UNL     1       3.779  -1.937   2.141  0.00  0.00    +0.007 A 
ENDBRANCH  17  24
BRANCH  17  30
ATOM     30  O   UNL     1       4.452   0.264   0.704  0.00  0.00    -0.371 OA
ATOM     31  H   UNL     1       4.569   1.106   0.242  0.00  0.00    +0.212 HD
ENDBRANCH  17  30
ENDBRANCH   1  17
TORSDOF 7
