REMARK  Name = ZINC34747813
REMARK  8 active torsions:
REMARK  status: ('A' for Active; 'I' for Inactive)
REMARK    1  A    between atoms: C_1  and  C_2
REMARK    2  A    between atoms: C_5  and  N_8
REMARK    3  A    between atoms: C_9  and  C_11
REMARK    4  A    between atoms: C_11  and  N_12
REMARK    5  A    between atoms: N_25  and  C_28
REMARK    6  A    between atoms: C_28  and  C_29
REMARK    7  A    between atoms: C_29  and  C_30
REMARK    8  A    between atoms: C_29  and  C_31
REMARK                            x       y       z     vdW  Elec       q    Type
REMARK                         _______ _______ _______ _____ _____    ______ ____
ROOT
ATOM      1  N   UNL     1       0.419  -6.843   2.496  0.00  0.00    -0.271 N 
ATOM      2  C   UNL     1       1.624  -6.862   3.096  0.00  0.00    +0.264 A 
ATOM      3  O   UNL     1       2.616  -6.470   2.506  0.00  0.00    -0.267 OA
ATOM      4  C   UNL     1       1.722  -7.348   4.438  0.00  0.00    +0.076 A 
ATOM      5  C   UNL     1       2.927  -7.456   5.277  0.00  0.00    -0.023 A 
ATOM      6  C   UNL     1       2.763  -7.949   6.515  0.00  0.00    -0.004 A 
ATOM      7  S   UNL     1       1.023  -8.294   6.646  0.00  0.00    -0.073 S 
ATOM      8  C   UNL     1       0.523  -7.774   5.026  0.00  0.00    +0.117 A 
ATOM      9  N   UNL     1      -0.636  -7.731   4.378  0.00  0.00    -0.208 NA
ATOM     10  C   UNL     1      -0.701  -7.273   3.144  0.00  0.00    +0.202 A 
ATOM     11  N   UNL     1      -1.912  -7.234   2.500  0.00  0.00    -0.304 N 
ATOM     12  C   UNL     1      -2.337  -8.334   1.621  0.00  0.00    +0.089 C 
ATOM     13  C   UNL     1      -3.751  -8.763   2.029  0.00  0.00    -0.060 C 
ATOM     14  N   UNL     1      -4.640  -7.595   2.011  0.00  0.00    +0.382 N 
ATOM     15  C   UNL     1      -4.213  -6.625   3.028  0.00  0.00    -0.060 C 
ATOM     16  C   UNL     1      -2.824  -6.093   2.674  0.00  0.00    +0.089 C 
ATOM     17  C   UNL     1       4.059  -8.018   7.277  0.00  0.00    +0.043 C 
ATOM     18  C   UNL     1       5.152  -7.897   6.192  0.00  0.00    +0.010 C 
ATOM     19  C   UNL     1       4.410  -7.125   5.084  0.00  0.00    +0.037 C 
ATOM     20  H   UNL     1      -4.606  -7.162   1.100  0.00  0.00    -0.082 HD
ENDROOT
BRANCH   1  21
ATOM     21  C   UNL     1       0.308  -6.346   1.123  0.00  0.00    +0.224 C 
BRANCH  21  23
ATOM     22  N   UNL     1       0.056  -4.165  -0.017  0.00  0.00    -0.284 N 
ATOM     23  C   UNL     1       0.173  -4.846   1.141  0.00  0.00    +0.237 C 
ATOM     24  O   UNL     1       0.170  -4.250   2.197  0.00  0.00    -0.274 OA
ATOM     25  H   UNL     1      -0.027  -4.646  -0.856  0.00  0.00    +0.155 HD
BRANCH  22  30
ATOM     26  C   UNL     1       0.046   1.508   0.014  0.00  0.00    +0.044 C 
ATOM     27  C   UNL     1       0.048   0.001   0.006  0.00  0.00    -0.050 A 
ATOM     28  C   UNL     1       0.678  -0.694   1.022  0.00  0.00    +0.005 A 
ATOM     29  C   UNL     1       0.683  -2.075   1.018  0.00  0.00    +0.023 A 
ATOM     30  C   UNL     1       0.053  -2.766  -0.009  0.00  0.00    +0.033 A 
ATOM     31  C   UNL     1      -0.579  -2.066  -1.028  0.00  0.00    +0.023 A 
ATOM     32  C   UNL     1      -0.584  -0.685  -1.015  0.00  0.00    +0.005 A 
ENDBRANCH  22  30
ENDBRANCH  21  23
ENDBRANCH   1  21
BRANCH  14  33
ATOM     33  C   UNL     1      -6.016  -8.024   2.295  0.00  0.00    -0.076 C 
BRANCH  33  34
ATOM     34  C   UNL     1      -6.962  -6.830   2.154  0.00  0.00    -0.034 C 
ATOM     35  C   UNL     1      -6.977  -6.360   0.698  0.00  0.00    +0.005 C 
ATOM     36  C   UNL     1      -8.374  -7.247   2.570  0.00  0.00    +0.005 C 
ENDBRANCH  33  34
ENDBRANCH  14  33
TORSDOF 5
