REMARK  Name = ZINC14608299
REMARK  9 active torsions:
REMARK  status: ('A' for Active; 'I' for Inactive)
REMARK    1  A    between atoms: C_1  and  C_2
REMARK    2  A    between atoms: C_2  and  O_3
REMARK    3  A    between atoms: O_3  and  C_4
REMARK    4  A    between atoms: C_4  and  C_6
REMARK    5  A    between atoms: C_7  and  N_32
REMARK    6  A    between atoms: C_21  and  C_23
REMARK    7  A    between atoms: C_26  and  O_31
REMARK    8  A    between atoms: C_27  and  O_29
REMARK    9  A    between atoms: O_29  and  C_30
REMARK                            x       y       z     vdW  Elec       q    Type
REMARK                         _______ _______ _______ _____ _____    ______ ____
ROOT
ATOM      1  C   UNL     1       4.454   1.809  -1.271  0.00  0.00    +0.105 C 
ATOM      2  C   UNL     1       5.569   1.040  -1.181  0.00  0.00    +0.195 C 
ATOM      3  O   UNL     1       5.970   0.519  -0.009  0.00  0.00    -0.441 OA
ATOM      4  C   UNL     1       5.522   1.043   1.150  0.00  0.00    +0.148 A 
ATOM      5  C   UNL     1       6.252   0.787   2.400  0.00  0.00    +0.041 A 
ATOM      6  C   UNL     1       7.409   0.005   2.414  0.00  0.00    +0.013 A 
ATOM      7  C   UNL     1       8.064  -0.215   3.593  0.00  0.00    +0.001 A 
ATOM      8  C   UNL     1       7.588   0.331   4.777  0.00  0.00    +0.002 A 
ATOM      9  C   UNL     1       6.447   1.105   4.785  0.00  0.00    +0.026 A 
ATOM     10  C   UNL     1       5.765   1.341   3.596  0.00  0.00    +0.053 A 
ATOM     11  N   UNL     1       4.621   2.111   3.573  0.00  0.00    -0.322 N 
ATOM     12  H   UNL     1       4.286   2.493   4.400  0.00  0.00    +0.169 HD
ATOM     13  C   UNL     1       3.962   2.341   2.425  0.00  0.00    +0.257 A 
ATOM     14  O   UNL     1       2.955   3.029   2.449  0.00  0.00    -0.267 OA
ATOM     15  C   UNL     1       4.400   1.813   1.197  0.00  0.00    +0.072 A 
ATOM     16  C   UNL     1       3.619   2.107  -0.057  0.00  0.00    +0.100 C 
ENDROOT
BRANCH  16  17
ATOM     17  C   UNL     1       2.377   1.253  -0.083  0.00  0.00    -0.031 A 
ATOM     18  C   UNL     1       2.488  -0.125  -0.086  0.00  0.00    +0.008 A 
ATOM     19  C   UNL     1       1.352  -0.913  -0.109  0.00  0.00    +0.049 A 
ATOM     20  C   UNL     1       0.099  -0.321  -0.131  0.00  0.00    +0.158 A 
ATOM     21  C   UNL     1      -0.012   1.066  -0.128  0.00  0.00    +0.162 A 
ATOM     22  C   UNL     1       1.131   1.849  -0.104  0.00  0.00    +0.054 A 
BRANCH  21  23
ATOM     23  O   UNL     1      -1.239   1.651  -0.155  0.00  0.00    -0.491 OA
ATOM     24  C   UNL     1      -1.277   3.079  -0.151  0.00  0.00    +0.277 C 
ENDBRANCH  21  23
BRANCH  20  25
ATOM     25  O   UNL     1      -1.019  -1.095  -0.155  0.00  0.00    -0.503 OA
ATOM     26  H   UNL     1      -1.326  -1.315  -1.045  0.00  0.00    +0.292 HD
ENDBRANCH  20  25
ENDBRANCH  16  17
BRANCH   2  27
ATOM     27  N   UNL     1       6.303   0.790  -2.310  0.00  0.00    -0.329 N 
ATOM     28  H   UNL     1       6.078   1.234  -3.142  0.00  0.00    +0.145 HD
ATOM     29  H   UNL     1       7.048   0.170  -2.277  0.00  0.00    +0.145 HD
ENDBRANCH   2  27
BRANCH   1  30
ATOM     30  C   UNL     1       4.074   2.333  -2.516  0.00  0.00    +0.341 C 
ATOM     31  O   UNL     1       4.306   3.499  -2.781  0.00  0.00    -0.245 OA
BRANCH  30  32
ATOM     32  O   UNL     1       3.452   1.545  -3.419  0.00  0.00    -0.462 OA
BRANCH  32  34
ATOM     33  C   UNL     1       2.405   1.106  -5.553  0.00  0.00    +0.048 C 
ATOM     34  C   UNL     1       3.094   2.145  -4.666  0.00  0.00    +0.229 C 
ENDBRANCH  32  34
ENDBRANCH  30  32
ENDBRANCH   1  30
TORSDOF 7
