REMARK  Name = ZINC60556068
REMARK  11 active torsions:
REMARK  status: ('A' for Active; 'I' for Inactive)
REMARK    1  A    between atoms: C_1  and  C_2
REMARK    2  A    between atoms: N_6  and  C_8
REMARK    3  A    between atoms: C_8  and  C_9
REMARK    4  A    between atoms: C_8  and  C_10
REMARK    5  A    between atoms: C_10  and  N_11
REMARK    6  A    between atoms: C_12  and  C_14
REMARK    7  A    between atoms: C_14  and  C_15
REMARK    8  A    between atoms: C_14  and  N_18
REMARK    9  A    between atoms: C_15  and  C_16
REMARK   10  A    between atoms: C_15  and  C_17
REMARK   11  A    between atoms: C_19  and  C_21
REMARK                            x       y       z     vdW  Elec       q    Type
REMARK                         _______ _______ _______ _____ _____    ______ ____
ROOT
ATOM      1  C   UNL     1      -1.796  -6.144   2.471  0.00  0.00    +0.162 C 
ENDROOT
BRANCH   1   3
ATOM      2  N   UNL     1      -0.236  -4.322   1.866  0.00  0.00    -0.315 N 
ATOM      3  C   UNL     1      -0.406  -5.588   2.296  0.00  0.00    +0.234 C 
ATOM      4  O   UNL     1       0.559  -6.281   2.542  0.00  0.00    -0.274 OA
ATOM      5  H   UNL     1      -1.004  -3.794   1.598  0.00  0.00    +0.149 HD
BRANCH   2   6
ATOM      6  C   UNL     1       1.109  -3.745   1.803  0.00  0.00    +0.089 C 
BRANCH   6   7
ATOM      7  C   UNL     1       1.015  -2.279   1.378  0.00  0.00    -0.054 C 
ATOM      8  C   UNL     1       2.423  -1.693   1.251  0.00  0.00    -0.012 C 
BRANCH   7  14
ATOM      9  C   UNL     1       1.237  -3.521  -3.352  0.00  0.00    +0.005 C 
ATOM     10  C   UNL     1       0.390  -2.831  -2.281  0.00  0.00    -0.031 C 
ATOM     11  C   UNL     1       0.130  -1.379  -2.692  0.00  0.00    -0.001 C 
ATOM     12  C   UNL     1      -0.650  -0.675  -1.579  0.00  0.00    -0.018 C 
ATOM     13  C   UNL     1       0.136  -0.776  -0.270  0.00  0.00    -0.078 C 
ATOM     14  N   UNL     1       0.329  -2.188   0.082  0.00  0.00    +0.383 N 
ATOM     15  C   UNL     1       1.138  -2.852  -0.947  0.00  0.00    -0.075 C 
ATOM     16  H   UNL     1      -0.570  -2.643   0.148  0.00  0.00    -0.081 HD
ENDBRANCH   7  14
ENDBRANCH   6   7
ENDBRANCH   2   6
ENDBRANCH   1   3
BRANCH   1  17
ATOM     17  N   UNL     1      -1.760  -7.602   2.334  0.00  0.00    -0.300 N 
ATOM     18  C   UNL     1      -2.866  -8.271   1.951  0.00  0.00    +0.250 C 
ATOM     19  O   UNL     1      -3.894  -7.664   1.719  0.00  0.00    -0.270 OA
ATOM     20  H   UNL     1      -0.940  -8.086   2.519  0.00  0.00    +0.150 HD
BRANCH  18  21
ATOM     21  C   UNL     1      -2.830  -9.739   1.814  0.00  0.00    +0.107 A 
ATOM     22  C   UNL     1      -3.148 -10.556   2.904  0.00  0.00    +0.138 A 
ATOM     23  C   UNL     1      -3.112 -11.931   2.767  0.00  0.00    +0.039 A 
ATOM     24  C   UNL     1      -2.762 -12.500   1.556  0.00  0.00    +0.006 A 
ATOM     25  C   UNL     1      -2.445 -11.700   0.473  0.00  0.00    +0.039 A 
ATOM     26  C   UNL     1      -2.482 -10.323   0.591  0.00  0.00    +0.138 A 
ATOM     27  F   UNL     1      -2.178  -9.543  -0.470  0.00  0.00    -0.205 F 
ATOM     28  F   UNL     1      -3.490 -10.002   4.088  0.00  0.00    -0.205 F 
ENDBRANCH  18  21
ENDBRANCH   1  17
BRANCH   1  29
ATOM     29  C   UNL     1      -2.322  -5.775   3.859  0.00  0.00    +0.012 C 
ATOM     30  C   UNL     1      -1.344  -6.274   4.925  0.00  0.00    +0.009 C 
ATOM     31  C   UNL     1      -2.458  -4.254   3.965  0.00  0.00    +0.009 C 
ENDBRANCH   1  29
TORSDOF 7
