REMARK  Name = ZINC39452644
REMARK  6 active torsions:
REMARK  status: ('A' for Active; 'I' for Inactive)
REMARK    1  A    between atoms: C_1  and  O_2
REMARK    2  A    between atoms: O_2  and  C_3
REMARK    3  A    between atoms: N_15  and  S_18
REMARK    4  A    between atoms: S_18  and  C_19
REMARK    5  A    between atoms: C_23  and  C_26
REMARK    6  A    between atoms: C_31  and  O_32
REMARK                            x       y       z     vdW  Elec       q    Type
REMARK                         _______ _______ _______ _____ _____    ______ ____
ROOT
ATOM      1  C   UNL     1       0.397  -0.709  -0.792  0.00  0.00    +0.129 A 
ATOM      2  C   UNL     1       0.938   0.097  -1.770  0.00  0.00    +0.046 A 
ATOM      3  C   UNL     1       1.573  -0.445  -2.882  0.00  0.00    +0.006 A 
ATOM      4  C   UNL     1       1.692  -1.789  -3.059  0.00  0.00    +0.028 A 
ATOM      5  C   UNL     1       1.163  -2.671  -2.099  0.00  0.00    +0.075 A 
ATOM      6  C   UNL     1       0.497  -2.109  -0.922  0.00  0.00    +0.043 A 
ATOM      7  C   UNL     1      -0.029  -2.981   0.041  0.00  0.00    +0.029 A 
ATOM      8  C   UNL     1       0.118  -4.345  -0.171  0.00  0.00    +0.068 A 
ATOM      9  C   UNL     1       0.784  -4.821  -1.331  0.00  0.00    +0.100 A 
ATOM     10  N   UNL     1       1.264  -3.993  -2.240  0.00  0.00    -0.244 NA
ATOM     11  C   UNL     1       0.915  -6.279  -1.502  0.00  0.00    +0.082 A 
ATOM     12  C   UNL     1       0.394  -7.132  -0.551  0.00  0.00    +0.122 A 
ATOM     13  N   UNL     1      -0.254  -6.638   0.577  0.00  0.00    -0.245 N 
ATOM     14  C   UNL     1      -0.407  -5.321   0.796  0.00  0.00    +0.271 A 
ATOM     15  O   UNL     1      -0.982  -4.935   1.797  0.00  0.00    -0.266 OA
ATOM     16  C   UNL     1       0.513  -8.531  -0.721  0.00  0.00    +0.184 C 
ATOM     17  O   UNL     1       0.097  -9.279   0.140  0.00  0.00    -0.290 OA
ATOM     18  C   UNL     1       1.150  -9.102  -1.961  0.00  0.00    +0.108 C 
ATOM     19  C   UNL     1       2.194  -8.116  -2.496  0.00  0.00    +0.112 C 
ATOM     20  N   UNL     1       1.562  -6.792  -2.610  0.00  0.00    -0.333 N 
ATOM     21  H   UNL     1       1.597  -6.294  -3.441  0.00  0.00    +0.147 HD
ENDROOT
BRANCH  19  22
ATOM     22  C   UNL     1       3.359  -8.043  -1.542  0.00  0.00    +0.014 A 
ATOM     23  C   UNL     1       3.484  -6.967  -0.685  0.00  0.00    +0.009 A 
ATOM     24  C   UNL     1       4.553  -6.899   0.190  0.00  0.00    +0.001 A 
ATOM     25  C   UNL     1       5.499  -7.908   0.209  0.00  0.00    +0.004 A 
ATOM     26  C   UNL     1       5.378  -8.986  -0.647  0.00  0.00    +0.046 A 
ATOM     27  C   UNL     1       4.303  -9.059  -1.522  0.00  0.00    +0.122 A 
BRANCH  27  28
ATOM     28  O   UNL     1       4.179 -10.121  -2.360  0.00  0.00    -0.506 OA
ATOM     29  H   UNL     1       4.617 -10.001  -3.214  0.00  0.00    +0.292 HD
ENDBRANCH  27  28
ENDBRANCH  19  22
BRANCH   1  31
ATOM     30  C   UNL     1      -0.280   1.266   0.343  0.00  0.00    +0.277 C 
ATOM     31  O   UNL     1      -0.220  -0.161   0.285  0.00  0.00    -0.494 OA
ENDBRANCH   1  31
BRANCH  13  32
ATOM     32  S   UNL     1      -0.856  -7.709   1.687  0.00  0.00    -0.044 S 
ATOM     33  C   UNL     1       0.516  -7.959   2.846  0.00  0.00    +0.110 C 
ENDBRANCH  13  32
TORSDOF 4
