REMARK  Name = ZINC12633454
REMARK  9 active torsions:
REMARK  status: ('A' for Active; 'I' for Inactive)
REMARK    1  A    between atoms: C_1  and  C_2
REMARK    2  A    between atoms: C_2  and  C_4
REMARK    3  A    between atoms: C_2  and  N_16
REMARK    4  A    between atoms: N_6  and  C_7
REMARK    5  A    between atoms: C_12  and  C_13
REMARK    6  A    between atoms: C_13  and  C_14
REMARK    7  A    between atoms: C_13  and  C_15
REMARK    8  A    between atoms: N_16  and  C_17
REMARK    9  A    between atoms: C_26  and  C_28
REMARK                            x       y       z     vdW  Elec       q    Type
REMARK                         _______ _______ _______ _____ _____    ______ ____
ROOT
ATOM      1  C   UNL     1       0.098   1.525  -0.021  0.00  0.00    +0.038 C 
ATOM      2  C   UNL     1       0.099  -0.005  -0.023  0.00  0.00    +0.154 C 
ENDROOT
BRANCH   2   3
ATOM      3  C   UNL     1      -1.321  -0.510  -0.020  0.00  0.00    +0.237 C 
ATOM      4  O   UNL     1      -1.714  -1.208   0.890  0.00  0.00    -0.273 OA
ATOM      5  N   UNL     1      -2.154  -0.184  -1.028  0.00  0.00    -0.284 N 
ATOM      6  H   UNL     1      -1.865   0.439  -1.713  0.00  0.00    +0.155 HD
BRANCH   5   7
ATOM      7  C   UNL     1      -3.435  -0.744  -1.086  0.00  0.00    +0.037 A 
ATOM      8  C   UNL     1      -3.689  -1.964  -0.472  0.00  0.00    +0.023 A 
ATOM      9  C   UNL     1      -4.955  -2.514  -0.531  0.00  0.00    +0.002 A 
ATOM     10  C   UNL     1      -5.968  -1.851  -1.201  0.00  0.00    +0.000 A 
ATOM     11  C   UNL     1      -5.717  -0.637  -1.812  0.00  0.00    +0.006 A 
ATOM     12  C   UNL     1      -4.455  -0.078  -1.751  0.00  0.00    -0.024 A 
BRANCH  12  13
ATOM     13  C   UNL     1      -4.185   1.249  -2.412  0.00  0.00    +0.015 C 
ATOM     14  C   UNL     1      -4.591   1.177  -3.886  0.00  0.00    +0.012 C 
ATOM     15  C   UNL     1      -4.996   2.342  -1.712  0.00  0.00    +0.012 C 
ENDBRANCH  12  13
ENDBRANCH   5   7
ENDBRANCH   2   3
BRANCH   2  16
ATOM     16  N   UNL     1       0.794  -0.494   1.171  0.00  0.00    -0.333 N 
ATOM     17  H   UNL     1       0.288  -0.727   1.965  0.00  0.00    +0.147 HD
BRANCH  16  18
ATOM     18  C   UNL     1       2.187  -0.626   1.165  0.00  0.00    +0.028 A 
ATOM     19  C   UNL     1       2.915  -0.289   0.032  0.00  0.00    +0.025 A 
ATOM     20  C   UNL     1       4.286  -0.419   0.026  0.00  0.00    +0.025 A 
ATOM     21  C   UNL     1       4.955  -0.891   1.158  0.00  0.00    +0.040 A 
ATOM     22  C   UNL     1       4.223  -1.225   2.285  0.00  0.00    -0.023 A 
ATOM     23  C   UNL     1       2.848  -1.089   2.295  0.00  0.00    +0.028 A 
ATOM     24  C   UNL     1       5.178  -1.702   3.357  0.00  0.00    +0.056 C 
ATOM     25  C   UNL     1       6.568  -1.604   2.708  0.00  0.00    +0.118 C 
ATOM     26  N   UNL     1       6.327  -1.095   1.356  0.00  0.00    -0.271 N 
ATOM     27  C   UNL     1       7.284  -0.858   0.437  0.00  0.00    +0.217 C 
ATOM     28  O   UNL     1       6.976  -0.523  -0.687  0.00  0.00    -0.276 OA
ATOM     29  C   UNL     1       8.738  -1.009   0.807  0.00  0.00    +0.109 C 
ENDBRANCH  16  18
ENDBRANCH   2  16
TORSDOF 5
