REMARK  Name = ZINC14676422
REMARK  14 active torsions:
REMARK  status: ('A' for Active; 'I' for Inactive)
REMARK    1  A    between atoms: C_1  and  C_2
REMARK    2  A    between atoms: C_2  and  C_3
REMARK    3  A    between atoms: C_7  and  C_33
REMARK    4  A    between atoms: C_8  and  N_9
REMARK    5  A    between atoms: C_13  and  S_15
REMARK    6  A    between atoms: S_15  and  C_16
REMARK    7  A    between atoms: C_16  and  C_17
REMARK    8  A    between atoms: N_19  and  C_20
REMARK    9  A    between atoms: C_20  and  C_21
REMARK   10  A    between atoms: N_23  and  C_24
REMARK   11  A    between atoms: C_26  and  C_32
REMARK   12  A    between atoms: C_29  and  O_30
REMARK   13  A    between atoms: O_30  and  C_31
REMARK   14  A    between atoms: C_33  and  C_34
REMARK                            x       y       z     vdW  Elec       q    Type
REMARK                         _______ _______ _______ _____ _____    ______ ____
ROOT
ATOM      1  C   UNL     1      -1.477  -4.335   4.724  0.00  0.00    +0.172 C 
ENDROOT
BRANCH   1   2
ATOM      2  C   UNL     1      -0.479  -4.977   5.653  0.00  0.00    +0.224 C 
ATOM      3  O   UNL     1      -0.332  -4.547   6.777  0.00  0.00    -0.275 OA
ATOM      4  N   UNL     1       0.251  -6.030   5.234  0.00  0.00    -0.306 N 
ATOM      5  H   UNL     1       0.134  -6.375   4.335  0.00  0.00    +0.149 HD
BRANCH   4   6
ATOM      6  C   UNL     1       1.222  -6.654   6.138  0.00  0.00    +0.200 C 
BRANCH   6   7
ATOM      7  C   UNL     1       1.899  -7.800   5.432  0.00  0.00    +0.234 C 
ATOM      8  O   UNL     1       1.602  -8.069   4.287  0.00  0.00    -0.274 OA
ATOM      9  N   UNL     1       2.837  -8.526   6.073  0.00  0.00    -0.281 N 
ATOM     10  H   UNL     1       3.053  -8.332   6.998  0.00  0.00    +0.155 HD
BRANCH   9  11
ATOM     11  C   UNL     1       3.500  -9.563   5.402  0.00  0.00    +0.076 A 
ATOM     12  C   UNL     1       2.845 -10.283   4.414  0.00  0.00    +0.030 A 
ATOM     13  C   UNL     1       3.503 -11.301   3.750  0.00  0.00    -0.048 A 
ATOM     14  C   UNL     1       4.810 -11.611   4.076  0.00  0.00    +0.007 A 
ATOM     15  C   UNL     1       5.468 -10.902   5.064  0.00  0.00    +0.048 A 
ATOM     16  C   UNL     1       4.817  -9.876   5.730  0.00  0.00    +0.141 A 
ATOM     17  C   UNL     1       2.792 -12.078   2.673  0.00  0.00    +0.044 C 
BRANCH  16  18
ATOM     18  O   UNL     1       5.463  -9.177   6.702  0.00  0.00    -0.493 OA
ATOM     19  C   UNL     1       6.812  -9.554   6.984  0.00  0.00    +0.277 C 
ENDBRANCH  16  18
ENDBRANCH   9  11
ENDBRANCH   6   7
ENDBRANCH   4   6
ENDBRANCH   1   2
BRANCH   1  20
ATOM     20  S   UNL     1      -2.293  -2.956   5.573  0.00  0.00    -0.088 S 
BRANCH  20  25
ATOM     21  N   UNL     1      -6.211  -0.266   2.252  0.00  0.00    -0.292 N 
ATOM     22  C   UNL     1      -5.236  -1.054   2.854  0.00  0.00    +0.187 A 
ATOM     23  N   UNL     1      -4.567  -2.078   2.360  0.00  0.00    -0.125 NA
ATOM     24  N   UNL     1      -3.634  -2.725   3.136  0.00  0.00    -0.133 NA
ATOM     25  C   UNL     1      -3.414  -2.319   4.372  0.00  0.00    +0.160 A 
ATOM     26  S   UNL     1      -4.560  -0.956   4.504  0.00  0.00    -0.024 S 
ATOM     27  H   UNL     1      -6.663   0.422   2.766  0.00  0.00    +0.154 HD
BRANCH  21  33
ATOM     28  C   UNL     1      -5.699   0.012  -0.090  0.00  0.00    -0.026 A 
ATOM     29  C   UNL     1      -6.024  -0.190  -1.417  0.00  0.00    +0.005 A 
ATOM     30  C   UNL     1      -7.189  -0.856  -1.752  0.00  0.00    +0.001 A 
ATOM     31  C   UNL     1      -8.030  -1.327  -0.760  0.00  0.00    +0.005 A 
ATOM     32  C   UNL     1      -7.708  -1.133   0.569  0.00  0.00    -0.026 A 
ATOM     33  C   UNL     1      -6.539  -0.464   0.909  0.00  0.00    +0.039 A 
BRANCH  28  35
ATOM     34  C   UNL     1      -3.842   1.395  -0.979  0.00  0.00    +0.009 C 
ATOM     35  C   UNL     1      -4.433   0.743   0.273  0.00  0.00    +0.033 C 
ENDBRANCH  28  35
BRANCH  32  36
ATOM     36  C   UNL     1      -8.625  -1.646   1.650  0.00  0.00    +0.033 C 
ATOM     37  C   UNL     1      -9.568  -0.526   2.093  0.00  0.00    +0.009 C 
ENDBRANCH  32  36
ENDBRANCH  21  33
ENDBRANCH  20  25
ENDBRANCH   1  20
TORSDOF 10
