REMARK  Name = ZINC08690939
REMARK  4 active torsions:
REMARK  status: ('A' for Active; 'I' for Inactive)
REMARK    1  A    between atoms: C_1  and  C_2
REMARK    2  A    between atoms: C_2  and  C_26
REMARK    3  A    between atoms: C_6  and  C_16
REMARK    4  A    between atoms: C_13  and  O_15
REMARK                            x       y       z     vdW  Elec       q    Type
REMARK                         _______ _______ _______ _____ _____    ______ ____
ROOT
ATOM      1  C   UNL     1      -0.004   1.491   0.328  0.00  0.00    +0.031 C 
ATOM      2  C   UNL     1       0.002  -0.004   0.002  0.00  0.00    +0.030 C 
ATOM      3  C   UNL     1       0.624  -0.224  -1.381  0.00  0.00    +0.056 C 
ATOM      4  C   UNL     1       0.727  -1.732  -1.635  0.00  0.00    +0.068 C 
ATOM      5  C   UNL     1      -0.680  -2.333  -1.695  0.00  0.00    +0.080 C 
ATOM      6  C   UNL     1      -0.570  -3.762  -2.243  0.00  0.00    +0.206 C 
ATOM      7  O   UNL     1      -0.098  -3.693  -3.589  0.00  0.00    -0.484 OA
ATOM      8  C   UNL     1       0.997  -2.929  -3.839  0.00  0.00    +0.130 A 
ATOM      9  C   UNL     1       1.439  -1.971  -2.942  0.00  0.00    +0.018 A 
ATOM     10  C   UNL     1       2.558  -1.211  -3.239  0.00  0.00    +0.013 A 
ATOM     11  C   UNL     1       3.238  -1.403  -4.425  0.00  0.00    +0.046 A 
ATOM     12  C   UNL     1       2.801  -2.363  -5.326  0.00  0.00    +0.120 A 
ATOM     13  C   UNL     1       1.682  -3.124  -5.033  0.00  0.00    +0.091 A 
ATOM     14  N   UNL     1       1.479  -2.353  -0.545  0.00  0.00    -0.317 N 
ATOM     15  C   UNL     1       1.472  -1.834   0.692  0.00  0.00    +0.131 C 
ATOM     16  S   UNL     1       2.365  -2.624   1.921  0.00  0.00    -0.019 S 
ATOM     17  N   UNL     1       0.794  -0.720   1.004  0.00  0.00    -0.321 N 
ATOM     18  C   UNL     1      -1.433  -0.535   0.009  0.00  0.00    +0.031 C 
ATOM     19  H   UNL     1       1.993  -3.157  -0.720  0.00  0.00    +0.149 HD
ATOM     20  H   UNL     1       0.829  -0.381   1.912  0.00  0.00    +0.148 HD
ENDROOT
BRANCH   6  21
ATOM     21  C   UNL     1      -1.924  -4.422  -2.211  0.00  0.00    -0.007 A 
ATOM     22  C   UNL     1      -2.807  -4.239  -3.259  0.00  0.00    +0.007 A 
ATOM     23  C   UNL     1      -4.049  -4.845  -3.231  0.00  0.00    +0.000 A 
ATOM     24  C   UNL     1      -4.408  -5.635  -2.155  0.00  0.00    +0.000 A 
ATOM     25  C   UNL     1      -3.525  -5.819  -1.107  0.00  0.00    +0.000 A 
ATOM     26  C   UNL     1      -2.281  -5.216  -1.138  0.00  0.00    +0.007 A 
ENDBRANCH   6  21
BRANCH  12  27
ATOM     27  O   UNL     1       3.469  -2.555  -6.494  0.00  0.00    -0.507 OA
ATOM     28  H   UNL     1       4.175  -3.214  -6.439  0.00  0.00    +0.292 HD
ENDBRANCH  12  27
TORSDOF 2
