REMARK  Name = ZINC63141978
REMARK  9 active torsions:
REMARK  status: ('A' for Active; 'I' for Inactive)
REMARK    1  A    between atoms: C_1  and  C_2
REMARK    2  A    between atoms: C_2  and  O_3
REMARK    3  A    between atoms: O_3  and  C_4
REMARK    4  A    between atoms: C_7  and  C_12
REMARK    5  A    between atoms: C_9  and  O_10
REMARK    6  A    between atoms: O_10  and  C_11
REMARK    7  A    between atoms: N_31  and  C_34
REMARK    8  A    between atoms: C_34  and  C_35
REMARK    9  A    between atoms: C_35  and  C_36
REMARK                            x       y       z     vdW  Elec       q    Type
REMARK                         _______ _______ _______ _____ _____    ______ ____
ROOT
ATOM      1  C   UNL     1       1.107  -6.044  -1.844  0.00  0.00    +0.134 C 
ATOM      2  C   UNL     1       2.277  -6.556  -1.003  0.00  0.00    +0.131 C 
ATOM      3  C   UNL     1       1.785  -6.551   0.443  0.00  0.00    -0.034 C 
ATOM      4  C   UNL     1       2.575  -5.724   1.113  0.00  0.00    -0.001 A 
ATOM      5  C   UNL     1       2.608  -5.336   2.532  0.00  0.00    +0.010 A 
ATOM      6  C   UNL     1       3.568  -4.442   2.887  0.00  0.00    +0.001 A 
ATOM      7  C   UNL     1       4.487  -3.901   1.983  0.00  0.00    +0.002 A 
ATOM      8  C   UNL     1       4.530  -4.201   0.660  0.00  0.00    +0.026 A 
ATOM      9  C   UNL     1       3.570  -5.133   0.168  0.00  0.00    +0.043 A 
ATOM     10  N   UNL     1       3.397  -5.607  -1.050  0.00  0.00    -0.375 N 
ATOM     11  C   UNL     1       0.592  -7.366   0.862  0.00  0.00    +0.065 C 
ATOM     12  C   UNL     1      -0.482  -7.281  -0.191  0.00  0.00    +0.167 C 
ATOM     13  N   UNL     1      -0.151  -6.666  -1.457  0.00  0.00    -0.279 N 
ATOM     14  C   UNL     1      -1.172  -6.630  -2.376  0.00  0.00    +0.234 C 
ATOM     15  O   UNL     1      -1.002  -6.201  -3.498  0.00  0.00    -0.274 OA
ATOM     16  C   UNL     1      -2.519  -7.151  -1.922  0.00  0.00    +0.203 C 
ATOM     17  N   UNL     1      -2.792  -6.628  -0.571  0.00  0.00    -0.291 N 
ATOM     18  C   UNL     1      -1.774  -6.705   0.330  0.00  0.00    +0.237 C 
ATOM     19  O   UNL     1      -1.901  -6.336   1.478  0.00  0.00    -0.274 OA
ATOM     20  H   UNL     1       3.909  -5.375  -1.841  0.00  0.00    +0.160 HD
ENDROOT
BRANCH   1  24
ATOM     21  C   UNL     1       0.777  -1.811  -1.336  0.00  0.00    +0.162 A 
ATOM     22  C   UNL     1       0.243  -2.669  -0.388  0.00  0.00    +0.050 A 
ATOM     23  C   UNL     1       0.352  -4.037  -0.555  0.00  0.00    +0.009 A 
ATOM     24  C   UNL     1       0.992  -4.552  -1.667  0.00  0.00    -0.021 A 
ATOM     25  C   UNL     1       1.526  -3.702  -2.616  0.00  0.00    +0.055 A 
ATOM     26  C   UNL     1       1.416  -2.330  -2.458  0.00  0.00    +0.162 A 
BRANCH  26  27
ATOM     27  O   UNL     1       1.936  -1.492  -3.394  0.00  0.00    -0.491 OA
ATOM     28  C   UNL     1       2.578  -2.095  -4.520  0.00  0.00    +0.277 C 
ENDBRANCH  26  27
BRANCH  21  29
ATOM     29  O   UNL     1       0.671  -0.465  -1.174  0.00  0.00    -0.489 OA
BRANCH  29  31
ATOM     30  C   UNL     1      -0.019   1.526   0.010  0.00  0.00    +0.048 C 
ATOM     31  C   UNL     1       0.002  -0.004   0.002  0.00  0.00    +0.226 C 
ENDBRANCH  29  31
ENDBRANCH  21  29
ENDBRANCH   1  24
BRANCH  17  32
ATOM     32  C   UNL     1      -4.092  -6.054  -0.216  0.00  0.00    +0.112 C 
BRANCH  32  33
ATOM     33  C   UNL     1      -5.008  -7.158   0.319  0.00  0.00    +0.049 C 
BRANCH  33  34
ATOM     34  C   UNL     1      -6.346  -6.567   0.684  0.00  0.00    -0.072 C 
ATOM     35  C   UNL     1      -7.294  -6.623  -0.196  0.00  0.00    -0.028 C 
ATOM     36  C   UNL     1      -8.673  -6.071   0.019  0.00  0.00    +0.027 C 
ATOM     37  C   UNL     1      -8.920  -5.835   1.510  0.00  0.00    +0.004 C 
ATOM     38  C   UNL     1      -7.732  -5.051   2.081  0.00  0.00    +0.005 C 
ATOM     39  C   UNL     1      -6.497  -5.956   2.046  0.00  0.00    +0.030 C 
ENDBRANCH  33  34
ENDBRANCH  32  33
ENDBRANCH  17  32
TORSDOF 7
