REMARK  Name = ZINC09617373
REMARK  12 active torsions:
REMARK  status: ('A' for Active; 'I' for Inactive)
REMARK    1  A    between atoms: C_1  and  C_2
REMARK    2  A    between atoms: C_2  and  O_3
REMARK    3  A    between atoms: O_3  and  C_4
REMARK    4  A    between atoms: C_6  and  C_13
REMARK    5  A    between atoms: C_9  and  O_10
REMARK    6  A    between atoms: O_10  and  C_11
REMARK    7  A    between atoms: C_14  and  C_15
REMARK    8  A    between atoms: C_15  and  O_17
REMARK    9  A    between atoms: O_17  and  C_18
REMARK   10  A    between atoms: C_18  and  C_19
REMARK   11  A    between atoms: N_21  and  C_22
REMARK   12  A    between atoms: C_23  and  C_30
REMARK                            x       y       z     vdW  Elec       q    Type
REMARK                         _______ _______ _______ _____ _____    ______ ____
ROOT
ATOM      1  C   UNL     1      -2.554   4.019   0.036  0.00  0.00    +0.328 C 
ENDROOT
BRANCH   1   2
ATOM      2  C   UNL     1      -2.377   5.516   0.043  0.00  0.00    +0.255 C 
ATOM      3  O   UNL     1      -1.262   5.995   0.041  0.00  0.00    -0.272 OA
ATOM      4  N   UNL     1      -3.457   6.322   0.053  0.00  0.00    -0.277 N 
ATOM      5  H   UNL     1      -4.348   5.939   0.055  0.00  0.00    +0.155 HD
BRANCH   4   6
ATOM      6  C   UNL     1      -3.293   7.699   0.059  0.00  0.00    +0.084 A 
ATOM      7  C   UNL     1      -4.269   8.681   0.064  0.00  0.00    +0.068 A 
ATOM      8  C   UNL     1      -3.827  10.075   0.075  0.00  0.00    -0.023 A 
ATOM      9  C   UNL     1      -2.494  10.252   0.070  0.00  0.00    -0.004 A 
ATOM     10  S   UNL     1      -1.821   8.608   0.057  0.00  0.00    -0.077 S 
ATOM     11  C   UNL     1      -2.118  11.709   0.079  0.00  0.00    +0.043 C 
ATOM     12  C   UNL     1      -3.402  12.440   0.527  0.00  0.00    +0.010 C 
ATOM     13  C   UNL     1      -4.498  11.450   0.084  0.00  0.00    +0.037 C 
BRANCH   7  14
ATOM     14  C   UNL     1      -5.694   8.336   0.062  0.00  0.00    +0.244 C 
ATOM     15  O   UNL     1      -6.286   8.188   1.115  0.00  0.00    -0.270 OA
ATOM     16  N   UNL     1      -6.349   8.182  -1.107  0.00  0.00    -0.325 N 
ATOM     17  H   UNL     1      -5.877   8.300  -1.946  0.00  0.00    +0.145 HD
ATOM     18  H   UNL     1      -7.291   7.954  -1.108  0.00  0.00    +0.145 HD
ENDBRANCH   7  14
ENDBRANCH   4   6
ENDBRANCH   1   2
BRANCH   1  19
ATOM     19  O   UNL     1      -1.272   3.388   0.026  0.00  0.00    -0.452 OA
BRANCH  19  20
ATOM     20  C   UNL     1      -1.254   2.039   0.019  0.00  0.00    +0.332 C 
ATOM     21  O   UNL     1      -2.299   1.416   0.021  0.00  0.00    -0.246 OA
BRANCH  20  23
ATOM     22  C   UNL     1       0.002  -0.004   0.002  0.00  0.00    +0.015 C 
ATOM     23  C   UNL     1      -0.016   1.347   0.009  0.00  0.00    +0.092 C 
BRANCH  22  26
ATOM     24  C   UNL     1       2.514  -2.790  -0.036  0.00  0.00    +0.164 A 
ATOM     25  C   UNL     1       1.306  -2.121  -0.016  0.00  0.00    +0.057 A 
ATOM     26  C   UNL     1       1.284  -0.721  -0.014  0.00  0.00    -0.020 A 
ATOM     27  C   UNL     1       2.488  -0.007  -0.022  0.00  0.00    +0.031 A 
ATOM     28  C   UNL     1       3.690  -0.683  -0.036  0.00  0.00    +0.087 A 
ATOM     29  C   UNL     1       3.709  -2.072  -0.044  0.00  0.00    +0.180 A 
ATOM     30 CL   UNL     1       5.182   0.204  -0.046  0.00  0.00    -0.080 Cl
BRANCH  29  31
ATOM     31  O   UNL     1       4.896  -2.733  -0.058  0.00  0.00    -0.490 OA
ATOM     32  C   UNL     1       5.474  -3.055   1.208  0.00  0.00    +0.277 C 
ENDBRANCH  29  31
BRANCH  24  33
ATOM     33  O   UNL     1       2.538  -4.150  -0.043  0.00  0.00    -0.489 OA
BRANCH  33  35
ATOM     34  C   UNL     1       1.503  -6.334  -0.045  0.00  0.00    +0.048 C 
ATOM     35  C   UNL     1       1.276  -4.821  -0.035  0.00  0.00    +0.226 C 
ENDBRANCH  33  35
ENDBRANCH  24  33
ENDBRANCH  22  26
ENDBRANCH  20  23
ENDBRANCH  19  20
ENDBRANCH   1  19
TORSDOF 10
