REMARK  Name = ZINC64450312
REMARK  3 active torsions:
REMARK  status: ('A' for Active; 'I' for Inactive)
REMARK    1  A    between atoms: C_1  and  C_2
REMARK    2  A    between atoms: C_4  and  C_23
REMARK    3  A    between atoms: N_12  and  C_14
REMARK                            x       y       z     vdW  Elec       q    Type
REMARK                         _______ _______ _______ _____ _____    ______ ____
ROOT
ATOM      1  C   UNL     1      -0.022   1.479  -0.267  0.00  0.00    +0.062 C 
ATOM      2  C   UNL     1      -0.014  -0.028  -0.258  0.00  0.00    +0.019 C 
ATOM      3  C   UNL     1      -1.065  -0.767  -0.048  0.00  0.00    -0.008 C 
ATOM      4  C   UNL     1      -2.526  -0.406   0.066  0.00  0.00    +0.061 C 
ATOM      5  C   UNL     1      -3.236  -1.123  -1.093  0.00  0.00    +0.108 C 
ATOM      6  C   UNL     1      -2.661  -2.479  -1.344  0.00  0.00    +0.215 C 
ATOM      7  O   UNL     1      -3.362  -3.252  -1.961  0.00  0.00    -0.276 OA
ATOM      8  N   UNL     1      -1.466  -2.939  -0.968  0.00  0.00    -0.295 N 
ATOM      9  C   UNL     1      -0.605  -2.216  -0.042  0.00  0.00    +0.194 C 
ATOM     10  N   UNL     1       0.793  -2.139  -0.479  0.00  0.00    -0.164 NA
ATOM     11  N   UNL     1       1.111  -0.806  -0.480  0.00  0.00    -0.277 N 
ATOM     12  H   UNL     1      -1.160  -3.787  -1.326  0.00  0.00    +0.151 HD
ATOM     13  H   UNL     1       2.005  -0.454  -0.615  0.00  0.00    +0.166 HD
ENDROOT
BRANCH  10  14
ATOM     14  C   UNL     1       1.670  -2.892   0.427  0.00  0.00    +0.270 C 
ATOM     15  N   UNL     1       1.301  -4.313   0.419  0.00  0.00    -0.350 N 
ATOM     16  C   UNL     1       0.952  -4.633   1.632  0.00  0.00    +0.061 A 
ATOM     17  C   UNL     1       0.491  -5.888   2.241  0.00  0.00    +0.027 A 
ATOM     18  C   UNL     1       0.195  -5.920   3.556  0.00  0.00    +0.002 A 
ATOM     19  C   UNL     1       0.308  -4.791   4.386  0.00  0.00    +0.002 A 
ATOM     20  C   UNL     1       0.721  -3.591   3.929  0.00  0.00    +0.027 A 
ATOM     21  C   UNL     1       1.072  -3.438   2.511  0.00  0.00    +0.061 A 
ATOM     22  N   UNL     1       1.490  -2.425   1.807  0.00  0.00    -0.350 N 
ATOM     23  H   UNL     1       1.314  -4.906  -0.349  0.00  0.00    +0.163 HD
ATOM     24  H   UNL     1       1.653  -1.527   2.135  0.00  0.00    +0.163 HD
ENDBRANCH  10  14
BRANCH   4  25
ATOM     25  C   UNL     1      -2.703   1.085  -0.059  0.00  0.00    -0.003 A 
ATOM     26  C   UNL     1      -2.991   1.843   1.060  0.00  0.00    +0.022 A 
ATOM     27  C   UNL     1      -3.153   3.212   0.946  0.00  0.00    +0.018 A 
ATOM     28  C   UNL     1      -3.026   3.824  -0.288  0.00  0.00    +0.018 A 
ATOM     29  C   UNL     1      -2.738   3.067  -1.408  0.00  0.00    +0.040 A 
ATOM     30  C   UNL     1      -2.570   1.697  -1.293  0.00  0.00    +0.127 A 
ATOM     31  F   UNL     1      -2.282   0.958  -2.387  0.00  0.00    -0.205 F 
ATOM     32 BR   UNL     1      -3.549   4.248   2.478  0.00  0.00    -0.050 Br
ENDBRANCH   4  25
TORSDOF 2
