REMARK  Name = ZINC09278554
REMARK  5 active torsions:
REMARK  status: ('A' for Active; 'I' for Inactive)
REMARK    1  A    between atoms: C_1  and  C_2
REMARK    2  A    between atoms: C_3  and  C_19
REMARK    3  A    between atoms: C_7  and  N_8
REMARK    4  A    between atoms: N_8  and  S_9
REMARK    5  A    between atoms: S_9  and  C_12
REMARK                            x       y       z     vdW  Elec       q    Type
REMARK                         _______ _______ _______ _____ _____    ______ ____
ROOT
ATOM      1  C   UNL     1      -0.038   1.440  -0.027  0.00  0.00    +0.046 C 
ATOM      2  C   UNL     1      -0.009  -0.067  -0.022  0.00  0.00    -0.018 A 
ATOM      3  C   UNL     1      -0.186  -0.774  -1.211  0.00  0.00    +0.012 A 
ATOM      4  C   UNL     1      -0.153  -2.170  -1.199  0.00  0.00    +0.011 A 
ATOM      5  C   UNL     1       0.044  -2.845  -0.012  0.00  0.00    +0.003 A 
ATOM      6  C   UNL     1       0.214  -2.145   1.167  0.00  0.00    +0.025 A 
ATOM      7  C   UNL     1       0.188  -0.755   1.165  0.00  0.00    +0.052 A 
ENDROOT
BRANCH   3   8
ATOM      8  C   UNL     1      -0.403  -0.048  -2.481  0.00  0.00    +0.111 A 
ATOM      9  N   UNL     1       0.254   0.982  -2.964  0.00  0.00    -0.237 NA
ATOM     10  C   UNL     1      -0.056   1.548  -4.145  0.00  0.00    +0.097 A 
ATOM     11  C   UNL     1       0.563   2.652  -4.781  0.00  0.00    +0.032 A 
ATOM     12  C   UNL     1       0.086   3.074  -6.000  0.00  0.00    +0.022 A 
ATOM     13  C   UNL     1      -0.985   2.430  -6.600  0.00  0.00    +0.112 A 
ATOM     14  N   UNL     1      -1.560   1.401  -6.005  0.00  0.00    -0.246 NA
ATOM     15  C   UNL     1      -1.140   0.964  -4.845  0.00  0.00    +0.128 A 
ATOM     16  S   UNL     1      -1.621  -0.354  -3.752  0.00  0.00    -0.048 S 
ENDBRANCH   3   8
BRANCH   7  17
ATOM     17  N   UNL     1       0.360  -0.051   2.360  0.00  0.00    -0.216 N 
ATOM     18  H   UNL     1      -0.126   0.774   2.511  0.00  0.00    +0.174 HD
BRANCH  17  19
ATOM     19  S   UNL     1       1.396  -0.626   3.518  0.00  0.00    +0.072 S 
ATOM     20  O   UNL     1       1.454   0.362   4.537  0.00  0.00    -0.150 OA
ATOM     21  O   UNL     1       1.008  -1.968   3.779  0.00  0.00    -0.150 OA
BRANCH  19  22
ATOM     22  C   UNL     1       3.000  -0.697   2.793  0.00  0.00    +0.109 A 
ATOM     23  C   UNL     1       3.417  -1.847   2.149  0.00  0.00    +0.030 A 
ATOM     24  C   UNL     1       4.673  -1.901   1.575  0.00  0.00    +0.016 A 
ATOM     25  C   UNL     1       5.518  -0.809   1.655  0.00  0.00    +0.013 A 
ATOM     26  C   UNL     1       5.102   0.340   2.304  0.00  0.00    +0.016 A 
ATOM     27  C   UNL     1       3.844   0.395   2.873  0.00  0.00    +0.030 A 
ATOM     28  I   UNL     1       7.425  -0.893   0.792  0.00  0.00    -0.044 I 
ENDBRANCH  19  22
ENDBRANCH  17  19
ENDBRANCH   7  17
TORSDOF 4
