REMARK  Name = ZINC26442186
REMARK  7 active torsions:
REMARK  status: ('A' for Active; 'I' for Inactive)
REMARK    1  A    between atoms: C_6  and  C_7
REMARK    2  A    between atoms: N_11  and  C_12
REMARK    3  A    between atoms: C_15  and  O_18
REMARK    4  A    between atoms: O_18  and  C_19
REMARK    5  A    between atoms: N_22  and  C_23
REMARK    6  A    between atoms: C_23  and  C_24
REMARK    7  A    between atoms: C_24  and  O_25
REMARK                            x       y       z     vdW  Elec       q    Type
REMARK                         _______ _______ _______ _____ _____    ______ ____
ROOT
ATOM      1  C   UNL     1       2.603   3.836   0.077  0.00  0.00    +0.058 A 
ATOM      2  C   UNL     1       3.596   2.931   0.203  0.00  0.00    +0.075 A 
ATOM      3  S   UNL     1       2.725   1.387  -0.018  0.00  0.00    -0.059 S 
ATOM      4  C   UNL     1       1.091   2.059  -0.275  0.00  0.00    +0.152 A 
ATOM      5  N   UNL     1      -0.044   1.426  -0.503  0.00  0.00    -0.336 N 
ATOM      6  N   UNL     1       1.325   3.410  -0.166  0.00  0.00    -0.319 N 
ATOM      7  H   UNL     1      -0.959   1.997  -0.718  0.00  0.00    +0.168 HD
ENDROOT
BRANCH   1  13
ATOM      8  C   UNL     1       2.490   6.165  -0.800  0.00  0.00    +0.011 A 
ATOM      9  C   UNL     1       2.760   7.512  -0.677  0.00  0.00    +0.016 A 
ATOM     10  C   UNL     1       3.441   7.986   0.431  0.00  0.00    +0.018 A 
ATOM     11  C   UNL     1       3.851   7.112   1.424  0.00  0.00    +0.016 A 
ATOM     12  C   UNL     1       3.582   5.764   1.315  0.00  0.00    +0.011 A 
ATOM     13  C   UNL     1       2.895   5.280   0.200  0.00  0.00    -0.001 A 
ATOM     14 BR   UNL     1       3.814   9.833   0.589  0.00  0.00    -0.050 Br
ENDBRANCH   1  13
BRANCH   5  15
ATOM     15  C   UNL     1      -0.083   0.058  -0.472  0.00  0.00    +0.041 A 
ATOM     16  C   UNL     1       0.048  -0.674  -1.655  0.00  0.00    +0.029 A 
ATOM     17  C   UNL     1       0.012  -2.052  -1.618  0.00  0.00    +0.048 A 
ATOM     18  C   UNL     1      -0.163  -2.712  -0.410  0.00  0.00    +0.127 A 
ATOM     19  C   UNL     1      -0.297  -1.990   0.767  0.00  0.00    +0.048 A 
ATOM     20  C   UNL     1      -0.258  -0.611   0.741  0.00  0.00    +0.029 A 
BRANCH  18  21
ATOM     21  O   UNL     1      -0.202  -4.071  -0.380  0.00  0.00    -0.434 OA
BRANCH  21  22
ATOM     22  C   UNL     1      -0.058  -4.753  -1.627  0.00  0.00    +0.541 C 
ATOM     23  F   UNL     1      -1.087  -4.366  -2.492  0.00  0.00    -0.166 F 
ATOM     24  F   UNL     1       1.178  -4.426  -2.197  0.00  0.00    -0.166 F 
ENDBRANCH  21  22
ENDBRANCH  18  21
ENDBRANCH   5  15
BRANCH   6  25
ATOM     25  C   UNL     1       0.230   4.373  -0.305  0.00  0.00    +0.152 C 
BRANCH  25  26
ATOM     26  C   UNL     1      -0.301   4.745   1.080  0.00  0.00    +0.177 C 
BRANCH  26  27
ATOM     27  O   UNL     1      -1.369   5.685   0.944  0.00  0.00    -0.393 OA
ATOM     28  H   UNL     1      -1.879   6.071   1.839  0.00  0.00    +0.209 HD
ENDBRANCH  26  27
ENDBRANCH  25  26
ENDBRANCH   6  25
TORSDOF 7
