REMARK  Name = ZINC39774297
REMARK  8 active torsions:
REMARK  status: ('A' for Active; 'I' for Inactive)
REMARK    1  A    between atoms: C_1  and  C_2
REMARK    2  A    between atoms: C_5  and  C_12
REMARK    3  A    between atoms: C_5  and  O_25
REMARK    4  A    between atoms: C_6  and  C_11
REMARK    5  A    between atoms: N_9  and  C_10
REMARK    6  A    between atoms: C_13  and  C_14
REMARK    7  A    between atoms: C_14  and  O_15
REMARK    8  A    between atoms: O_15  and  C_16
REMARK                            x       y       z     vdW  Elec       q    Type
REMARK                         _______ _______ _______ _____ _____    ______ ____
ROOT
ATOM      1  C   UNL     1      -0.645  -2.537  -1.320  0.00  0.00    -0.064 C 
ATOM      2  C   UNL     1      -1.746  -2.942  -1.367  0.00  0.00    -0.059 C 
ENDROOT
BRANCH   1   6
ATOM      3  C   UNL     1      -0.019   1.526   0.010  0.00  0.00    -0.013 C 
ATOM      4  C   UNL     1       0.002  -0.004   0.002  0.00  0.00    -0.068 C 
ATOM      5  C   UNL     1       0.717  -0.497  -1.258  0.00  0.00    +0.033 C 
ATOM      6  C   UNL     1       0.735  -2.028  -1.262  0.00  0.00    +0.126 C 
ATOM      7  C   UNL     1       1.410  -2.524   0.020  0.00  0.00    +0.013 C 
ATOM      8  C   UNL     1       0.669  -1.956   1.232  0.00  0.00    -0.072 C 
ATOM      9  N   UNL     1       0.711  -0.490   1.192  0.00  0.00    +0.380 N 
ATOM     10  C   UNL     1       0.067   0.050   2.397  0.00  0.00    -0.096 C 
ATOM     11  C   UNL     1       1.365  -4.053   0.062  0.00  0.00    +0.009 C 
ATOM     12  H   UNL     1       1.671  -0.182   1.159  0.00  0.00    -0.082 HD
BRANCH   6  13
ATOM     13  O   UNL     1       1.466  -2.494  -2.398  0.00  0.00    -0.376 OA
ATOM     14  H   UNL     1       1.097  -2.212  -3.246  0.00  0.00    +0.211 HD
ENDBRANCH   6  13
ENDBRANCH   1   6
BRANCH   2  15
ATOM     15  C   UNL     1      -3.126  -3.450  -1.425  0.00  0.00    +0.317 C 
BRANCH  15  16
ATOM     16  O   UNL     1      -3.108  -4.879  -1.428  0.00  0.00    -0.477 OA
BRANCH  16  17
ATOM     17  C   UNL     1      -4.310  -5.512  -1.480  0.00  0.00    +0.150 A 
ATOM     18  C   UNL     1      -4.976  -5.834  -0.306  0.00  0.00    +0.062 A 
ATOM     19  C   UNL     1      -6.199  -6.477  -0.360  0.00  0.00    +0.034 A 
ATOM     20  C   UNL     1      -6.758  -6.800  -1.584  0.00  0.00    +0.020 A 
ATOM     21  C   UNL     1      -6.095  -6.480  -2.756  0.00  0.00    +0.034 A 
ATOM     22  C   UNL     1      -4.875  -5.831  -2.706  0.00  0.00    +0.062 A 
ATOM     23 BR   UNL     1      -3.974  -5.387  -4.308  0.00  0.00    -0.046 Br
ATOM     24 BR   UNL     1      -8.430  -7.681  -1.655  0.00  0.00    -0.050 Br
ATOM     25 BR   UNL     1      -4.213  -5.394   1.367  0.00  0.00    -0.046 Br
ENDBRANCH  16  17
ENDBRANCH  15  16
ENDBRANCH   2  15
TORSDOF 5
