REMARK  Name = ZINC17307581
REMARK  7 active torsions:
REMARK  status: ('A' for Active; 'I' for Inactive)
REMARK    1  A    between atoms: C_1  and  C_2
REMARK    2  A    between atoms: C_2  and  O_3
REMARK    3  A    between atoms: O_3  and  C_4
REMARK    4  A    between atoms: C_7  and  C_10
REMARK    5  A    between atoms: C_15  and  S_19
REMARK    6  A    between atoms: S_19  and  C_20
REMARK    7  A    between atoms: C_20  and  C_21
REMARK                            x       y       z     vdW  Elec       q    Type
REMARK                         _______ _______ _______ _____ _____    ______ ____
ROOT
ATOM      1  C   UNL     1      -2.001  -6.092  -0.011  0.00  0.00    +0.092 C 
ATOM      2  C   UNL     1      -2.748  -6.492  -1.247  0.00  0.00    +0.071 A 
ATOM      3  C   UNL     1      -4.097  -6.820  -1.185  0.00  0.00    +0.135 A 
ATOM      4  N   UNL     1      -4.734  -7.168  -2.299  0.00  0.00    -0.206 NA
ATOM      5  C   UNL     1      -4.091  -7.205  -3.458  0.00  0.00    +0.194 A 
ATOM      6  N   UNL     1      -2.805  -6.900  -3.553  0.00  0.00    -0.183 NA
ATOM      7  C   UNL     1      -2.107  -6.542  -2.479  0.00  0.00    +0.280 A 
ATOM      8  O   UNL     1      -0.792  -6.231  -2.584  0.00  0.00    -0.265 OA
ATOM      9  N   UNL     1      -4.757  -6.783   0.031  0.00  0.00    -0.302 N 
ATOM     10  C   UNL     1      -4.053  -6.817   1.204  0.00  0.00    +0.017 C 
ATOM     11  C   UNL     1      -2.741  -6.507   1.236  0.00  0.00    +0.024 C 
ATOM     12  C   UNL     1      -2.016  -6.562   2.439  0.00  0.00    +0.162 C 
ATOM     13  C   UNL     1      -2.669  -6.974   3.729  0.00  0.00    +0.080 C 
ATOM     14  C   UNL     1      -3.834  -7.919   3.417  0.00  0.00    +0.014 C 
ATOM     15  C   UNL     1      -4.790  -7.209   2.462  0.00  0.00    +0.051 C 
ATOM     16  O   UNL     1      -0.836  -6.270   2.436  0.00  0.00    -0.292 OA
ATOM     17  H   UNL     1      -5.725  -6.732   0.052  0.00  0.00    +0.153 HD
ENDROOT
BRANCH   1  21
ATOM     18  C   UNL     1      -1.498  -1.848   0.006  0.00  0.00    +0.121 A 
ATOM     19  C   UNL     1      -0.388  -2.679  -0.003  0.00  0.00    +0.046 A 
ATOM     20  C   UNL     1      -0.553  -4.051  -0.008  0.00  0.00    +0.008 A 
ATOM     21  C   UNL     1      -1.823  -4.596  -0.005  0.00  0.00    -0.035 A 
ATOM     22  C   UNL     1      -2.932  -3.769   0.004  0.00  0.00    +0.008 A 
ATOM     23  C   UNL     1      -2.772  -2.397   0.016  0.00  0.00    +0.046 A 
BRANCH  18  24
ATOM     24  O   UNL     1      -1.339  -0.499   0.012  0.00  0.00    -0.492 OA
BRANCH  24  26
ATOM     25  C   UNL     1      -0.019   1.526   0.010  0.00  0.00    +0.048 C 
ATOM     26  C   UNL     1       0.002  -0.004   0.002  0.00  0.00    +0.225 C 
ENDBRANCH  24  26
ENDBRANCH  18  24
ENDBRANCH   1  21
BRANCH   5  27
ATOM     27  S   UNL     1      -4.971  -7.674  -4.911  0.00  0.00    -0.081 S 
BRANCH  27  28
ATOM     28  C   UNL     1      -3.724  -7.586  -6.226  0.00  0.00    +0.114 C 
BRANCH  28  29
ATOM     29  C   UNL     1      -4.354  -7.968  -7.541  0.00  0.00    -0.019 A 
ATOM     30  C   UNL     1      -4.361  -9.290  -7.946  0.00  0.00    +0.006 A 
ATOM     31  C   UNL     1      -4.938  -9.640  -9.152  0.00  0.00    +0.000 A 
ATOM     32  C   UNL     1      -5.508  -8.669  -9.954  0.00  0.00    +0.001 A 
ATOM     33  C   UNL     1      -5.502  -7.348  -9.550  0.00  0.00    +0.020 A 
ATOM     34  C   UNL     1      -4.929  -6.997  -8.341  0.00  0.00    +0.045 A 
ATOM     35 CL   UNL     1      -4.926  -5.338  -7.830  0.00  0.00    -0.083 Cl
ENDBRANCH  28  29
ENDBRANCH  27  28
ENDBRANCH   5  27
TORSDOF 6
