REMARK  Name = ZINC09407700
REMARK  6 active torsions:
REMARK  status: ('A' for Active; 'I' for Inactive)
REMARK    1  A    between atoms: C_1  and  C_2
REMARK    2  A    between atoms: C_5  and  O_28
REMARK    3  A    between atoms: C_6  and  N_8
REMARK    4  A    between atoms: N_8  and  C_9
REMARK    5  A    between atoms: C_10  and  C_12
REMARK    6  A    between atoms: O_28  and  C_29
REMARK                            x       y       z     vdW  Elec       q    Type
REMARK                         _______ _______ _______ _____ _____    ______ ____
ROOT
ATOM      1  C   UNL     1       1.773  -0.227  -0.042  0.00  0.00    +0.075 A 
ATOM      2  C   UNL     1       2.228   1.080  -0.028  0.00  0.00    +0.026 A 
ATOM      3  C   UNL     1       1.322   2.120   0.001  0.00  0.00    -0.011 A 
ATOM      4  C   UNL     1      -0.024   1.769  -0.006  0.00  0.00    +0.027 A 
ATOM      5  S   UNL     1       0.001  -0.005  -0.022  0.00  0.00    -0.083 S 
ATOM      6  C   UNL     1      -1.183   2.661   0.022  0.00  0.00    +0.014 A 
ATOM      7  C   UNL     1      -2.442   2.190   0.400  0.00  0.00    +0.012 A 
ATOM      8  C   UNL     1      -3.515   3.054   0.443  0.00  0.00    +0.021 A 
ATOM      9  C   UNL     1      -3.349   4.389   0.114  0.00  0.00    +0.043 A 
ATOM     10  C   UNL     1      -2.106   4.862  -0.273  0.00  0.00    +0.047 A 
ATOM     11  C   UNL     1      -1.029   4.006  -0.327  0.00  0.00    +0.098 A 
ATOM     12  S   UNL     1       0.552   4.593  -0.840  0.00  0.00    +0.002 S 
ATOM     13  O   UNL     1       0.603   5.939  -0.388  0.00  0.00    -0.169 OA
ATOM     14  O   UNL     1       0.617   4.293  -2.227  0.00  0.00    -0.169 OA
ATOM     15  C   UNL     1       1.750   3.583   0.074  0.00  0.00    +0.208 C 
ATOM     16 CL   UNL     1      -4.704   5.473   0.185  0.00  0.00    -0.083 Cl
ENDROOT
BRANCH   1  19
ATOM     17  N   UNL     1       1.914  -2.658   0.033  0.00  0.00    -0.267 N 
ATOM     18  C   UNL     1       2.692  -3.897   0.113  0.00  0.00    +0.139 C 
ATOM     19  C   UNL     1       2.545  -1.471  -0.068  0.00  0.00    +0.257 C 
ATOM     20  O   UNL     1       3.757  -1.434  -0.181  0.00  0.00    -0.269 OA
BRANCH  17  26
ATOM     21  C   UNL     1      -2.359  -2.992  -2.374  0.00  0.00    +0.044 C 
ATOM     22  C   UNL     1      -1.582  -2.869  -1.089  0.00  0.00    -0.048 A 
ATOM     23  C   UNL     1      -2.253  -2.803   0.118  0.00  0.00    +0.007 A 
ATOM     24  C   UNL     1      -1.546  -2.689   1.301  0.00  0.00    +0.048 A 
ATOM     25  C   UNL     1      -0.161  -2.640   1.278  0.00  0.00    +0.141 A 
ATOM     26  C   UNL     1       0.515  -2.707   0.062  0.00  0.00    +0.078 A 
ATOM     27  C   UNL     1      -0.202  -2.816  -1.121  0.00  0.00    +0.030 A 
BRANCH  25  28
ATOM     28  O   UNL     1       0.536  -2.528   2.441  0.00  0.00    -0.493 OA
ATOM     29  C   UNL     1      -0.224  -2.465   3.649  0.00  0.00    +0.277 C 
ENDBRANCH  25  28
ENDBRANCH  17  26
ENDBRANCH   1  19
TORSDOF 3
