REMARK  Name = ZINC07125916
REMARK  8 active torsions:
REMARK  status: ('A' for Active; 'I' for Inactive)
REMARK    1  A    between atoms: C_1  and  C_2
REMARK    2  A    between atoms: C_2  and  C_3
REMARK    3  A    between atoms: C_3  and  C_4
REMARK    4  A    between atoms: C_7  and  C_10
REMARK    5  A    between atoms: C_10  and  C_27
REMARK    6  A    between atoms: N_13  and  C_17
REMARK    7  A    between atoms: C_17  and  C_18
REMARK    8  A    between atoms: N_20  and  C_21
REMARK                            x       y       z     vdW  Elec       q    Type
REMARK                         _______ _______ _______ _____ _____    ______ ____
ROOT
ATOM      1  C   UNL     1      -1.355  -6.312  -0.019  0.00  0.00    +0.135 C 
ATOM      2  C   UNL     1      -0.541  -6.841   1.145  0.00  0.00    +0.251 C 
ATOM      3  O   UNL     1      -0.759  -6.676   2.326  0.00  0.00    -0.272 OA
ATOM      4  N   UNL     1       0.475  -7.533   0.593  0.00  0.00    -0.215 N 
ATOM      5  C   UNL     1       0.417  -7.515  -0.743  0.00  0.00    +0.310 C 
ATOM      6  O   UNL     1       1.224  -8.070  -1.462  0.00  0.00    -0.252 OA
ATOM      7  N   UNL     1      -0.636  -6.814  -1.202  0.00  0.00    -0.281 N 
ATOM      8  C   UNL     1      -2.781  -6.867   0.020  0.00  0.00    +0.047 C 
ATOM      9  H   UNL     1      -0.875  -6.669  -2.131  0.00  0.00    +0.152 HD
ENDROOT
BRANCH   1  13
ATOM     10  C   UNL     1      -1.413  -2.041   0.005  0.00  0.00    -0.047 A 
ATOM     11  C   UNL     1      -1.409  -2.725  -1.196  0.00  0.00    +0.004 A 
ATOM     12  C   UNL     1      -1.391  -4.107  -1.204  0.00  0.00    +0.006 A 
ATOM     13  C   UNL     1      -1.375  -4.805  -0.011  0.00  0.00    -0.015 A 
ATOM     14  C   UNL     1      -1.378  -4.120   1.190  0.00  0.00    +0.006 A 
ATOM     15  C   UNL     1      -1.392  -2.738   1.198  0.00  0.00    +0.004 A 
BRANCH  10  16
ATOM     16  C   UNL     1      -1.433  -0.534   0.013  0.00  0.00    +0.035 C 
BRANCH  16  18
ATOM     17  C   UNL     1      -0.019   1.526   0.010  0.00  0.00    +0.004 C 
ATOM     18  C   UNL     1       0.002  -0.004   0.002  0.00  0.00    +0.001 C 
ENDBRANCH  16  18
ENDBRANCH  10  16
ENDBRANCH   1  13
BRANCH   4  19
ATOM     19  C   UNL     1       1.516  -8.220   1.362  0.00  0.00    +0.213 C 
BRANCH  19  20
ATOM     20  C   UNL     1       1.081  -9.634   1.645  0.00  0.00    +0.231 C 
ATOM     21  O   UNL     1       0.006 -10.030   1.244  0.00  0.00    -0.274 OA
ATOM     22  N   UNL     1       1.885 -10.460   2.344  0.00  0.00    -0.311 N 
ATOM     23  H   UNL     1       2.744 -10.144   2.665  0.00  0.00    +0.149 HD
BRANCH  22  24
ATOM     24  C   UNL     1       1.461 -11.835   2.620  0.00  0.00    +0.073 C 
ATOM     25  C   UNL     1       1.823 -12.728   1.431  0.00  0.00    +0.022 C 
ATOM     26  C   UNL     1       1.381 -14.164   1.718  0.00  0.00    +0.002 C 
ATOM     27  C   UNL     1       2.090 -14.675   2.974  0.00  0.00    +0.000 C 
ATOM     28  C   UNL     1       1.728 -13.782   4.163  0.00  0.00    +0.002 C 
ATOM     29  C   UNL     1       2.171 -12.346   3.875  0.00  0.00    +0.022 C 
ENDBRANCH  22  24
ENDBRANCH  19  20
ENDBRANCH   4  19
TORSDOF 6
