REMARK  Name = ZINC63187661
REMARK  5 active torsions:
REMARK  status: ('A' for Active; 'I' for Inactive)
REMARK    1  A    between atoms: C_1  and  C_2
REMARK    2  A    between atoms: C_12  and  S_14
REMARK    3  A    between atoms: S_14  and  C_15
REMARK    4  A    between atoms: C_18  and  C_23
REMARK    5  A    between atoms: N_19  and  C_20
REMARK                            x       y       z     vdW  Elec       q    Type
REMARK                         _______ _______ _______ _____ _____    ______ ____
ROOT
ATOM      1  C   UNL     1      -1.113  -1.013   3.902  0.00  0.00    +0.193 A 
ATOM      2  N   UNL     1      -0.151  -1.881   4.177  0.00  0.00    -0.122 NA
ATOM      3  N   UNL     1      -0.457  -2.564   5.222  0.00  0.00    -0.129 NA
ATOM      4  C   UNL     1      -1.637  -2.175   5.681  0.00  0.00    +0.163 A 
ATOM      5  N   UNL     1      -2.082  -1.165   4.846  0.00  0.00    -0.299 N 
ENDROOT
BRANCH   4   6
ATOM      6  C   UNL     1      -2.306  -2.685   6.805  0.00  0.00    +0.025 C 
ATOM      7  C   UNL     1      -1.867  -3.694   7.662  0.00  0.00    +0.006 A 
ATOM      8  C   UNL     1      -0.694  -4.479   7.688  0.00  0.00    +0.010 A 
ATOM      9  C   UNL     1      -0.527  -5.409   8.663  0.00  0.00    +0.001 A 
ATOM     10  C   UNL     1      -1.493  -5.613   9.651  0.00  0.00    +0.002 A 
ATOM     11  C   UNL     1      -2.643  -4.896   9.687  0.00  0.00    +0.026 A 
ATOM     12  C   UNL     1      -2.887  -3.905   8.701  0.00  0.00    +0.043 A 
ATOM     13  N   UNL     1      -3.906  -3.089   8.520  0.00  0.00    -0.380 N 
ATOM     14  C   UNL     1      -3.652  -2.252   7.343  0.00  0.00    +0.152 C 
ATOM     15  H   UNL     1      -4.697  -3.045   9.079  0.00  0.00    +0.160 HD
ENDBRANCH   4   6
BRANCH   5  16
ATOM     16  C   UNL     1      -3.337  -0.417   4.954  0.00  0.00    +0.091 C 
ATOM     17  C   UNL     1      -3.803   0.361   3.722  0.00  0.00    +0.027 C 
ATOM     18  C   UNL     1      -3.253   1.110   4.937  0.00  0.00    +0.027 C 
ENDBRANCH   5  16
BRANCH   1  19
ATOM     19  S   UNL     1      -1.132   0.134   2.564  0.00  0.00    -0.069 S 
BRANCH  19  31
ATOM     20  C   UNL     1       0.551   2.330   0.895  0.00  0.00    +0.041 C 
ATOM     21  C   UNL     1       0.564   0.854   0.594  0.00  0.00    -0.042 C 
ATOM     22  C   UNL     1       0.702   0.391  -0.681  0.00  0.00    -0.003 A 
ATOM     23  C   UNL     1       0.843   1.317  -1.805  0.00  0.00    +0.010 A 
ATOM     24  C   UNL     1       0.978   0.810  -3.058  0.00  0.00    +0.001 A 
ATOM     25  C   UNL     1       0.985  -0.565  -3.288  0.00  0.00    +0.002 A 
ATOM     26  C   UNL     1       0.857  -1.477  -2.288  0.00  0.00    +0.024 A 
ATOM     27  C   UNL     1       0.713  -1.057  -0.953  0.00  0.00    +0.041 A 
ATOM     28  N   UNL     1       0.589  -1.960   0.019  0.00  0.00    -0.284 N 
ATOM     29  C   UNL     1       0.449  -1.634   1.293  0.00  0.00    +0.235 C 
ATOM     30  O   UNL     1       0.341  -2.504   2.137  0.00  0.00    -0.274 OA
ATOM     31  C   UNL     1       0.431  -0.177   1.698  0.00  0.00    +0.166 C 
ATOM     32  H   UNL     1       0.603  -2.900  -0.219  0.00  0.00    +0.155 HD
ENDBRANCH  19  31
ENDBRANCH   1  19
TORSDOF 4
