REMARK  Name = ZINC30566871
REMARK  9 active torsions:
REMARK  status: ('A' for Active; 'I' for Inactive)
REMARK    1  A    between atoms: C_1  and  N_2
REMARK    2  A    between atoms: N_2  and  C_3
REMARK    3  A    between atoms: N_2  and  C_4
REMARK    4  A    between atoms: C_4  and  C_11
REMARK    5  A    between atoms: C_11  and  N_12
REMARK    6  A    between atoms: C_13  and  C_15
REMARK    7  A    between atoms: C_18  and  S_20
REMARK    8  A    between atoms: S_20  and  N_23
REMARK    9  A    between atoms: N_23  and  C_24
REMARK                            x       y       z     vdW  Elec       q    Type
REMARK                         _______ _______ _______ _____ _____    ______ ____
ROOT
ATOM      1  N   UNL     1      -6.201   0.023  -4.436  0.00  0.00    -0.310 N 
ATOM      2  C   UNL     1      -5.508   0.402  -5.528  0.00  0.00    +0.279 C 
ATOM      3  O   UNL     1      -4.868  -0.419  -6.158  0.00  0.00    -0.267 OA
ATOM      4  H   UNL     1      -6.780   0.765  -3.866  0.00  0.00    +0.149 HD
ENDROOT
BRANCH   2   5
ATOM      5  C   UNL     1      -5.525   1.804  -5.957  0.00  0.00    +0.192 A 
ATOM      6  C   UNL     1      -4.871   2.321  -7.039  0.00  0.00    +0.057 A 
ATOM      7  C   UNL     1      -5.165   3.693  -7.071  0.00  0.00    +0.072 A 
ATOM      8  C   UNL     1      -5.975   3.951  -6.020  0.00  0.00    +0.258 A 
ATOM      9  O   UNL     1      -6.186   2.812  -5.348  0.00  0.00    -0.432 OA
BRANCH   8  10
ATOM     10  S   UNL     1      -6.640   5.528  -5.600  0.00  0.00    +0.092 S 
ATOM     11  O   UNL     1      -5.771   6.499  -6.166  0.00  0.00    -0.150 OA
ATOM     12  O   UNL     1      -6.935   5.487  -4.210  0.00  0.00    -0.150 OA
BRANCH  10  13
ATOM     13  N   UNL     1      -8.089   5.674  -6.387  0.00  0.00    -0.184 NA
ATOM     14  H   UNL     1      -8.159   6.328  -7.269  0.00  0.00    +0.148 HD
BRANCH  13  15
ATOM     15  C   UNL     1      -9.200   4.780  -6.050  0.00  0.00    +0.077 C 
ATOM     16  C   UNL     1     -10.149   4.374  -7.179  0.00  0.00    +0.022 C 
ATOM     17  C   UNL     1     -10.615   5.359  -6.105  0.00  0.00    +0.022 C 
ENDBRANCH  13  15
ENDBRANCH  10  13
ENDBRANCH   8  10
ENDBRANCH   2   5
BRANCH   1  18
ATOM     18  C   UNL     1      -6.184  -1.378  -4.008  0.00  0.00    +0.092 C 
BRANCH  18  19
ATOM     19  C   UNL     1      -6.932  -1.514  -2.680  0.00  0.00    -0.050 C 
ATOM     20  C   UNL     1      -6.231  -2.519  -1.806  0.00  0.00    -0.010 C 
ATOM     21  C   UNL     1      -5.426  -3.550  -2.624  0.00  0.00    -0.001 C 
ATOM     22  C   UNL     1      -6.174  -4.035  -3.881  0.00  0.00    -0.000 C 
ATOM     23  C   UNL     1      -7.634  -4.289  -3.620  0.00  0.00    -0.000 C 
ATOM     24  C   UNL     1      -8.427  -3.018  -3.988  0.00  0.00    -0.001 C 
ATOM     25  C   UNL     1      -8.370  -2.007  -2.943  0.00  0.00    -0.010 C 
BRANCH  19  27
ATOM     26  C   UNL     1      -7.772  -0.286  -0.770  0.00  0.00    -0.096 C 
ATOM     27  N   UNL     1      -6.973  -0.213  -2.000  0.00  0.00    +0.381 N 
ATOM     28  C   UNL     1      -5.617   0.277  -1.719  0.00  0.00    -0.096 C 
ATOM     29  H   UNL     1      -7.458   0.506  -2.677  0.00  0.00    -0.082 HD
ENDBRANCH  19  27
ENDBRANCH  18  19
ENDBRANCH   1  18
TORSDOF 7
