REMARK  Name = ZINC01500236
REMARK  4 active torsions:
REMARK  status: ('A' for Active; 'I' for Inactive)
REMARK    1  A    between atoms: C_4  and  C_7
REMARK    2  A    between atoms: C_12  and  C_13
REMARK    3  A    between atoms: C_13  and  N_14
REMARK    4  A    between atoms: N_17  and  C_20
REMARK                            x       y       z     vdW  Elec       q    Type
REMARK                         _______ _______ _______ _____ _____    ______ ____
ROOT
ATOM      1  N   UNL     1       0.387  -4.129   0.042  0.00  0.00    -0.279 N 
ATOM      2  C   UNL     1       1.845  -4.280  -0.078  0.00  0.00    +0.129 C 
ATOM      3  C   UNL     1       2.362  -2.830  -0.145  0.00  0.00    +0.134 C 
ATOM      4  N   UNL     1       1.142  -2.015  -0.046  0.00  0.00    -0.254 N 
ATOM      5  C   UNL     1       0.079  -2.825   0.053  0.00  0.00    +0.309 C 
ATOM      6  O   UNL     1      -1.062  -2.414   0.144  0.00  0.00    -0.252 OA
ENDROOT
BRANCH   4   7
ATOM      7  C   UNL     1       1.097  -0.615  -0.059  0.00  0.00    +0.041 A 
ATOM      8  C   UNL     1       2.276   0.118  -0.044  0.00  0.00    +0.027 A 
ATOM      9  C   UNL     1       2.234   1.499  -0.056  0.00  0.00    +0.051 A 
ATOM     10  C   UNL     1       1.014   2.156  -0.083  0.00  0.00    +0.166 A 
ATOM     11  C   UNL     1      -0.170   1.424  -0.098  0.00  0.00    +0.168 A 
ATOM     12  C   UNL     1      -0.127   0.040  -0.085  0.00  0.00    +0.073 A 
ATOM     13  O   UNL     1      -1.221   2.295  -0.129  0.00  0.00    -0.453 OA
ATOM     14  C   UNL     1      -0.679   3.564   0.289  0.00  0.00    +0.466 C 
ATOM     15  O   UNL     1       0.705   3.487  -0.099  0.00  0.00    -0.453 OA
ENDBRANCH   4   7
BRANCH   1  16
ATOM     16  C   UNL     1      -0.576  -5.229   0.136  0.00  0.00    +0.145 C 
BRANCH  16  22
ATOM     17  C   UNL     1      -1.925  -6.667  -1.422  0.00  0.00    -0.013 A 
ATOM     18  C   UNL     1      -2.256  -7.096  -2.705  0.00  0.00    +0.009 A 
ATOM     19  C   UNL     1      -1.604  -6.562  -3.798  0.00  0.00    +0.001 A 
ATOM     20  C   UNL     1      -0.625  -5.601  -3.621  0.00  0.00    +0.000 A 
ATOM     21  C   UNL     1      -0.297  -5.167  -2.350  0.00  0.00    +0.006 A 
ATOM     22  C   UNL     1      -0.938  -5.699  -1.249  0.00  0.00    -0.022 A 
BRANCH  17  26
ATOM     23  C   UNL     1      -3.922  -8.306   1.956  0.00  0.00    +0.000 A 
ATOM     24  C   UNL     1      -4.654  -7.711   0.945  0.00  0.00    +0.001 A 
ATOM     25  C   UNL     1      -4.011  -7.177  -0.154  0.00  0.00    +0.008 A 
ATOM     26  C   UNL     1      -2.622  -7.238  -0.243  0.00  0.00    -0.018 A 
ATOM     27  C   UNL     1      -1.890  -7.843   0.777  0.00  0.00    +0.008 A 
ATOM     28  C   UNL     1      -2.543  -8.368   1.874  0.00  0.00    +0.001 A 
ENDBRANCH  17  26
ENDBRANCH  16  22
ENDBRANCH   1  16
TORSDOF 4
