REMARK  Name = ZINC03625072
REMARK  11 active torsions:
REMARK  status: ('A' for Active; 'I' for Inactive)
REMARK    1  A    between atoms: C_1  and  C_2
REMARK    2  A    between atoms: C_3  and  C_31
REMARK    3  A    between atoms: C_4  and  C_22
REMARK    4  A    between atoms: C_10  and  C_15
REMARK    5  A    between atoms: C_31  and  O_33
REMARK    6  A    between atoms: O_33  and  C_34
REMARK    7  A    between atoms: C_34  and  C_35
REMARK    8  A    between atoms: C_35  and  O_36
REMARK    9  A    between atoms: O_36  and  C_37
REMARK   10  A    between atoms: C_37  and  C_38
REMARK   11  A    between atoms: C_37  and  C_39
REMARK                            x       y       z     vdW  Elec       q    Type
REMARK                         _______ _______ _______ _____ _____    ______ ____
ROOT
ATOM      1  C   UNL     1       0.893   0.218   4.768  0.00  0.00    +0.061 C 
ATOM      2  C   UNL     1      -0.287   1.156   4.749  0.00  0.00    +0.016 C 
ATOM      3  C   UNL     1      -0.673   1.720   3.592  0.00  0.00    +0.065 C 
ATOM      4  C   UNL     1      -1.834   2.669   3.537  0.00  0.00    +0.092 C 
ATOM      5  C   UNL     1      -2.702   2.529   4.765  0.00  0.00    +0.024 C 
ATOM      6  C   UNL     1      -2.228   1.933   5.879  0.00  0.00    +0.016 C 
ATOM      7  N   UNL     1      -0.956   1.427   5.909  0.00  0.00    -0.321 N 
ATOM      8  C   UNL     1      -3.081   1.812   7.118  0.00  0.00    +0.059 C 
ATOM      9  C   UNL     1      -4.553   1.694   6.718  0.00  0.00    +0.033 C 
ATOM     10  C   UNL     1      -4.935   2.931   5.898  0.00  0.00    +0.088 C 
ATOM     11  C   UNL     1      -4.012   3.039   4.715  0.00  0.00    +0.162 C 
ATOM     12  O   UNL     1      -4.404   3.577   3.699  0.00  0.00    -0.292 OA
ATOM     13  H   UNL     1      -0.474   1.239   6.880  0.00  0.00    +0.152 HD
ENDROOT
BRANCH   4  14
ATOM     14  C   UNL     1      -1.316   4.081   3.449  0.00  0.00    -0.032 A 
ATOM     15  C   UNL     1      -0.512   4.585   4.455  0.00  0.00    +0.008 A 
ATOM     16  C   UNL     1      -0.035   5.880   4.380  0.00  0.00    +0.050 A 
ATOM     17  C   UNL     1      -0.360   6.676   3.294  0.00  0.00    +0.166 A 
ATOM     18  C   UNL     1      -1.169   6.168   2.280  0.00  0.00    +0.167 A 
ATOM     19  C   UNL     1      -1.639   4.868   2.360  0.00  0.00    +0.054 A 
ATOM     20  O   UNL     1      -1.341   7.137   1.333  0.00  0.00    -0.453 OA
ATOM     21  C   UNL     1      -0.299   8.101   1.575  0.00  0.00    +0.466 C 
ATOM     22  O   UNL     1      -0.025   7.962   2.982  0.00  0.00    -0.453 OA
ENDBRANCH   4  14
BRANCH   9  23
ATOM     23  C   UNL     1      -5.410   1.623   7.956  0.00  0.00    -0.025 A 
ATOM     24  C   UNL     1      -5.381   2.654   8.877  0.00  0.00    +0.005 A 
ATOM     25  C   UNL     1      -6.167   2.589  10.012  0.00  0.00    +0.000 A 
ATOM     26  C   UNL     1      -6.982   1.494  10.227  0.00  0.00    +0.001 A 
ATOM     27  C   UNL     1      -7.012   0.463   9.308  0.00  0.00    +0.020 A 
ATOM     28  C   UNL     1      -6.230   0.529   8.168  0.00  0.00    +0.044 A 
ATOM     29 CL   UNL     1      -6.273  -0.762   7.008  0.00  0.00    -0.083 Cl
ENDBRANCH   9  23
BRANCH   3  30
ATOM     30  C   UNL     1       0.032   1.417   2.403  0.00  0.00    +0.338 C 
ATOM     31  O   UNL     1      -0.464   0.678   1.573  0.00  0.00    -0.245 OA
BRANCH  30  32
ATOM     32  O   UNL     1       1.254   1.949   2.190  0.00  0.00    -0.459 OA
BRANCH  32  33
ATOM     33  C   UNL     1       1.908   1.600   0.968  0.00  0.00    +0.260 C 
BRANCH  33  34
ATOM     34  C   UNL     1       3.271   2.293   0.905  0.00  0.00    +0.201 C 
BRANCH  34  35
ATOM     35  O   UNL     1       4.112   1.785   1.942  0.00  0.00    -0.374 OA
BRANCH  35  36
ATOM     36  C   UNL     1       5.416   2.369   1.972  0.00  0.00    +0.112 C 
ATOM     37  C   UNL     1       5.402   3.604   2.874  0.00  0.00    +0.037 C 
ATOM     38  C   UNL     1       6.419   1.350   2.518  0.00  0.00    +0.037 C 
ENDBRANCH  35  36
ENDBRANCH  34  35
ENDBRANCH  33  34
ENDBRANCH  32  33
ENDBRANCH  30  32
ENDBRANCH   3  30
TORSDOF 8
