REMARK  Name = ZINC40286191
REMARK  7 active torsions:
REMARK  status: ('A' for Active; 'I' for Inactive)
REMARK    1  A    between atoms: C_1  and  O_2
REMARK    2  A    between atoms: O_2  and  C_3
REMARK    3  A    between atoms: C_6  and  C_13
REMARK    4  A    between atoms: C_7  and  O_11
REMARK    5  A    between atoms: C_8  and  O_9
REMARK    6  A    between atoms: O_9  and  C_10
REMARK    7  A    between atoms: O_11  and  C_12
REMARK                            x       y       z     vdW  Elec       q    Type
REMARK                         _______ _______ _______ _____ _____    ______ ____
ROOT
ATOM      1  C   UNL     1       2.494  -2.460  -4.365  0.00  0.00    +0.025 C 
ATOM      2  C   UNL     1       3.466  -1.784  -5.065  0.00  0.00    +0.047 C 
ATOM      3  C   UNL     1       4.153  -2.220  -6.303  0.00  0.00    +0.008 A 
ATOM      4  C   UNL     1       4.053  -3.356  -7.098  0.00  0.00    +0.012 A 
ATOM      5  C   UNL     1       4.847  -3.479  -8.220  0.00  0.00    +0.021 A 
ATOM      6  C   UNL     1       5.741  -2.473  -8.552  0.00  0.00    +0.043 A 
ATOM      7  C   UNL     1       5.848  -1.341  -7.768  0.00  0.00    +0.044 A 
ATOM      8  C   UNL     1       5.054  -1.200  -6.634  0.00  0.00    +0.043 A 
ATOM      9  N   UNL     1       4.963  -0.184  -5.691  0.00  0.00    -0.281 N 
ATOM     10  C   UNL     1       4.045  -0.469  -4.751  0.00  0.00    +0.249 C 
ATOM     11  O   UNL     1       3.748   0.237  -3.804  0.00  0.00    -0.270 OA
ATOM     12 CL   UNL     1       6.736  -2.638  -9.965  0.00  0.00    -0.083 Cl
ATOM     13  H   UNL     1       5.492   0.629  -5.710  0.00  0.00    +0.155 HD
ENDROOT
BRANCH   1  17
ATOM     14  C   UNL     1       0.486  -0.548  -1.160  0.00  0.00    +0.165 A 
ATOM     15  C   UNL     1       0.759   0.150  -2.333  0.00  0.00    +0.050 A 
ATOM     16  C   UNL     1       1.405  -0.462  -3.368  0.00  0.00    +0.015 A 
ATOM     17  C   UNL     1       1.801  -1.803  -3.256  0.00  0.00    +0.021 A 
ATOM     18  C   UNL     1       1.528  -2.514  -2.073  0.00  0.00    +0.172 A 
ATOM     19  C   UNL     1       0.875  -1.877  -1.027  0.00  0.00    +0.204 A 
BRANCH  14  21
ATOM     20  C   UNL     1      -0.529   1.438  -0.340  0.00  0.00    +0.277 C 
ATOM     21  O   UNL     1      -0.158   0.073  -0.138  0.00  0.00    -0.491 OA
ENDBRANCH  14  21
BRANCH  19  22
ATOM     22  O   UNL     1       0.612  -2.553   0.124  0.00  0.00    -0.488 OA
ATOM     23  C   UNL     1      -0.633  -3.250   0.196  0.00  0.00    +0.277 C 
ENDBRANCH  19  22
BRANCH  18  24
ATOM     24  O   UNL     1       1.906  -3.812  -1.953  0.00  0.00    -0.491 OA
ATOM     25  C   UNL     1       3.206  -4.062  -1.415  0.00  0.00    +0.277 C 
ENDBRANCH  18  24
ENDBRANCH   1  17
TORSDOF 4
