REMARK  Name = ZINC24717128
REMARK  4 active torsions:
REMARK  status: ('A' for Active; 'I' for Inactive)
REMARK    1  A    between atoms: C_1  and  C_2
REMARK    2  A    between atoms: C_2  and  C_3
REMARK    3  A    between atoms: C_12  and  O_14
REMARK    4  A    between atoms: O_14  and  C_15
REMARK                            x       y       z     vdW  Elec       q    Type
REMARK                         _______ _______ _______ _____ _____    ______ ____
ROOT
ATOM      1  C   UNL     1       2.445   1.043  -0.049  0.00  0.00    -0.030 A 
ATOM      2  C   UNL     1       3.583   1.774   0.076  0.00  0.00    +0.096 A 
ATOM      3  C   UNL     1       3.505   3.174   0.223  0.00  0.00    +0.337 A 
ATOM      4  O   UNL     1       4.533   3.818   0.334  0.00  0.00    -0.245 OA
ATOM      5  O   UNL     1       2.326   3.816   0.242  0.00  0.00    -0.422 OA
ATOM      6  C   UNL     1       1.158   3.149   0.123  0.00  0.00    +0.143 A 
ATOM      7  C   UNL     1       1.163   1.749  -0.026  0.00  0.00    +0.021 A 
ATOM      8  C   UNL     1      -0.045   1.054  -0.150  0.00  0.00    +0.015 A 
ATOM      9  C   UNL     1      -1.226   1.738  -0.131  0.00  0.00    +0.047 A 
ATOM     10  C   UNL     1      -1.238   3.123   0.021  0.00  0.00    +0.134 A 
ATOM     11  C   UNL     1      -0.051   3.827   0.145  0.00  0.00    +0.093 A 
ENDROOT
BRANCH   1  13
ATOM     12  C   UNL     1       2.453  -0.814  -1.692  0.00  0.00    +0.009 C 
ATOM     13  C   UNL     1       2.501  -0.455  -0.205  0.00  0.00    +0.033 C 
ENDBRANCH   1  13
BRANCH  10  14
ATOM     14  O   UNL     1      -2.421   3.788   0.042  0.00  0.00    -0.437 OA
BRANCH  14  15
ATOM     15  C   UNL     1      -3.212   3.643   1.133  0.00  0.00    +0.238 A 
ATOM     16  C   UNL     1      -4.479   4.194   1.167  0.00  0.00    +0.099 A 
ATOM     17  C   UNL     1      -5.309   4.048   2.301  0.00  0.00    +0.085 A 
ATOM     18  C   UNL     1      -6.572   4.657   2.204  0.00  0.00    +0.036 A 
ATOM     19  C   UNL     1      -6.919   5.323   1.086  0.00  0.00    +0.048 A 
ATOM     20  S   UNL     1      -5.474   5.149   0.053  0.00  0.00    -0.090 S 
ATOM     21  N   UNL     1      -4.777   3.340   3.327  0.00  0.00    -0.235 NA
ATOM     22  C   UNL     1      -3.574   2.835   3.254  0.00  0.00    +0.225 A 
ATOM     23  N   UNL     1      -2.790   2.963   2.197  0.00  0.00    -0.200 NA
ENDBRANCH  14  15
ENDBRANCH  10  14
TORSDOF 3
