REMARK  Name = ZINC14671062
REMARK  7 active torsions:
REMARK  status: ('A' for Active; 'I' for Inactive)
REMARK    1  A    between atoms: C_4  and  C_7
REMARK    2  A    between atoms: C_7  and  N_8
REMARK    3  A    between atoms: C_9  and  N_35
REMARK    4  A    between atoms: C_10  and  N_17
REMARK    5  A    between atoms: N_17  and  C_18
REMARK    6  A    between atoms: C_18  and  C_19
REMARK    7  A    between atoms: C_25  and  C_27
REMARK                            x       y       z     vdW  Elec       q    Type
REMARK                         _______ _______ _______ _____ _____    ______ ____
ROOT
ATOM      1  N   UNL     1      -1.337   5.340   1.608  0.00  0.00    -0.276 N 
ATOM      2  C   UNL     1      -1.580   4.143   0.976  0.00  0.00    +0.128 A 
ATOM      3  C   UNL     1      -0.712   3.088   1.174  0.00  0.00    +0.140 A 
ATOM      4  C   UNL     1       0.395   3.270   2.024  0.00  0.00    +0.277 A 
ATOM      5  O   UNL     1       1.175   2.354   2.220  0.00  0.00    -0.266 OA
ATOM      6  N   UNL     1       0.590   4.466   2.614  0.00  0.00    -0.273 N 
ATOM      7  H   UNL     1       1.381   4.598   3.212  0.00  0.00    +0.173 HD
ATOM      8  C   UNL     1      -0.266   5.482   2.410  0.00  0.00    +0.331 A 
ATOM      9  O   UNL     1      -0.069   6.549   2.959  0.00  0.00    -0.246 OA
ENDROOT
BRANCH   3  10
ATOM     10  N   UNL     1      -0.934   1.848   0.540  0.00  0.00    -0.260 N 
ATOM     11  C   UNL     1      -0.125   1.449  -0.464  0.00  0.00    +0.225 C 
ATOM     12  O   UNL     1      -0.370   0.427  -1.070  0.00  0.00    -0.275 OA
BRANCH  11  13
ATOM     13  C   UNL     1       1.078   2.276  -0.836  0.00  0.00    +0.098 C 
ATOM     14  C   UNL     1       0.725   3.209  -2.007  0.00  0.00    +0.037 C 
ATOM     15  C   UNL     1       2.017   3.821  -2.601  0.00  0.00    +0.166 C 
ATOM     16  S   UNL     1       3.280   2.536  -2.232  0.00  0.00    -0.030 S 
ATOM     17  O   UNL     1       4.256   3.085  -1.357  0.00  0.00    -0.174 OA
ATOM     18  O   UNL     1       3.693   1.930  -3.449  0.00  0.00    -0.174 OA
ATOM     19  C   UNL     1       2.236   1.343  -1.292  0.00  0.00    +0.178 C 
ENDBRANCH  11  13
BRANCH  10  20
ATOM     20  C   UNL     1      -2.042   0.992   0.972  0.00  0.00    +0.149 C 
BRANCH  20  21
ATOM     21  C   UNL     1      -1.575   0.087   2.082  0.00  0.00    -0.030 A 
ATOM     22  C   UNL     1      -1.032  -1.149   1.784  0.00  0.00    +0.005 A 
ATOM     23  C   UNL     1      -0.599  -1.977   2.803  0.00  0.00    +0.000 A 
ATOM     24  C   UNL     1      -0.717  -1.574   4.120  0.00  0.00    +0.000 A 
ATOM     25  C   UNL     1      -1.265  -0.340   4.418  0.00  0.00    +0.000 A 
ATOM     26  C   UNL     1      -1.694   0.490   3.399  0.00  0.00    +0.005 A 
ENDBRANCH  20  21
ENDBRANCH  10  20
ENDBRANCH   3  10
BRANCH   2  27
ATOM     27  N   UNL     1      -2.674   3.998   0.157  0.00  0.00    -0.343 N 
ATOM     28  H   UNL     1      -2.894   3.127  -0.210  0.00  0.00    +0.144 HD
ATOM     29  H   UNL     1      -3.227   4.767  -0.054  0.00  0.00    +0.144 HD
ENDBRANCH   2  27
BRANCH   1  30
ATOM     30  C   UNL     1      -2.251   6.468   1.407  0.00  0.00    +0.163 C 
BRANCH  30  34
ATOM     31  C   UNL     1      -5.335   6.347   4.360  0.00  0.00    +0.000 A 
ATOM     32  C   UNL     1      -4.165   7.040   4.610  0.00  0.00    +0.000 A 
ATOM     33  C   UNL     1      -3.167   7.079   3.655  0.00  0.00    +0.005 A 
ATOM     34  C   UNL     1      -3.339   6.425   2.449  0.00  0.00    -0.028 A 
ATOM     35  C   UNL     1      -4.511   5.737   2.196  0.00  0.00    +0.005 A 
ATOM     36  C   UNL     1      -5.507   5.694   3.154  0.00  0.00    +0.000 A 
ENDBRANCH  30  34
ENDBRANCH   1  30
TORSDOF 7
