REMARK  Name = ZINC28161486
REMARK  9 active torsions:
REMARK  status: ('A' for Active; 'I' for Inactive)
REMARK    1  A    between atoms: C_1  and  C_2
REMARK    2  A    between atoms: C_2  and  C_3
REMARK    3  A    between atoms: C_6  and  C_9
REMARK    4  A    between atoms: C_12  and  C_34
REMARK    5  A    between atoms: C_19  and  C_22
REMARK    6  A    between atoms: C_22  and  C_23
REMARK    7  A    between atoms: N_25  and  C_26
REMARK    8  A    between atoms: C_30  and  C_33
REMARK    9  A    between atoms: C_31  and  C_32
REMARK                            x       y       z     vdW  Elec       q    Type
REMARK                         _______ _______ _______ _____ _____    ______ ____
ROOT
ATOM      1  C   UNL     1      -2.519   3.890   0.074  0.00  0.00    +0.136 C 
ATOM      2  C   UNL     1      -3.117   3.947  -1.345  0.00  0.00    +0.087 C 
ATOM      3  C   UNL     1      -4.428   3.204  -1.219  0.00  0.00    +0.075 C 
ATOM      4  N   UNL     1      -4.576   2.797  -0.002  0.00  0.00    -0.181 NA
ATOM      5  N   UNL     1      -3.523   3.140   0.844  0.00  0.00    -0.195 N 
ATOM      6  C   UNL     1      -3.438   2.831   2.170  0.00  0.00    +0.170 C 
ATOM      7  N   UNL     1      -2.464   3.131   3.020  0.00  0.00    -0.157 NA
ATOM      8  C   UNL     1      -2.460   2.795   4.281  0.00  0.00    +0.252 C 
ATOM      9  O   UNL     1      -1.547   3.089   5.029  0.00  0.00    -0.272 OA
ATOM     10  C   UNL     1      -3.677   2.009   4.752  0.00  0.00    +0.150 C 
ATOM     11  S   UNL     1      -4.615   1.934   3.172  0.00  0.00    -0.078 S 
ENDROOT
BRANCH   1  15
ATOM     12  C   UNL     1       1.214   1.813   0.050  0.00  0.00    -0.048 A 
ATOM     13  C   UNL     1       0.028   1.103   0.047  0.00  0.00    +0.004 A 
ATOM     14  C   UNL     1      -1.180   1.776   0.049  0.00  0.00    +0.006 A 
ATOM     15  C   UNL     1      -1.202   3.158   0.065  0.00  0.00    -0.025 A 
ATOM     16  C   UNL     1      -0.016   3.868   0.069  0.00  0.00    +0.006 A 
ATOM     17  C   UNL     1       1.192   3.195   0.061  0.00  0.00    +0.004 A 
BRANCH  12  19
ATOM     18  C   UNL     1       2.973   0.844  -1.404  0.00  0.00    +0.009 C 
ATOM     19  C   UNL     1       2.531   1.080   0.041  0.00  0.00    +0.032 C 
ENDBRANCH  12  19
ENDBRANCH   1  15
BRANCH   3  20
ATOM     20  C   UNL     1      -5.383   2.980  -2.309  0.00  0.00    +0.035 A 
ATOM     21  C   UNL     1      -6.597   2.316  -2.282  0.00  0.00    +0.017 A 
ATOM     22  C   UNL     1      -7.324   2.236  -3.448  0.00  0.00    +0.008 A 
ATOM     23  C   UNL     1      -6.832   2.806  -4.578  0.00  0.00    +0.046 A 
ATOM     24  S   UNL     1      -5.287   3.499  -4.014  0.00  0.00    -0.095 S 
ENDBRANCH   3  20
BRANCH  10  25
ATOM     25  C   UNL     1      -3.286   0.614   5.244  0.00  0.00    +0.120 C 
BRANCH  25  26
ATOM     26  C   UNL     1      -4.499  -0.077   5.811  0.00  0.00    +0.219 C 
ATOM     27  O   UNL     1      -5.571   0.490   5.820  0.00  0.00    -0.275 OA
ATOM     28  N   UNL     1      -4.393  -1.325   6.307  0.00  0.00    -0.285 N 
ATOM     29  H   UNL     1      -3.444  -1.874   6.216  0.00  0.00    +0.155 HD
BRANCH  28  30
ATOM     30  C   UNL     1      -5.489  -1.924   6.937  0.00  0.00    +0.037 A 
ATOM     31  C   UNL     1      -6.476  -1.134   7.514  0.00  0.00    +0.023 A 
ATOM     32  C   UNL     1      -7.557  -1.728   8.135  0.00  0.00    +0.002 A 
ATOM     33  C   UNL     1      -7.658  -3.106   8.184  0.00  0.00    +0.004 A 
ATOM     34  C   UNL     1      -6.677  -3.895   7.611  0.00  0.00    -0.046 A 
ATOM     35  C   UNL     1      -5.596  -3.307   6.983  0.00  0.00    -0.026 A 
ATOM     36  C   UNL     1      -4.531  -4.167   6.353  0.00  0.00    +0.046 C 
ATOM     37  C   UNL     1      -6.791  -5.396   7.666  0.00  0.00    +0.044 C 
ENDBRANCH  28  30
ENDBRANCH  25  26
ENDBRANCH  10  25
TORSDOF 6
