REMARK  Name = ZINC38727103
REMARK  12 active torsions:
REMARK  status: ('A' for Active; 'I' for Inactive)
REMARK    1  A    between atoms: C_1  and  C_2
REMARK    2  A    between atoms: C_2  and  N_3
REMARK    3  A    between atoms: N_3  and  C_4
REMARK    4  A    between atoms: N_3  and  C_6
REMARK    5  A    between atoms: C_4  and  C_5
REMARK    6  A    between atoms: C_6  and  C_7
REMARK    7  A    between atoms: C_7  and  C_8
REMARK    8  A    between atoms: C_8  and  N_9
REMARK    9  A    between atoms: C_10  and  C_28
REMARK   10  A    between atoms: C_18  and  O_25
REMARK   11  A    between atoms: O_25  and  C_26
REMARK   12  A    between atoms: C_26  and  C_27
REMARK                            x       y       z     vdW  Elec       q    Type
REMARK                         _______ _______ _______ _____ _____    ______ ____
ROOT
ATOM      1  N   UNL     1       2.127  -4.497  -3.857  0.00  0.00    -0.284 N 
ATOM      2  C   UNL     1       1.645  -4.630  -5.242  0.00  0.00    +0.145 C 
ATOM      3  C   UNL     1       2.811  -5.129  -6.031  0.00  0.00    +0.072 A 
ATOM      4  C   UNL     1       2.943  -5.460  -7.455  0.00  0.00    +0.199 A 
ATOM      5  O   UNL     1       2.089  -5.196  -8.283  0.00  0.00    -0.287 OA
ATOM      6  C   UNL     1       4.214  -6.146  -7.790  0.00  0.00    +0.065 A 
ATOM      7  C   UNL     1       4.404  -6.702  -9.056  0.00  0.00    +0.019 A 
ATOM      8  C   UNL     1       5.577  -7.336  -9.351  0.00  0.00    +0.046 A 
ATOM      9  C   UNL     1       6.583  -7.428  -8.390  0.00  0.00    +0.124 A 
ATOM     10  C   UNL     1       6.410  -6.881  -7.132  0.00  0.00    +0.092 A 
ATOM     11  C   UNL     1       5.223  -6.229  -6.813  0.00  0.00    +0.143 A 
ATOM     12  O   UNL     1       5.079  -5.692  -5.579  0.00  0.00    -0.449 OA
ATOM     13  C   UNL     1       3.866  -5.264  -5.176  0.00  0.00    +0.199 A 
ATOM     14  C   UNL     1       3.424  -4.864  -3.829  0.00  0.00    +0.283 C 
ATOM     15  O   UNL     1       4.125  -4.867  -2.836  0.00  0.00    -0.267 OA
ENDROOT
BRANCH   2  16
ATOM     16  C   UNL     1       0.511  -5.620  -5.305  0.00  0.00    -0.021 A 
ATOM     17  C   UNL     1       0.557  -6.774  -4.544  0.00  0.00    +0.006 A 
ATOM     18  C   UNL     1      -0.484  -7.681  -4.602  0.00  0.00    +0.001 A 
ATOM     19  C   UNL     1      -1.571  -7.436  -5.420  0.00  0.00    +0.015 A 
ATOM     20  C   UNL     1      -1.617  -6.282  -6.181  0.00  0.00    +0.018 A 
ATOM     21  C   UNL     1      -0.578  -5.371  -6.119  0.00  0.00    +0.021 A 
ATOM     22 BR   UNL     1      -3.104  -5.947  -7.301  0.00  0.00    -0.050 Br
ENDBRANCH   2  16
BRANCH   1  23
ATOM     23  C   UNL     1       1.336  -4.039  -2.711  0.00  0.00    +0.107 C 
BRANCH  23  24
ATOM     24  C   UNL     1       1.453  -2.519  -2.586  0.00  0.00    +0.000 C 
BRANCH  24  25
ATOM     25  C   UNL     1       0.628  -2.041  -1.389  0.00  0.00    -0.077 C 
BRANCH  25  26
ATOM     26  N   UNL     1       0.826  -0.598  -1.203  0.00  0.00    +0.379 N 
ATOM     27  H   UNL     1       1.813  -0.402  -1.119  0.00  0.00    -0.082 HD
BRANCH  26  29
ATOM     28  C   UNL     1       0.597   1.616  -2.224  0.00  0.00    -0.017 C 
ATOM     29  C   UNL     1       0.280   0.126  -2.359  0.00  0.00    -0.082 C 
ENDBRANCH  26  29
BRANCH  26  30
ATOM     30  C   UNL     1       0.136  -0.162   0.018  0.00  0.00    -0.082 C 
ATOM     31  C   UNL     1       0.810  -0.793   1.238  0.00  0.00    -0.017 C 
ENDBRANCH  26  30
ENDBRANCH  25  26
ENDBRANCH  24  25
ENDBRANCH  23  24
ENDBRANCH   1  23
BRANCH   9  32
ATOM     32  O   UNL     1       7.744  -8.062  -8.693  0.00  0.00    -0.492 OA
BRANCH  32  33
ATOM     33  C   UNL     1       7.862  -8.607 -10.009  0.00  0.00    +0.225 C 
ATOM     34  C   UNL     1       9.229  -9.277 -10.163  0.00  0.00    +0.048 C 
ENDBRANCH  32  33
ENDBRANCH   9  32
TORSDOF 9
