REMARK  Name = ZINC63531016
REMARK  13 active torsions:
REMARK  status: ('A' for Active; 'I' for Inactive)
REMARK    1  A    between atoms: C_1  and  C_2
REMARK    2  A    between atoms: C_2  and  N_3
REMARK    3  A    between atoms: N_3  and  C_4
REMARK    4  A    between atoms: N_3  and  C_29
REMARK    5  A    between atoms: C_4  and  C_5
REMARK    6  A    between atoms: C_5  and  C_6
REMARK    7  A    between atoms: C_6  and  N_7
REMARK    8  A    between atoms: C_8  and  C_10
REMARK    9  A    between atoms: C_12  and  S_22
REMARK   10  A    between atoms: C_16  and  O_20
REMARK   11  A    between atoms: O_20  and  C_21
REMARK   12  A    between atoms: S_22  and  C_23
REMARK   13  A    between atoms: C_29  and  C_30
REMARK                            x       y       z     vdW  Elec       q    Type
REMARK                         _______ _______ _______ _____ _____    ______ ____
ROOT
ATOM      1  C   UNL     1      -0.709  -3.822   4.484  0.00  0.00    +0.204 C 
ATOM      2  C   UNL     1       0.790  -3.773   4.676  0.00  0.00    +0.030 C 
ATOM      3  C   UNL     1       1.102  -4.857   5.487  0.00  0.00    +0.010 A 
ATOM      4  C   UNL     1       2.327  -5.334   6.007  0.00  0.00    +0.014 A 
ATOM      5  C   UNL     1       2.340  -6.442   6.789  0.00  0.00    +0.046 A 
ATOM      6  C   UNL     1       1.161  -7.133   7.099  0.00  0.00    +0.122 A 
ATOM      7  C   UNL     1      -0.052  -6.726   6.629  0.00  0.00    +0.071 A 
ATOM      8  C   UNL     1      -0.139  -5.579   5.808  0.00  0.00    +0.048 A 
ATOM      9  N   UNL     1      -1.177  -4.990   5.237  0.00  0.00    -0.369 N 
ATOM     10  H   UNL     1      -2.099  -5.283   5.305  0.00  0.00    +0.161 HD
ENDROOT
BRANCH   1  12
ATOM     11  N   UNL     1      -1.032  -2.906   2.209  0.00  0.00    -0.313 N 
ATOM     12  C   UNL     1      -1.040  -3.981   3.022  0.00  0.00    +0.240 C 
ATOM     13  O   UNL     1      -1.314  -5.075   2.578  0.00  0.00    -0.273 OA
ATOM     14  H   UNL     1      -0.813  -2.030   2.565  0.00  0.00    +0.149 HD
BRANCH  11  15
ATOM     15  C   UNL     1      -1.354  -3.060   0.788  0.00  0.00    +0.102 C 
BRANCH  15  16
ATOM     16  C   UNL     1      -1.273  -1.697   0.096  0.00  0.00    +0.000 C 
BRANCH  16  17
ATOM     17  C   UNL     1      -1.609  -1.858  -1.388  0.00  0.00    -0.077 C 
BRANCH  17  18
ATOM     18  N   UNL     1      -1.531  -0.550  -2.052  0.00  0.00    +0.382 N 
ATOM     19  H   UNL     1      -2.129   0.106  -1.573  0.00  0.00    -0.081 HD
BRANCH  18  21
ATOM     20  C   UNL     1      -0.085   1.351  -2.592  0.00  0.00    -0.017 C 
ATOM     21  C   UNL     1      -0.145  -0.066  -2.018  0.00  0.00    -0.082 C 
ENDBRANCH  18  21
BRANCH  18  22
ATOM     22  C   UNL     1      -1.969  -0.683  -3.448  0.00  0.00    -0.043 C 
BRANCH  22  23
ATOM     23  C   UNL     1      -3.433  -1.037  -3.483  0.00  0.00    -0.064 A 
ATOM     24  C   UNL     1      -3.822  -2.359  -3.590  0.00  0.00    +0.002 A 
ATOM     25  C   UNL     1      -5.166  -2.684  -3.623  0.00  0.00    +0.000 A 
ATOM     26  C   UNL     1      -6.120  -1.687  -3.548  0.00  0.00    +0.000 A 
ATOM     27  C   UNL     1      -5.731  -0.365  -3.439  0.00  0.00    +0.000 A 
ATOM     28  C   UNL     1      -4.388  -0.040  -3.403  0.00  0.00    +0.002 A 
ENDBRANCH  22  23
ENDBRANCH  18  22
ENDBRANCH  17  18
ENDBRANCH  16  17
ENDBRANCH  15  16
ENDBRANCH  11  15
ENDBRANCH   1  12
BRANCH   6  29
ATOM     29  O   UNL     1       1.229  -8.237   7.886  0.00  0.00    -0.495 OA
ATOM     30  C   UNL     1       2.524  -8.622   8.352  0.00  0.00    +0.277 C 
ENDBRANCH   6  29
BRANCH   2  31
ATOM     31  S   UNL     1       1.844  -2.655   4.047  0.00  0.00    -0.091 S 
BRANCH  31  32
ATOM     32  C   UNL     1       1.454  -1.169   4.909  0.00  0.00    +0.013 A 
ATOM     33  C   UNL     1       0.537  -1.189   5.952  0.00  0.00    +0.015 A 
ATOM     34  C   UNL     1       0.234  -0.023   6.626  0.00  0.00    +0.001 A 
ATOM     35  C   UNL     1       0.842   1.165   6.263  0.00  0.00    +0.000 A 
ATOM     36  C   UNL     1       1.755   1.189   5.225  0.00  0.00    +0.001 A 
ATOM     37  C   UNL     1       2.068   0.025   4.551  0.00  0.00    +0.015 A 
ENDBRANCH  31  32
ENDBRANCH   2  31
TORSDOF 11
