REMARK  Name = ZINC36530421
REMARK  11 active torsions:
REMARK  status: ('A' for Active; 'I' for Inactive)
REMARK    1  A    between atoms: C_1  and  C_2
REMARK    2  A    between atoms: C_2  and  C_3
REMARK    3  A    between atoms: C_2  and  C_4
REMARK    4  A    between atoms: C_2  and  N_5
REMARK    5  A    between atoms: C_6  and  C_8
REMARK    6  A    between atoms: C_8  and  C_10
REMARK    7  A    between atoms: C_8  and  N_17
REMARK    8  A    between atoms: C_15  and  O_16
REMARK    9  A    between atoms: N_17  and  C_18
REMARK   10  A    between atoms: C_19  and  C_21
REMARK   11  A    between atoms: C_22  and  C_23
REMARK                            x       y       z     vdW  Elec       q    Type
REMARK                         _______ _______ _______ _____ _____    ______ ____
ROOT
ATOM      1  C   UNL     1       2.595  -0.609  -2.699  0.00  0.00    +0.196 C 
ENDROOT
BRANCH   1   2
ATOM      2  C   UNL     1       2.395  -2.100  -2.783  0.00  0.00    +0.023 A 
ATOM      3  C   UNL     1       2.086  -2.821  -1.645  0.00  0.00    +0.009 A 
ATOM      4  C   UNL     1       1.902  -4.189  -1.722  0.00  0.00    +0.001 A 
ATOM      5  C   UNL     1       2.028  -4.840  -2.936  0.00  0.00    +0.004 A 
ATOM      6  C   UNL     1       2.336  -4.123  -4.075  0.00  0.00    +0.046 A 
ATOM      7  C   UNL     1       2.515  -2.749  -4.003  0.00  0.00    +0.122 A 
BRANCH   7   8
ATOM      8  O   UNL     1       2.813  -2.042  -5.124  0.00  0.00    -0.506 OA
ATOM      9  H   UNL     1       3.761  -1.960  -5.297  0.00  0.00    +0.292 HD
ENDBRANCH   7   8
ENDBRANCH   1   2
BRANCH   1  11
ATOM     10  N   UNL     1       0.698  -0.263  -1.149  0.00  0.00    -0.309 N 
ATOM     11  C   UNL     1       2.010  -0.095  -1.408  0.00  0.00    +0.239 C 
ATOM     12  O   UNL     1       2.720   0.469  -0.603  0.00  0.00    -0.273 OA
ATOM     13  H   UNL     1       0.130  -0.714  -1.794  0.00  0.00    +0.149 HD
BRANCH  10  15
ATOM     14  C   UNL     1       0.333   1.750   0.190  0.00  0.00    +0.031 C 
ATOM     15  C   UNL     1       0.130   0.236   0.105  0.00  0.00    +0.026 C 
ATOM     16  C   UNL     1       0.829  -0.439   1.286  0.00  0.00    +0.031 C 
ATOM     17  C   UNL     1      -1.367  -0.081   0.149  0.00  0.00    +0.031 C 
ENDBRANCH  10  15
ENDBRANCH   1  11
BRANCH   1  18
ATOM     18  N   UNL     1       4.027  -0.305  -2.741  0.00  0.00    -0.278 N 
ATOM     19  C   UNL     1       4.939  -0.939  -1.785  0.00  0.00    +0.134 C 
ATOM     20  C   UNL     1       4.507   0.557  -3.659  0.00  0.00    +0.292 C 
ATOM     21  O   UNL     1       3.750   1.084  -4.453  0.00  0.00    -0.260 OA
BRANCH  20  22
ATOM     22  C   UNL     1       5.907   0.854  -3.700  0.00  0.00    -0.003 C 
ATOM     23  C   UNL     1       7.055   1.097  -3.733  0.00  0.00    -0.057 C 
BRANCH  23  24
ATOM     24  C   UNL     1       8.456   1.394  -3.774  0.00  0.00    +0.025 A 
ATOM     25  C   UNL     1       9.329   0.786  -2.867  0.00  0.00    +0.017 A 
ATOM     26  C   UNL     1      10.677   1.077  -2.913  0.00  0.00    +0.001 A 
ATOM     27  C   UNL     1      11.164   1.968  -3.854  0.00  0.00    +0.000 A 
ATOM     28  C   UNL     1      10.306   2.574  -4.754  0.00  0.00    +0.001 A 
ATOM     29  C   UNL     1       8.957   2.289  -4.725  0.00  0.00    +0.017 A 
ENDBRANCH  23  24
ENDBRANCH  20  22
ENDBRANCH   1  18
TORSDOF 7
