REMARK  Name = ZINC37408343
REMARK  6 active torsions:
REMARK  status: ('A' for Active; 'I' for Inactive)
REMARK    1  A    between atoms: C_4  and  N_19
REMARK    2  A    between atoms: C_6  and  C_7
REMARK    3  A    between atoms: C_7  and  N_8
REMARK    4  A    between atoms: N_8  and  C_9
REMARK    5  A    between atoms: C_9  and  C_10
REMARK    6  A    between atoms: N_14  and  C_16
REMARK                            x       y       z     vdW  Elec       q    Type
REMARK                         _______ _______ _______ _____ _____    ______ ____
ROOT
ATOM      1  N   UNL     1      -1.727  -1.018  -1.371  0.00  0.00    +0.382 N 
ATOM      2  H   UNL     1      -1.864  -0.136  -1.841  0.00  0.00    -0.085 HD
ATOM      3  H   UNL     1      -1.022  -1.551  -1.857  0.00  0.00    -0.085 HD
ENDROOT
BRANCH   1   4
ATOM      4  C   UNL     1      -1.293  -0.775   0.011  0.00  0.00    -0.047 C 
BRANCH   4  10
ATOM      5  C   UNL     1      -0.017   1.378   0.010  0.00  0.00    +0.003 A 
ATOM      6  C   UNL     1       1.171   2.086   0.002  0.00  0.00    +0.018 A 
ATOM      7  C   UNL     1       2.378   1.411  -0.013  0.00  0.00    +0.048 A 
ATOM      8  C   UNL     1       2.396   0.027  -0.021  0.00  0.00    +0.140 A 
ATOM      9  C   UNL     1       1.208  -0.679  -0.013  0.00  0.00    +0.035 A 
ATOM     10  C   UNL     1       0.002  -0.004   0.002  0.00  0.00    -0.062 A 
ATOM     11 BR   UNL     1       4.003   2.378  -0.024  0.00  0.00    -0.048 Br
BRANCH   8  12
ATOM     12  N   UNL     1       3.687  -0.696  -0.037  0.00  0.00    +0.058 N 
ATOM     13  O   UNL     1       3.703  -1.905  -0.044  0.00  0.00    -0.126 OA
ATOM     14  O   UNL     1       4.726  -0.078  -0.044  0.00  0.00    -0.126 OA
ENDBRANCH   8  12
ENDBRANCH   4  10
ENDBRANCH   1   4
BRANCH   1  15
ATOM     15  C   UNL     1      -2.989  -1.770  -1.363  0.00  0.00    -0.081 C 
BRANCH  15  16
ATOM     16  C   UNL     1      -3.442  -2.023  -2.802  0.00  0.00    -0.047 C 
ATOM     17  C   UNL     1      -2.493  -3.019  -3.507  0.00  0.00    -0.019 C 
ATOM     18  C   UNL     1      -3.413  -3.925  -4.347  0.00  0.00    -0.078 C 
ATOM     19  N   UNL     1      -4.796  -3.442  -4.149  0.00  0.00    +0.382 N 
ATOM     20  C   UNL     1      -4.805  -2.759  -2.827  0.00  0.00    -0.077 C 
ATOM     21  H   UNL     1      -5.044  -2.788  -4.876  0.00  0.00    -0.081 HD
BRANCH  19  22
ATOM     22  C   UNL     1      -5.732  -4.574  -4.141  0.00  0.00    -0.069 C 
ATOM     23  C   UNL     1      -6.723  -4.679  -5.302  0.00  0.00    -0.017 C 
ATOM     24  C   UNL     1      -7.213  -4.265  -3.913  0.00  0.00    -0.017 C 
ENDBRANCH  19  22
ENDBRANCH  15  16
ENDBRANCH   1  15
TORSDOF 6
