REMARK  Name = ZINC33519573
REMARK  8 active torsions:
REMARK  status: ('A' for Active; 'I' for Inactive)
REMARK    1  A    between atoms: C_1  and  C_2
REMARK    2  A    between atoms: C_7  and  N_30
REMARK    3  A    between atoms: C_8  and  C_13
REMARK    4  A    between atoms: N_17  and  C_21
REMARK    5  A    between atoms: C_21  and  C_23
REMARK    6  A    between atoms: C_21  and  C_24
REMARK    7  A    between atoms: N_30  and  C_31
REMARK    8  A    between atoms: C_34  and  C_37
REMARK                            x       y       z     vdW  Elec       q    Type
REMARK                         _______ _______ _______ _____ _____    ______ ____
ROOT
ATOM      1  C   UNL     1       2.408  -4.888   2.172  0.00  0.00    +0.045 C 
ATOM      2  C   UNL     1       3.401  -4.042   2.926  0.00  0.00    -0.034 A 
ATOM      3  C   UNL     1       4.205  -4.622   3.917  0.00  0.00    +0.008 A 
ATOM      4  C   UNL     1       5.101  -3.849   4.594  0.00  0.00    +0.047 A 
ATOM      5  C   UNL     1       5.207  -2.480   4.288  0.00  0.00    +0.142 A 
ATOM      6  N   UNL     1       6.085  -1.732   4.956  0.00  0.00    -0.214 NA
ATOM      7  C   UNL     1       6.226  -0.438   4.709  0.00  0.00    +0.134 A 
ATOM      8  C   UNL     1       5.428   0.173   3.714  0.00  0.00    +0.081 A 
ATOM      9  C   UNL     1       4.494  -0.629   3.016  0.00  0.00    +0.267 A 
ATOM     10  O   UNL     1       3.782  -0.144   2.154  0.00  0.00    -0.267 OA
ATOM     11  N   UNL     1       4.409  -1.943   3.317  0.00  0.00    -0.267 N 
ATOM     12  C   UNL     1       3.515  -2.724   2.646  0.00  0.00    +0.099 A 
ENDROOT
BRANCH   8  13
ATOM     13  C   UNL     1       5.555   1.552   3.428  0.00  0.00    +0.037 C 
ATOM     14  C   UNL     1       4.522   2.403   3.697  0.00  0.00    +0.077 C 
ATOM     15  C   UNL     1       3.284   2.147   4.352  0.00  0.00    +0.259 C 
ATOM     16  O   UNL     1       3.015   1.034   4.770  0.00  0.00    -0.269 OA
ATOM     17  N   UNL     1       2.434   3.148   4.491  0.00  0.00    -0.248 N 
ATOM     18  C   UNL     1       2.735   4.384   4.033  0.00  0.00    +0.121 C 
ATOM     19  S   UNL     1       1.798   5.815   4.109  0.00  0.00    -0.027 S 
ATOM     20  S   UNL     1       4.359   4.145   3.329  0.00  0.00    -0.061 S 
BRANCH  17  21
ATOM     21  C   UNL     1       1.149   2.918   5.156  0.00  0.00    +0.110 C 
ATOM     22  C   UNL     1       0.011   3.150   4.160  0.00  0.00    +0.033 C 
BRANCH  21  23
ATOM     23  C   UNL     1       1.004   3.870   6.314  0.00  0.00    -0.027 A 
ATOM     24  C   UNL     1      -0.231   4.414   6.613  0.00  0.00    +0.005 A 
ATOM     25  C   UNL     1      -0.362   5.292   7.672  0.00  0.00    +0.000 A 
ATOM     26  C   UNL     1       0.740   5.619   8.440  0.00  0.00    +0.000 A 
ATOM     27  C   UNL     1       1.975   5.074   8.142  0.00  0.00    +0.000 A 
ATOM     28  C   UNL     1       2.107   4.200   7.080  0.00  0.00    +0.005 A 
ENDBRANCH  21  23
ENDBRANCH  17  21
ENDBRANCH   8  13
BRANCH   7  29
ATOM     29  N   UNL     1       7.144   0.307   5.416  0.00  0.00    -0.326 N 
ATOM     30  H   UNL     1       7.258   1.381   5.208  0.00  0.00    +0.148 HD
BRANCH  29  31
ATOM     31  C   UNL     1       7.968  -0.331   6.446  0.00  0.00    +0.072 C 
ATOM     32  C   UNL     1       7.198  -0.366   7.767  0.00  0.00    +0.022 C 
ATOM     33  C   UNL     1       8.059  -1.032   8.842  0.00  0.00    +0.005 C 
ATOM     34  C   UNL     1       9.352  -0.235   9.027  0.00  0.00    -0.014 C 
ATOM     35  C   UNL     1      10.122  -0.200   7.705  0.00  0.00    +0.005 C 
ATOM     36  C   UNL     1       9.261   0.466   6.630  0.00  0.00    +0.022 C 
ATOM     37  C   UNL     1      10.213  -0.902  10.102  0.00  0.00    +0.007 C 
ENDBRANCH  29  31
ENDBRANCH   7  29
TORSDOF 5
