REMARK  Name = ZINC38666736
REMARK  10 active torsions:
REMARK  status: ('A' for Active; 'I' for Inactive)
REMARK    1  A    between atoms: C_1  and  N_2
REMARK    2  A    between atoms: N_2  and  C_3
REMARK    3  A    between atoms: N_2  and  C_4
REMARK    4  A    between atoms: C_7  and  C_10
REMARK    5  A    between atoms: C_10  and  C_12
REMARK    6  A    between atoms: C_10  and  N_29
REMARK    7  A    between atoms: C_12  and  N_13
REMARK    8  A    between atoms: C_14  and  C_16
REMARK    9  A    between atoms: N_18  and  C_19
REMARK   10  A    between atoms: C_23  and  N_25
REMARK                            x       y       z     vdW  Elec       q    Type
REMARK                         _______ _______ _______ _____ _____    ______ ____
ROOT
ATOM      1  C   UNL     1      -4.614  -2.324  -0.202  0.00  0.00    +0.121 C 
ENDROOT
BRANCH   1   2
ATOM      2  N   UNL     1      -5.332  -1.261  -0.910  0.00  0.00    -0.321 N 
ATOM      3  C   UNL     1      -6.410  -0.450  -0.338  0.00  0.00    +0.110 C 
ATOM      4  C   UNL     1      -6.830   0.513  -1.461  0.00  0.00    +0.056 C 
ATOM      5  C   UNL     1      -5.926   0.160  -2.621  0.00  0.00    -0.025 A 
ATOM      6  C   UNL     1      -5.084  -0.869  -2.227  0.00  0.00    +0.033 A 
ATOM      7  C   UNL     1      -4.148  -1.365  -3.136  0.00  0.00    +0.023 A 
ATOM      8  C   UNL     1      -4.063  -0.833  -4.406  0.00  0.00    +0.002 A 
ATOM      9  C   UNL     1      -4.905   0.196  -4.787  0.00  0.00    +0.000 A 
ATOM     10  C   UNL     1      -5.840   0.686  -3.895  0.00  0.00    +0.005 A 
ENDBRANCH   1   2
BRANCH   1  14
ATOM     11  C   UNL     1      -0.547  -1.149   0.386  0.00  0.00    +0.029 A 
ATOM     12  C   UNL     1      -0.844  -2.427  -0.070  0.00  0.00    +0.023 A 
ATOM     13  C   UNL     1      -2.159  -2.804  -0.258  0.00  0.00    +0.007 A 
ATOM     14  C   UNL     1      -3.180  -1.909   0.006  0.00  0.00    -0.025 A 
ATOM     15  C   UNL     1      -2.889  -0.636   0.460  0.00  0.00    +0.007 A 
ATOM     16  C   UNL     1      -1.576  -0.255   0.656  0.00  0.00    +0.023 A 
BRANCH  11  18
ATOM     17  C   UNL     1       1.093   0.582   1.065  0.00  0.00    +0.129 C 
ATOM     18  N   UNL     1       0.782  -0.765   0.578  0.00  0.00    -0.336 N 
ATOM     19  C   UNL     1       1.866  -1.709   0.293  0.00  0.00    +0.129 C 
ENDBRANCH  11  18
ENDBRANCH   1  14
BRANCH   1  20
ATOM     20  C   UNL     1      -5.276  -2.569   1.156  0.00  0.00    +0.131 C 
BRANCH  20  21
ATOM     21  N   UNL     1      -6.700  -2.854   0.961  0.00  0.00    -0.305 N 
ATOM     22  C   UNL     1      -7.489  -3.104   2.024  0.00  0.00    +0.299 C 
ATOM     23  O   UNL     1      -7.020  -3.091   3.144  0.00  0.00    -0.265 OA
ATOM     24  H   UNL     1      -7.074  -2.864   0.066  0.00  0.00    +0.149 HD
BRANCH  22  25
ATOM     25  C   UNL     1      -8.940  -3.395   1.825  0.00  0.00    +0.303 C 
ATOM     26  O   UNL     1      -9.409  -3.408   0.706  0.00  0.00    -0.265 OA
ATOM     27  N   UNL     1      -9.729  -3.644   2.889  0.00  0.00    -0.278 N 
ATOM     28  H   UNL     1      -9.374  -3.559   3.787  0.00  0.00    +0.155 HD
BRANCH  27  29
ATOM     29  C   UNL     1     -11.061  -4.025   2.697  0.00  0.00    +0.036 A 
ATOM     30  C   UNL     1     -12.033  -3.643   3.613  0.00  0.00    +0.026 A 
ATOM     31  C   UNL     1     -13.347  -4.020   3.422  0.00  0.00    +0.042 A 
ATOM     32  C   UNL     1     -13.697  -4.780   2.318  0.00  0.00    +0.154 A 
ATOM     33  C   UNL     1     -12.730  -5.163   1.404  0.00  0.00    +0.163 A 
ATOM     34  C   UNL     1     -11.415  -4.783   1.588  0.00  0.00    +0.059 A 
ATOM     35  F   UNL     1     -14.983  -5.148   2.133  0.00  0.00    -0.203 F 
BRANCH  33  36
ATOM     36  N   UNL     1     -13.106  -5.976   0.226  0.00  0.00    +0.059 N 
ATOM     37  O   UNL     1     -12.262  -6.311  -0.573  0.00  0.00    -0.126 OA
ATOM     38  O   UNL     1     -14.258  -6.305   0.061  0.00  0.00    -0.126 OA
ENDBRANCH  33  36
ENDBRANCH  27  29
ENDBRANCH  22  25
ENDBRANCH  20  21
ENDBRANCH   1  20
TORSDOF 8
