REMARK  Name = ZINC40661746
REMARK  8 active torsions:
REMARK  status: ('A' for Active; 'I' for Inactive)
REMARK    1  A    between atoms: C_1  and  C_2
REMARK    2  A    between atoms: C_2  and  N_3
REMARK    3  A    between atoms: N_3  and  C_4
REMARK    4  A    between atoms: C_8  and  C_10
REMARK    5  A    between atoms: C_12  and  N_30
REMARK    6  A    between atoms: C_13  and  N_17
REMARK    7  A    between atoms: C_20  and  C_23
REMARK    8  A    between atoms: C_23  and  C_24
REMARK                            x       y       z     vdW  Elec       q    Type
REMARK                         _______ _______ _______ _____ _____    ______ ____
ROOT
ATOM      1  N   UNL     1      -1.357  -0.497   0.019  0.00  0.00    -0.285 N 
ATOM      2  C   UNL     1      -1.921  -0.711   1.272  0.00  0.00    +0.129 A 
ATOM      3  C   UNL     1      -1.215  -0.388   2.432  0.00  0.00    +0.104 A 
ATOM      4  C   UNL     1      -1.829  -0.623   3.664  0.00  0.00    +0.147 A 
ATOM      5  N   UNL     1      -3.054  -1.142   3.685  0.00  0.00    -0.221 NA
ATOM      6  C   UNL     1      -3.686  -1.434   2.566  0.00  0.00    +0.200 A 
ATOM      7  N   UNL     1      -3.145  -1.222   1.383  0.00  0.00    -0.332 N 
ATOM      8  H   UNL     1      -3.644  -1.446   0.582  0.00  0.00    +0.168 HD
ENDROOT
BRANCH   1   9
ATOM      9  C   UNL     1      -0.692  -1.538  -0.634  0.00  0.00    +0.035 A 
ATOM     10  C   UNL     1      -0.686  -2.814  -0.085  0.00  0.00    +0.023 A 
ATOM     11  C   UNL     1      -0.029  -3.841  -0.734  0.00  0.00    +0.002 A 
ATOM     12  C   UNL     1       0.625  -3.599  -1.929  0.00  0.00    +0.003 A 
ATOM     13  C   UNL     1       0.621  -2.330  -2.478  0.00  0.00    -0.049 A 
ATOM     14  C   UNL     1      -0.039  -1.300  -1.837  0.00  0.00    +0.026 A 
ATOM     15  C   UNL     1       1.335  -2.072  -3.780  0.00  0.00    +0.044 C 
ENDBRANCH   1   9
BRANCH   4  16
ATOM     16  N   UNL     1      -1.170  -0.320   4.850  0.00  0.00    -0.314 N 
ATOM     17  C   UNL     1      -1.397   0.966   5.524  0.00  0.00    +0.107 C 
ATOM     18  C   UNL     1      -1.797   0.696   6.978  0.00  0.00    +0.023 C 
ATOM     19  C   UNL     1      -0.734  -0.183   7.641  0.00  0.00    -0.004 C 
ATOM     20  C   UNL     1      -0.647  -1.523   6.907  0.00  0.00    +0.023 C 
ATOM     21  C   UNL     1      -0.239  -1.281   5.455  0.00  0.00    +0.107 C 
BRANCH  19  22
ATOM     22  C   UNL     1      -1.113  -0.426   9.103  0.00  0.00    +0.038 C 
BRANCH  22  23
ATOM     23  C   UNL     1      -0.008  -1.187   9.789  0.00  0.00    -0.047 A 
ATOM     24  C   UNL     1      -0.019  -2.569   9.791  0.00  0.00    +0.003 A 
ATOM     25  C   UNL     1       0.995  -3.267  10.420  0.00  0.00    +0.000 A 
ATOM     26  C   UNL     1       2.021  -2.583  11.046  0.00  0.00    +0.000 A 
ATOM     27  C   UNL     1       2.032  -1.201  11.043  0.00  0.00    +0.000 A 
ATOM     28  C   UNL     1       1.020  -0.503  10.410  0.00  0.00    +0.003 A 
ENDBRANCH  22  23
ENDBRANCH  19  22
ENDBRANCH   4  16
BRANCH   3  29
ATOM     29  N   UNL     1       0.076   0.159   2.362  0.00  0.00    -0.353 N 
ATOM     30  H   UNL     1       0.519   0.248   1.504  0.00  0.00    +0.143 HD
ATOM     31  H   UNL     1       0.526   0.446   3.172  0.00  0.00    +0.143 HD
ENDBRANCH   3  29
BRANCH   1  33
ATOM     32  C   UNL     1      -2.656   0.835  -1.568  0.00  0.00    +0.025 C 
ATOM     33  C   UNL     1      -1.459   0.819  -0.615  0.00  0.00    +0.109 C 
ENDBRANCH   1  33
TORSDOF 6
