REMARK  Name = ZINC19324966
REMARK  6 active torsions:
REMARK  status: ('A' for Active; 'I' for Inactive)
REMARK    1  A    between atoms: C_1  and  C_2
REMARK    2  A    between atoms: C_2  and  C_22
REMARK    3  A    between atoms: N_3  and  C_4
REMARK    4  A    between atoms: C_9  and  C_10
REMARK    5  A    between atoms: C_10  and  N_11
REMARK    6  A    between atoms: C_10  and  N_16
REMARK                            x       y       z     vdW  Elec       q    Type
REMARK                         _______ _______ _______ _____ _____    ______ ____
ROOT
ATOM      1  C   UNL     1      -6.666   4.082   1.041  0.00  0.00    +0.067 A 
ATOM      2  C   UNL     1      -6.750   5.475   0.986  0.00  0.00    +0.029 A 
ATOM      3  C   UNL     1      -6.082   6.165  -0.003  0.00  0.00    +0.022 A 
ATOM      4  C   UNL     1      -5.336   5.479  -0.947  0.00  0.00    +0.041 A 
ATOM      5  C   UNL     1      -5.253   4.098  -0.902  0.00  0.00    +0.025 A 
ATOM      6  C   UNL     1      -5.913   3.396   0.086  0.00  0.00    -0.020 A 
ATOM      7 CL   UNL     1      -4.503   6.354  -2.193  0.00  0.00    -0.084 Cl
ENDROOT
BRANCH   1  10
ATOM      8  C   UNL     1      -9.322   4.655   1.438  0.00  0.00    +0.066 C 
ATOM      9  C   UNL     1      -8.568   3.667   2.291  0.00  0.00    +0.046 C 
ATOM     10  N   UNL     1      -7.324   3.392   2.023  0.00  0.00    -0.252 NA
BRANCH   9  11
ATOM     11  C   UNL     1      -9.239   3.014   3.427  0.00  0.00    -0.004 A 
ATOM     12  C   UNL     1      -8.582   2.014   4.151  0.00  0.00    +0.010 A 
ATOM     13  C   UNL     1      -9.218   1.403   5.210  0.00  0.00    +0.001 A 
ATOM     14  C   UNL     1     -10.500   1.784   5.565  0.00  0.00    +0.000 A 
ATOM     15  C   UNL     1     -11.155   2.776   4.857  0.00  0.00    +0.001 A 
ATOM     16  C   UNL     1     -10.534   3.393   3.792  0.00  0.00    +0.010 A 
ENDBRANCH   9  11
ENDBRANCH   1  10
BRANCH   6  17
ATOM     17  C   UNL     1      -5.821   1.893   0.134  0.00  0.00    +0.035 C 
BRANCH  17  18
ATOM     18  N   UNL     1      -6.943   1.309  -0.613  0.00  0.00    +0.393 N 
ATOM     19  C   UNL     1      -8.238   1.872  -0.153  0.00  0.00    -0.076 C 
ATOM     20  C   UNL     1      -9.192   1.579  -1.339  0.00  0.00    -0.020 C 
ATOM     21  C   UNL     1      -8.289   1.801  -2.573  0.00  0.00    -0.020 C 
ATOM     22  C   UNL     1      -6.849   1.636  -2.052  0.00  0.00    -0.076 C 
ATOM     23  H   UNL     1      -6.884   0.224  -0.442  0.00  0.00    -0.079 HD
ENDBRANCH  17  18
BRANCH  17  24
ATOM     24  N   UNL     1      -4.553   1.460  -0.469  0.00  0.00    -0.311 NA
ATOM     25  C   UNL     1      -3.394   2.061   0.239  0.00  0.00    +0.083 C 
ATOM     26  C   UNL     1      -2.219   1.129  -0.150  0.00  0.00    +0.016 C 
ATOM     27  C   UNL     1      -2.877  -0.270  -0.163  0.00  0.00    +0.016 C 
ATOM     28  C   UNL     1      -4.382  -0.004  -0.352  0.00  0.00    +0.083 C 
ENDBRANCH  17  24
ENDBRANCH   6  17
TORSDOF 5
