REMARK  Name = ZINC15775673
REMARK  7 active torsions:
REMARK  status: ('A' for Active; 'I' for Inactive)
REMARK    1  A    between atoms: C_1  and  C_2
REMARK    2  A    between atoms: C_5  and  C_7
REMARK    3  A    between atoms: C_7  and  N_8
REMARK    4  A    between atoms: C_9  and  C_11
REMARK    5  A    between atoms: C_16  and  S_24
REMARK    6  A    between atoms: C_21  and  C_23
REMARK    7  A    between atoms: S_24  and  N_27
REMARK                            x       y       z     vdW  Elec       q    Type
REMARK                         _______ _______ _______ _____ _____    ______ ____
ROOT
ATOM      1  C   UNL     1       2.815   3.777  -0.010  0.00  0.00    +0.171 C 
ATOM      2  C   UNL     1       3.512   2.407  -0.022  0.00  0.00    +0.069 C 
ATOM      3  C   UNL     1       2.381   1.404  -0.011  0.00  0.00    -0.022 A 
ATOM      4  C   UNL     1       2.395   0.022  -0.017  0.00  0.00    +0.034 A 
ATOM      5  C   UNL     1       1.207  -0.684  -0.004  0.00  0.00    +0.106 A 
ATOM      6  C   UNL     1       0.002  -0.004   0.013  0.00  0.00    +0.030 A 
ATOM      7  C   UNL     1      -0.016   1.374   0.018  0.00  0.00    +0.026 A 
ATOM      8  C   UNL     1       1.180   2.095   0.005  0.00  0.00    +0.040 A 
ATOM      9  N   UNL     1       1.381   3.478   0.007  0.00  0.00    -0.259 N 
ATOM     10  C   UNL     1       0.399   4.402   0.022  0.00  0.00    +0.217 C 
ATOM     11  O   UNL     1      -0.760   4.056  -0.060  0.00  0.00    -0.276 OA
ATOM     12  C   UNL     1       0.742   5.864   0.140  0.00  0.00    +0.109 C 
ENDROOT
BRANCH   1  14
ATOM     13  N   UNL     1       4.325   5.255  -1.297  0.00  0.00    -0.307 N 
ATOM     14  C   UNL     1       3.172   4.559  -1.248  0.00  0.00    +0.235 C 
ATOM     15  O   UNL     1       2.421   4.563  -2.200  0.00  0.00    -0.274 OA
ATOM     16  H   UNL     1       4.926   5.252  -0.535  0.00  0.00    +0.149 HD
BRANCH  13  17
ATOM     17  C   UNL     1       4.672   6.015  -2.500  0.00  0.00    +0.178 C 
BRANCH  17  22
ATOM     18  C   UNL     1       8.113   9.485  -1.252  0.00  0.00    +0.086 C 
ATOM     19  C   UNL     1       7.497   8.205  -1.756  0.00  0.00    +0.102 A 
ATOM     20  C   UNL     1       8.169   7.149  -2.249  0.00  0.00    +0.045 A 
ATOM     21  C   UNL     1       7.205   6.175  -2.594  0.00  0.00    +0.046 A 
ATOM     22  C   UNL     1       6.001   6.696  -2.299  0.00  0.00    +0.122 A 
ATOM     23  O   UNL     1       6.184   7.925  -1.788  0.00  0.00    -0.463 OA
ENDBRANCH  17  22
ENDBRANCH  13  17
ENDBRANCH   1  14
BRANCH   5  24
ATOM     24  S   UNL     1       1.226  -2.446  -0.011  0.00  0.00    +0.061 S 
ATOM     25  O   UNL     1       2.483  -2.840   0.523  0.00  0.00    -0.153 OA
ATOM     26  O   UNL     1      -0.007  -2.868   0.554  0.00  0.00    -0.153 OA
BRANCH  24  27
ATOM     27  N   UNL     1       1.212  -2.929  -1.595  0.00  0.00    -0.177 NA
ATOM     28  C   UNL     1      -0.058  -3.168  -2.293  0.00  0.00    +0.109 C 
ATOM     29  C   UNL     1      -0.070  -2.336  -3.585  0.00  0.00    +0.017 C 
ATOM     30  C   UNL     1       1.174  -2.671  -4.411  0.00  0.00    +0.003 C 
ATOM     31  C   UNL     1       2.430  -2.308  -3.616  0.00  0.00    +0.017 C 
ATOM     32  C   UNL     1       2.470  -3.134  -2.326  0.00  0.00    +0.109 C 
ENDBRANCH  24  27
ENDBRANCH   5  24
TORSDOF 5
