REMARK  Name = ZINC00720034
REMARK  5 active torsions:
REMARK  status: ('A' for Active; 'I' for Inactive)
REMARK    1  A    between atoms: C_1  and  C_2
REMARK    2  A    between atoms: C_7  and  C_17
REMARK    3  A    between atoms: C_25  and  C_27
REMARK    4  A    between atoms: C_27  and  O_29
REMARK    5  A    between atoms: O_29  and  C_30
REMARK                            x       y       z     vdW  Elec       q    Type
REMARK                         _______ _______ _______ _____ _____    ______ ____
ROOT
ATOM      1  C   UNL     1       3.432   3.440   1.196  0.00  0.00    +0.009 C 
ATOM      2  C   UNL     1       2.692   4.038  -0.002  0.00  0.00    +0.013 C 
ATOM      3  C   UNL     1       2.701   5.563   0.092  0.00  0.00    +0.055 C 
ATOM      4  C   UNL     1       2.017   6.008   1.375  0.00  0.00    +0.017 C 
ATOM      5  C   UNL     1       1.009   5.288   1.893  0.00  0.00    +0.038 C 
ATOM      6  C   UNL     1       0.249   5.610   3.159  0.00  0.00    +0.143 C 
ATOM      7  N   UNL     1       0.502   6.934   3.686  0.00  0.00    -0.331 N 
ATOM      8  C   UNL     1       1.766   7.292   4.148  0.00  0.00    +0.049 A 
ATOM      9  C   UNL     1       1.992   7.573   5.487  0.00  0.00    +0.025 A 
ATOM     10  C   UNL     1       3.273   7.877   5.912  0.00  0.00    +0.002 A 
ATOM     11  C   UNL     1       4.324   7.898   5.014  0.00  0.00    +0.002 A 
ATOM     12  C   UNL     1       4.099   7.636   3.672  0.00  0.00    +0.025 A 
ATOM     13  C   UNL     1       2.814   7.355   3.243  0.00  0.00    +0.052 A 
ATOM     14  N   UNL     1       2.503   7.162   1.901  0.00  0.00    -0.316 N 
ATOM     15  C   UNL     1       0.576   4.103   1.254  0.00  0.00    +0.177 C 
ATOM     16  O   UNL     1      -0.358   3.487   1.730  0.00  0.00    -0.291 OA
ATOM     17  C   UNL     1       1.228   3.579   0.010  0.00  0.00    +0.171 C 
ATOM     18  H   UNL     1      -0.220   7.582   3.718  0.00  0.00    +0.147 HD
ATOM     19  H   UNL     1       2.643   7.908   1.296  0.00  0.00    +0.152 HD
ENDROOT
BRANCH   6  20
ATOM     20  C   UNL     1       0.621   4.597   4.210  0.00  0.00    +0.016 A 
ATOM     21  C   UNL     1      -0.062   3.499   4.616  0.00  0.00    +0.015 A 
ATOM     22  C   UNL     1       0.479   2.701   5.607  0.00  0.00    +0.028 A 
ATOM     23  C   UNL     1       1.673   3.047   6.151  0.00  0.00    +0.078 A 
ATOM     24  S   UNL     1       2.070   4.537   5.250  0.00  0.00    -0.080 S 
ATOM     25 CL   UNL     1       2.578   2.249   7.398  0.00  0.00    -0.076 Cl
ENDBRANCH   6  20
BRANCH  17  26
ATOM     26  C   UNL     1       1.170   2.073   0.002  0.00  0.00    +0.318 C 
ATOM     27  O   UNL     1       2.192   1.429  -0.011  0.00  0.00    -0.250 OA
BRANCH  26  28
ATOM     28  O   UNL     1      -0.018   1.448   0.010  0.00  0.00    -0.467 OA
ATOM     29  C   UNL     1       0.002  -0.004   0.002  0.00  0.00    +0.280 C 
ENDBRANCH  26  28
ENDBRANCH  17  26
TORSDOF 3
