REMARK  Name = ZINC44021187
REMARK  3 active torsions:
REMARK  status: ('A' for Active; 'I' for Inactive)
REMARK    1  A    between atoms: C_6  and  N_7
REMARK    2  A    between atoms: N_7  and  C_8
REMARK    3  A    between atoms: N_12  and  C_17
REMARK                            x       y       z     vdW  Elec       q    Type
REMARK                         _______ _______ _______ _____ _____    ______ ____
ROOT
ATOM      1  C   UNL     1      -1.235  -2.092   0.102  0.00  0.00    +0.109 A 
ATOM      2  C   UNL     1      -0.021  -2.695   0.286  0.00  0.00    +0.112 A 
ATOM      3  C   UNL     1       0.037  -4.094   0.384  0.00  0.00    +0.259 A 
ATOM      4  O   UNL     1       1.108  -4.653   0.548  0.00  0.00    -0.267 OA
ATOM      5  N   UNL     1      -1.098  -4.815   0.296  0.00  0.00    -0.255 N 
ATOM      6  C   UNL     1      -2.284  -4.206   0.115  0.00  0.00    +0.331 A 
ATOM      7  O   UNL     1      -3.295  -4.876   0.039  0.00  0.00    -0.246 OA
ATOM      8  N   UNL     1      -2.368  -2.866   0.024  0.00  0.00    -0.295 N 
ATOM      9  H   UNL     1      -3.232  -2.445  -0.102  0.00  0.00    +0.172 HD
ENDROOT
BRANCH   5  10
ATOM     10  C   UNL     1      -1.040  -6.276   0.397  0.00  0.00    +0.054 C 
ATOM     11  C   UNL     1      -1.572  -6.898  -0.895  0.00  0.00    +0.032 C 
ATOM     12  C   UNL     1      -1.511  -8.423  -0.789  0.00  0.00    -0.008 C 
ATOM     13  C   UNL     1      -0.061  -8.862  -0.571  0.00  0.00    +0.007 C 
ATOM     14  C   UNL     1       0.471  -8.239   0.721  0.00  0.00    -0.008 C 
ATOM     15  C   UNL     1       0.410  -6.714   0.615  0.00  0.00    +0.032 C 
ATOM     16  C   UNL     1      -0.386  -8.703   1.901  0.00  0.00    +0.007 C 
ATOM     17  C   UNL     1      -1.835  -8.265   1.683  0.00  0.00    -0.008 C 
ATOM     18  C   UNL     1      -2.367  -8.887   0.391  0.00  0.00    +0.007 C 
ATOM     19  C   UNL     1      -1.896  -6.739   1.577  0.00  0.00    +0.032 C 
ENDBRANCH   5  10
BRANCH   1  20
ATOM     20  N   UNL     1      -1.321  -0.726   0.003  0.00  0.00    -0.301 N 
ATOM     21  H   UNL     1      -0.535  -0.178   0.152  0.00  0.00    +0.154 HD
BRANCH  20  27
ATOM     22  C   UNL     1      -2.929   1.047   0.330  0.00  0.00    +0.026 A 
ATOM     23  C   UNL     1      -4.136   1.641   0.018  0.00  0.00    +0.043 A 
ATOM     24  C   UNL     1      -4.964   1.071  -0.933  0.00  0.00    +0.159 A 
ATOM     25  C   UNL     1      -4.584  -0.098  -1.576  0.00  0.00    +0.160 A 
ATOM     26  C   UNL     1      -3.376  -0.695  -1.266  0.00  0.00    +0.064 A 
ATOM     27  C   UNL     1      -2.545  -0.123  -0.312  0.00  0.00    +0.035 A 
ATOM     28  F   UNL     1      -5.394  -0.653  -2.504  0.00  0.00    -0.202 F 
ATOM     29  F   UNL     1      -6.145   1.654  -1.236  0.00  0.00    -0.202 F 
ENDBRANCH  20  27
ENDBRANCH   1  20
TORSDOF 3
