REMARK  Name = ZINC58703674
REMARK  6 active torsions:
REMARK  status: ('A' for Active; 'I' for Inactive)
REMARK    1  A    between atoms: C_1  and  C_2
REMARK    2  A    between atoms: C_2  and  N_3
REMARK    3  A    between atoms: N_3  and  C_4
REMARK    4  A    between atoms: C_4  and  C_5
REMARK    5  A    between atoms: C_13  and  C_15
REMARK    6  A    between atoms: C_15  and  C_16
REMARK                            x       y       z     vdW  Elec       q    Type
REMARK                         _______ _______ _______ _____ _____    ______ ____
ROOT
ATOM      1  N   UNL     1       0.711  -0.489   1.189  0.00  0.00    -0.297 N 
ATOM      2  C   UNL     1       2.042  -0.696   1.142  0.00  0.00    +0.221 C 
ATOM      3  O   UNL     1       2.628  -1.097   2.124  0.00  0.00    -0.275 OA
ENDROOT
BRANCH   1   5
ATOM      4  C   UNL     1      -0.019   1.526   0.010  0.00  0.00    +0.024 C 
ATOM      5  C   UNL     1       0.002  -0.004   0.002  0.00  0.00    +0.105 C 
ENDBRANCH   1   5
BRANCH   1   6
ATOM      6  C   UNL     1      -0.028  -0.750   2.427  0.00  0.00    +0.145 C 
BRANCH   6   7
ATOM      7  C   UNL     1      -0.503  -2.180   2.436  0.00  0.00    +0.006 A 
ATOM      8  C   UNL     1      -1.809  -2.477   2.094  0.00  0.00    +0.023 A 
ATOM      9  C   UNL     1      -2.246  -3.789   2.102  0.00  0.00    +0.018 A 
ATOM     10  C   UNL     1      -1.376  -4.806   2.454  0.00  0.00    +0.018 A 
ATOM     11  C   UNL     1      -0.070  -4.511   2.797  0.00  0.00    +0.040 A 
ATOM     12  C   UNL     1       0.369  -3.198   2.783  0.00  0.00    +0.128 A 
ATOM     13  F   UNL     1       1.647  -2.909   3.113  0.00  0.00    -0.205 F 
ATOM     14 BR   UNL     1      -4.032  -4.193   1.633  0.00  0.00    -0.050 Br
ENDBRANCH   6   7
ENDBRANCH   1   6
BRANCH   2  15
ATOM     15  C   UNL     1       2.801  -0.427  -0.132  0.00  0.00    +0.138 C 
BRANCH  15  16
ATOM     16  C   UNL     1       4.261  -0.735   0.079  0.00  0.00    -0.001 A 
ATOM     17  C   UNL     1       4.924  -1.901  -0.114  0.00  0.00    +0.011 A 
ATOM     18  C   UNL     1       6.281  -1.952   0.148  0.00  0.00    +0.008 A 
ATOM     19  C   UNL     1       6.907  -0.835   0.590  0.00  0.00    +0.045 A 
ATOM     20  S   UNL     1       5.568   0.344   0.642  0.00  0.00    -0.101 S 
ENDBRANCH  15  16
ENDBRANCH   2  15
TORSDOF 5
