REMARK  Name = ZINC64015529
REMARK  6 active torsions:
REMARK  status: ('A' for Active; 'I' for Inactive)
REMARK    1  A    between atoms: C_6  and  C_11
REMARK    2  A    between atoms: C_11  and  N_12
REMARK    3  A    between atoms: C_13  and  C_15
REMARK    4  A    between atoms: N_21  and  C_23
REMARK    5  A    between atoms: C_23  and  C_24
REMARK    6  A    between atoms: C_24  and  C_25
REMARK                            x       y       z     vdW  Elec       q    Type
REMARK                         _______ _______ _______ _____ _____    ______ ____
ROOT
ATOM      1  C   UNL     1       7.299  -3.046   2.373  0.00  0.00    +0.093 C 
ATOM      2  C   UNL     1       7.940  -3.668   1.126  0.00  0.00    +0.023 C 
ATOM      3  C   UNL     1       9.436  -3.346   1.139  0.00  0.00    +0.097 C 
ATOM      4  C   UNL     1      10.017  -3.673   2.485  0.00  0.00    +0.216 C 
ATOM      5  O   UNL     1      11.220  -3.790   2.578  0.00  0.00    -0.276 OA
ATOM      6  N   UNL     1       9.280  -3.842   3.584  0.00  0.00    -0.300 N 
ATOM      7  C   UNL     1       7.823  -3.774   3.611  0.00  0.00    +0.120 C 
ENDROOT
BRANCH   1   9
ATOM      8  N   UNL     1       5.120  -2.633   1.277  0.00  0.00    -0.313 N 
ATOM      9  C   UNL     1       5.801  -3.192   2.297  0.00  0.00    +0.218 C 
ATOM     10  O   UNL     1       5.208  -3.812   3.154  0.00  0.00    -0.275 OA
ATOM     11  H   UNL     1       5.594  -2.137   0.591  0.00  0.00    +0.149 HD
BRANCH   8  12
ATOM     12  C   UNL     1       3.664  -2.775   1.204  0.00  0.00    +0.133 C 
BRANCH  12  18
ATOM     13  C   UNL     1      -0.016   1.348   0.009  0.00  0.00    +0.001 A 
ATOM     14  C   UNL     1       1.166   2.101   0.002  0.00  0.00    +0.002 A 
ATOM     15  C   UNL     1       2.391   1.535  -0.013  0.00  0.00    +0.026 A 
ATOM     16  C   UNL     1       2.529   0.120  -0.022  0.00  0.00    +0.043 A 
ATOM     17  N   UNL     1       3.587  -0.654  -0.037  0.00  0.00    -0.376 N 
ATOM     18  C   UNL     1       3.143  -2.053  -0.041  0.00  0.00    +0.120 C 
ATOM     19  C   UNL     1       1.631  -2.008  -0.025  0.00  0.00    +0.009 C 
ATOM     20  C   UNL     1       1.295  -0.698  -0.014  0.00  0.00    -0.004 A 
ATOM     21  C   UNL     1       0.002  -0.004   0.002  0.00  0.00    +0.010 A 
ATOM     22  H   UNL     1       4.509  -0.353  -0.045  0.00  0.00    +0.160 HD
ENDBRANCH  12  18
ENDBRANCH   8  12
ENDBRANCH   1   9
BRANCH   6  23
ATOM     23  C   UNL     1       9.977  -4.109   4.844  0.00  0.00    +0.112 C 
BRANCH  23  24
ATOM     24  C   UNL     1      10.287  -2.786   5.546  0.00  0.00    +0.054 C 
BRANCH  24  25
ATOM     25  C   UNL     1      11.004  -3.061   6.843  0.00  0.00    -0.046 A 
ATOM     26  C   UNL     1      10.281  -3.248   8.006  0.00  0.00    +0.005 A 
ATOM     27  C   UNL     1      10.939  -3.500   9.195  0.00  0.00    +0.020 A 
ATOM     28  C   UNL     1      12.321  -3.565   9.221  0.00  0.00    +0.041 A 
ATOM     29  C   UNL     1      13.043  -3.377   8.057  0.00  0.00    +0.020 A 
ATOM     30  C   UNL     1      12.385  -3.131   6.867  0.00  0.00    +0.005 A 
ATOM     31 CL   UNL     1      13.147  -3.881  10.715  0.00  0.00    -0.084 Cl
ENDBRANCH  24  25
ENDBRANCH  23  24
ENDBRANCH   6  23
TORSDOF 6
