REMARK  Name = ZINC39652713
REMARK  9 active torsions:
REMARK  status: ('A' for Active; 'I' for Inactive)
REMARK    1  A    between atoms: C_1  and  C_2
REMARK    2  A    between atoms: C_2  and  O_3
REMARK    3  A    between atoms: O_3  and  C_4
REMARK    4  A    between atoms: C_9  and  C_10
REMARK    5  A    between atoms: C_10  and  C_11
REMARK    6  A    between atoms: C_11  and  N_12
REMARK    7  A    between atoms: C_13  and  C_15
REMARK    8  A    between atoms: C_26  and  C_28
REMARK    9  A    between atoms: N_32  and  C_33
REMARK                            x       y       z     vdW  Elec       q    Type
REMARK                         _______ _______ _______ _____ _____    ______ ____
ROOT
ATOM      1  C   UNL     1       5.611   1.889  -5.824  0.00  0.00    +0.100 C 
ATOM      2  C   UNL     1       4.787   3.186  -5.664  0.00  0.00    +0.121 C 
ATOM      3  N   UNL     1       5.405   3.882  -4.512  0.00  0.00    -0.295 N 
ATOM      4  C   UNL     1       6.861   3.659  -4.684  0.00  0.00    +0.115 C 
ATOM      5  C   UNL     1       6.973   2.205  -5.183  0.00  0.00    -0.004 C 
ATOM      6  C   UNL     1       8.085   2.087  -6.221  0.00  0.00    -0.010 C 
ATOM      7  C   UNL     1       9.435   2.348  -5.547  0.00  0.00    -0.082 C 
ATOM      8  N   UNL     1       9.641   1.376  -4.466  0.00  0.00    +0.379 N 
ATOM      9  C   UNL     1       8.621   1.559  -3.427  0.00  0.00    -0.082 C 
ATOM     10  C   UNL     1       7.236   1.264  -4.011  0.00  0.00    -0.010 C 
ATOM     11  C   UNL     1       4.785   4.566  -3.529  0.00  0.00    +0.263 C 
ATOM     12  O   UNL     1       5.435   5.245  -2.756  0.00  0.00    -0.268 OA
ATOM     13  H   UNL     1       9.576   0.441  -4.840  0.00  0.00    -0.086 HD
ATOM     14  H   UNL     1      10.557   1.511  -4.064  0.00  0.00    -0.086 HD
ENDROOT
BRANCH  11  15
ATOM     15  C   UNL     1       3.327   4.491  -3.392  0.00  0.00    +0.104 A 
ATOM     16  C   UNL     1       2.506   3.525  -3.934  0.00  0.00    +0.032 A 
ATOM     17  C   UNL     1       1.197   3.838  -3.554  0.00  0.00    +0.020 A 
ATOM     18  C   UNL     1       1.240   4.965  -2.803  0.00  0.00    +0.086 A 
ATOM     19  N   UNL     1       2.530   5.368  -2.692  0.00  0.00    -0.346 N 
ATOM     20  C   UNL     1       2.996   6.544  -1.953  0.00  0.00    +0.149 C 
ENDBRANCH  11  15
BRANCH   1  22
ATOM     21  N   UNL     1       5.075  -0.511  -5.559  0.00  0.00    -0.315 N 
ATOM     22  C   UNL     1       4.942   0.749  -5.100  0.00  0.00    +0.218 C 
ATOM     23  O   UNL     1       4.284   0.966  -4.104  0.00  0.00    -0.275 OA
ATOM     24  H   UNL     1       5.602  -0.685  -6.355  0.00  0.00    +0.149 HD
BRANCH  21  25
ATOM     25  C   UNL     1       4.425  -1.620  -4.855  0.00  0.00    +0.109 C 
BRANCH  25  26
ATOM     26  C   UNL     1       4.733  -2.933  -5.577  0.00  0.00    +0.057 C 
BRANCH  26  32
ATOM     27  C   UNL     1       2.741  -4.388  -5.125  0.00  0.00    +0.124 A 
ATOM     28  C   UNL     1       2.130  -5.441  -4.461  0.00  0.00    +0.046 A 
ATOM     29  C   UNL     1       2.838  -6.170  -3.526  0.00  0.00    +0.004 A 
ATOM     30  C   UNL     1       4.155  -5.851  -3.252  0.00  0.00    +0.000 A 
ATOM     31  C   UNL     1       4.767  -4.802  -3.912  0.00  0.00    +0.007 A 
ATOM     32  C   UNL     1       4.064  -4.073  -4.853  0.00  0.00    -0.004 A 
BRANCH  27  33
ATOM     33  O   UNL     1       2.046  -3.669  -6.046  0.00  0.00    -0.492 OA
BRANCH  33  35
ATOM     34  C   UNL     1       0.074  -3.133  -7.337  0.00  0.00    +0.048 C 
ATOM     35  C   UNL     1       0.688  -4.049  -6.276  0.00  0.00    +0.225 C 
ENDBRANCH  33  35
ENDBRANCH  27  33
ENDBRANCH  26  32
ENDBRANCH  25  26
ENDBRANCH  21  25
ENDBRANCH   1  22
TORSDOF 7
