REMARK  Name = ZINC41587029
REMARK  4 active torsions:
REMARK  status: ('A' for Active; 'I' for Inactive)
REMARK    1  A    between atoms: C_1  and  C_2
REMARK    2  A    between atoms: C_10  and  C_11
REMARK    3  A    between atoms: N_19  and  C_22
REMARK    4  A    between atoms: C_22  and  C_23
REMARK                            x       y       z     vdW  Elec       q    Type
REMARK                         _______ _______ _______ _____ _____    ______ ____
ROOT
ATOM      1  C   UNL     1      -0.761   2.000  -0.475  0.00  0.00    +0.051 C 
ATOM      2  C   UNL     1      -0.510   0.522  -0.315  0.00  0.00    +0.034 A 
ATOM      3  C   UNL     1      -0.373  -0.282  -1.438  0.00  0.00    +0.133 A 
ATOM      4  C   UNL     1      -0.139  -1.647  -1.302  0.00  0.00    +0.010 A 
ATOM      5  C   UNL     1      -0.045  -2.207  -0.056  0.00  0.00    +0.024 A 
ATOM      6  C   UNL     1      -0.180  -1.410   1.079  0.00  0.00    +0.068 A 
ATOM      7  C   UNL     1      -0.409  -0.029   0.953  0.00  0.00    +0.146 A 
ATOM      8  O   UNL     1      -0.494   0.512   2.188  0.00  0.00    -0.451 OA
ATOM      9  C   UNL     1      -0.332  -0.426   3.151  0.00  0.00    +0.177 C 
ATOM     10  C   UNL     1      -0.365  -0.200   4.496  0.00  0.00    +0.065 C 
ATOM     11  C   UNL     1      -0.134  -1.685   2.526  0.00  0.00    +0.231 C 
ATOM     12  O   UNL     1       0.048  -2.762   3.070  0.00  0.00    -0.283 OA
ATOM     13  C   UNL     1       0.017  -2.527  -2.516  0.00  0.00    +0.126 C 
ATOM     14  N   UNL     1      -0.518  -1.837  -3.697  0.00  0.00    -0.264 NA
ATOM     15  C   UNL     1       0.025  -0.471  -3.776  0.00  0.00    +0.318 C 
ATOM     16  O   UNL     1      -0.474   0.284  -2.670  0.00  0.00    -0.476 OA
ENDROOT
BRANCH  10  17
ATOM     17  C   UNL     1      -0.582   1.107   4.988  0.00  0.00    +0.016 A 
ATOM     18  C   UNL     1      -0.646   1.549   6.307  0.00  0.00    +0.015 A 
ATOM     19  C   UNL     1      -0.872   2.893   6.472  0.00  0.00    +0.008 A 
ATOM     20  C   UNL     1      -1.015   3.679   5.375  0.00  0.00    +0.046 A 
ATOM     21  S   UNL     1      -0.840   2.620   4.082  0.00  0.00    -0.097 S 
ENDBRANCH  10  17
BRANCH  14  22
ATOM     22  C   UNL     1      -0.229  -2.590  -4.924  0.00  0.00    +0.119 C 
BRANCH  22  23
ATOM     23  C   UNL     1      -1.169  -3.793  -5.018  0.00  0.00    +0.132 C 
ATOM     24  C   UNL     1      -0.836  -4.622  -6.277  0.00  0.00    +0.035 C 
ATOM     25  C   UNL     1      -2.245  -5.032  -6.785  0.00  0.00    +0.031 C 
ATOM     26  C   UNL     1      -3.072  -3.781  -6.396  0.00  0.00    +0.160 C 
ATOM     27  O   UNL     1      -2.523  -3.343  -5.141  0.00  0.00    -0.375 OA
ENDBRANCH  22  23
ENDBRANCH  14  22
TORSDOF 3
