REMARK  Name = ZINC36309649
REMARK  11 active torsions:
REMARK  status: ('A' for Active; 'I' for Inactive)
REMARK    1  A    between atoms: C_4  and  C_7
REMARK    2  A    between atoms: C_7  and  C_9
REMARK    3  A    between atoms: C_7  and  O_37
REMARK    4  A    between atoms: C_9  and  N_10
REMARK    5  A    between atoms: N_10  and  C_11
REMARK    6  A    between atoms: N_10  and  C_15
REMARK    7  A    between atoms: C_11  and  C_12
REMARK    8  A    between atoms: C_15  and  C_16
REMARK    9  A    between atoms: C_26  and  C_28
REMARK   10  A    between atoms: C_28  and  O_29
REMARK   11  A    between atoms: O_29  and  C_30
REMARK                            x       y       z     vdW  Elec       q    Type
REMARK                         _______ _______ _______ _____ _____    ______ ____
ROOT
ATOM      1  C   UNL     1       7.309  -2.830  -2.418  0.00  0.00    +0.200 C 
ATOM      2  O   UNL     1       7.874  -2.692  -1.354  0.00  0.00    -0.278 OA
ATOM      3  N   UNL     1       7.974  -3.345  -3.472  0.00  0.00    -0.292 N 
ATOM      4  C   UNL     1       7.301  -3.511  -4.769  0.00  0.00    +0.113 C 
ATOM      5  C   UNL     1       7.983  -2.587  -5.788  0.00  0.00    +0.061 C 
ATOM      6  C   UNL     1       9.463  -2.679  -5.603  0.00  0.00    -0.004 A 
ATOM      7  C   UNL     1      10.143  -3.179  -4.536  0.00  0.00    -0.014 A 
ATOM      8  C   UNL     1      11.534  -3.142  -4.607  0.00  0.00    +0.013 A 
ATOM      9  C   UNL     1      12.143  -2.631  -5.702  0.00  0.00    +0.046 A 
ATOM     10  S   UNL     1      10.746  -2.166  -6.715  0.00  0.00    -0.101 S 
ATOM     11  C   UNL     1       9.382  -3.742  -3.342  0.00  0.00    +0.144 C 
ENDROOT
BRANCH   1  12
ATOM     12  C   UNL     1       5.864  -2.426  -2.563  0.00  0.00    +0.019 C 
BRANCH  12  13
ATOM     13  N   UNL     1       5.415  -1.766  -1.330  0.00  0.00    +0.387 N 
ATOM     14  H   UNL     1       5.610  -2.362  -0.539  0.00  0.00    -0.081 HD
BRANCH  13  15
ATOM     15  C   UNL     1       6.125  -0.491  -1.169  0.00  0.00    -0.042 C 
BRANCH  15  16
ATOM     16  C   UNL     1       5.795   0.108   0.199  0.00  0.00    +0.128 C 
BRANCH  16  20
ATOM     17  C   UNL     1       8.291   3.502   0.905  0.00  0.00    +0.000 A 
ATOM     18  C   UNL     1       8.659   2.261   1.390  0.00  0.00    +0.000 A 
ATOM     19  C   UNL     1       7.851   1.163   1.162  0.00  0.00    +0.006 A 
ATOM     20  C   UNL     1       6.676   1.306   0.449  0.00  0.00    -0.021 A 
ATOM     21  C   UNL     1       6.308   2.547  -0.036  0.00  0.00    +0.006 A 
ATOM     22  C   UNL     1       7.116   3.645   0.191  0.00  0.00    +0.000 A 
ENDBRANCH  16  20
BRANCH  16  23
ATOM     23  O   UNL     1       4.425   0.511   0.225  0.00  0.00    -0.389 OA
ATOM     24  H   UNL     1       4.197   1.175  -0.440  0.00  0.00    +0.210 HD
ENDBRANCH  16  23
ENDBRANCH  15  16
ENDBRANCH  13  15
BRANCH  13  25
ATOM     25  C   UNL     1       3.969  -1.515  -1.408  0.00  0.00    -0.075 C 
BRANCH  25  26
ATOM     26  C   UNL     1       3.226  -2.847  -1.531  0.00  0.00    -0.028 C 
ATOM     27  C   UNL     1       2.486  -3.125  -2.841  0.00  0.00    +0.002 C 
ATOM     28  C   UNL     1       1.697  -2.801  -1.570  0.00  0.00    +0.002 C 
ENDBRANCH  25  26
ENDBRANCH  13  25
ENDBRANCH  12  13
ENDBRANCH   1  12
BRANCH  11  29
ATOM     29  C   UNL     1       9.492  -5.268  -3.337  0.00  0.00    +0.256 C 
BRANCH  29  30
ATOM     30  O   UNL     1       9.074  -5.780  -4.604  0.00  0.00    -0.490 OA
BRANCH  30  31
ATOM     31  C   UNL     1       9.111  -7.129  -4.766  0.00  0.00    +0.123 A 
ATOM     32  C   UNL     1       9.535  -7.943  -3.726  0.00  0.00    +0.046 A 
ATOM     33  C   UNL     1       9.572  -9.314  -3.893  0.00  0.00    +0.006 A 
ATOM     34  C   UNL     1       9.187  -9.876  -5.095  0.00  0.00    +0.038 A 
ATOM     35  C   UNL     1       8.762  -9.067  -6.136  0.00  0.00    +0.127 A 
ATOM     36  C   UNL     1       8.719  -7.693  -5.971  0.00  0.00    +0.084 A 
ATOM     37  F   UNL     1       8.387  -9.618  -7.311  0.00  0.00    -0.205 F 
ENDBRANCH  30  31
ENDBRANCH  29  30
ENDBRANCH  11  29
TORSDOF 11
