REMARK  Name = ZINC62957596
REMARK  12 active torsions:
REMARK  status: ('A' for Active; 'I' for Inactive)
REMARK    1  A    between atoms: C_1  and  C_2
REMARK    2  A    between atoms: C_2  and  N_3
REMARK    3  A    between atoms: N_3  and  C_4
REMARK    4  A    between atoms: N_3  and  C_6
REMARK    5  A    between atoms: C_4  and  C_5
REMARK    6  A    between atoms: C_9  and  C_12
REMARK    7  A    between atoms: C_19  and  O_24
REMARK    8  A    between atoms: C_20  and  C_23
REMARK    9  A    between atoms: O_24  and  C_25
REMARK   10  A    between atoms: C_25  and  C_26
REMARK   11  A    between atoms: C_27  and  C_28
REMARK   12  A    between atoms: C_27  and  C_29
REMARK                            x       y       z     vdW  Elec       q    Type
REMARK                         _______ _______ _______ _____ _____    ______ ____
ROOT
ATOM      1  C   UNL     1       1.633  -3.361  -0.110  0.00  0.00    +0.058 C 
ATOM      2  C   UNL     1       2.664  -4.225   0.062  0.00  0.00    +0.176 C 
ATOM      3  C   UNL     1       2.688  -5.641  -0.338  0.00  0.00    +0.231 C 
ATOM      4  O   UNL     1       1.804  -6.278  -0.884  0.00  0.00    -0.283 OA
ATOM      5  C   UNL     1       4.023  -6.117   0.070  0.00  0.00    +0.068 A 
ATOM      6  C   UNL     1       4.666  -7.352  -0.024  0.00  0.00    +0.019 A 
ATOM      7  C   UNL     1       5.937  -7.496   0.454  0.00  0.00    +0.047 A 
ATOM      8  C   UNL     1       6.592  -6.414   1.036  0.00  0.00    +0.127 A 
ATOM      9  C   UNL     1       5.966  -5.182   1.136  0.00  0.00    +0.034 A 
ATOM     10  C   UNL     1       4.673  -5.018   0.654  0.00  0.00    +0.146 A 
ATOM     11  O   UNL     1       3.860  -3.940   0.628  0.00  0.00    -0.451 OA
ATOM     12  C   UNL     1       6.688  -4.019   1.767  0.00  0.00    +0.051 C 
ENDROOT
BRANCH   1  16
ATOM     13  C   UNL     1       2.129   0.746   0.818  0.00  0.00    +0.013 A 
ATOM     14  C   UNL     1       3.222  -0.103   0.848  0.00  0.00    +0.022 A 
ATOM     15  C   UNL     1       3.069  -1.440   0.548  0.00  0.00    +0.010 A 
ATOM     16  C   UNL     1       1.805  -1.938   0.212  0.00  0.00    -0.021 A 
ATOM     17  C   UNL     1       0.706  -1.072   0.184  0.00  0.00    +0.010 A 
ATOM     18  C   UNL     1       0.875   0.261   0.493  0.00  0.00    +0.022 A 
BRANCH  13  19
ATOM     19  N   UNL     1       2.293   2.100   1.124  0.00  0.00    -0.394 NA
ATOM     20  H   UNL     1       1.403   2.570   1.059  0.00  0.00    +0.126 HD
BRANCH  19  22
ATOM     21  C   UNL     1       1.769   1.745   3.490  0.00  0.00    +0.022 C 
ATOM     22  C   UNL     1       2.818   2.234   2.490  0.00  0.00    +0.081 C 
ENDBRANCH  19  22
BRANCH  19  23
ATOM     23  C   UNL     1       3.237   2.706   0.175  0.00  0.00    +0.081 C 
ATOM     24  C   UNL     1       2.632   2.684  -1.230  0.00  0.00    +0.022 C 
ENDBRANCH  19  23
ENDBRANCH  13  19
ENDBRANCH   1  16
BRANCH   8  25
ATOM     25  O   UNL     1       7.855  -6.567   1.508  0.00  0.00    -0.488 OA
BRANCH  25  26
ATOM     26  C   UNL     1       8.445  -7.862   1.376  0.00  0.00    +0.256 C 
BRANCH  26  27
ATOM     27  C   UNL     1       9.838  -7.841   1.952  0.00  0.00    +0.012 C 
ATOM     28  C   UNL     1      10.826  -8.399   1.298  0.00  0.00    -0.076 C 
ATOM     29  C   UNL     1      10.552  -9.164   0.028  0.00  0.00    +0.038 C 
ATOM     30  C   UNL     1      12.236  -8.276   1.814  0.00  0.00    +0.038 C 
ENDBRANCH  26  27
ENDBRANCH  25  26
ENDBRANCH   8  25
TORSDOF 7
