REMARK  Name = ZINC65153528
REMARK  10 active torsions:
REMARK  status: ('A' for Active; 'I' for Inactive)
REMARK    1  A    between atoms: C_1  and  C_2
REMARK    2  A    between atoms: C_2  and  C_3
REMARK    3  A    between atoms: N_9  and  C_10
REMARK    4  A    between atoms: C_10  and  C_11
REMARK    5  A    between atoms: N_13  and  C_14
REMARK    6  A    between atoms: C_17  and  C_20
REMARK    7  A    between atoms: C_20  and  C_21
REMARK    8  A    between atoms: C_20  and  C_22
REMARK    9  A    between atoms: N_24  and  C_27
REMARK   10  A    between atoms: C_27  and  C_28
REMARK                            x       y       z     vdW  Elec       q    Type
REMARK                         _______ _______ _______ _____ _____    ______ ____
ROOT
ATOM      1  C   UNL     1       0.714  -0.493  -1.232  0.00  0.00    +0.113 A 
ATOM      2  N   UNL     1       1.189   0.381  -2.077  0.00  0.00    -0.238 NA
ATOM      3  C   UNL     1       1.819   0.007  -3.198  0.00  0.00    +0.048 A 
ATOM      4  C   UNL     1       1.977  -1.312  -3.471  0.00  0.00    +0.022 A 
ATOM      5  C   UNL     1       1.461  -2.260  -2.559  0.00  0.00    +0.256 A 
ATOM      6  O   UNL     1       1.579  -3.455  -2.772  0.00  0.00    -0.267 OA
ATOM      7  N   UNL     1       0.840  -1.817  -1.446  0.00  0.00    -0.288 N 
ATOM      8  C   UNL     1       2.686  -1.798  -4.705  0.00  0.00    -0.035 C 
ATOM      9  N   UNL     1       2.756  -0.734  -5.712  0.00  0.00    +0.385 N 
ATOM     10  C   UNL     1       3.350   0.464  -5.100  0.00  0.00    -0.072 C 
ATOM     11  C   UNL     1       2.334   1.072  -4.132  0.00  0.00    +0.037 C 
ATOM     12  H   UNL     1       1.827  -0.519  -6.043  0.00  0.00    -0.081 HD
ENDROOT
BRANCH   1  14
ATOM     13  C   UNL     1       0.000   1.519   0.029  0.00  0.00    +0.012 C 
ATOM     14  C   UNL     1       0.016  -0.011   0.013  0.00  0.00    +0.071 C 
ENDBRANCH   1  14
BRANCH   7  15
ATOM     15  C   UNL     1       0.298  -2.773  -0.477  0.00  0.00    +0.222 C 
BRANCH  15  16
ATOM     16  C   UNL     1      -1.126  -3.106  -0.842  0.00  0.00    +0.237 C 
ATOM     17  O   UNL     1      -1.638  -2.595  -1.815  0.00  0.00    -0.274 OA
ATOM     18  N   UNL     1      -1.830  -3.971  -0.086  0.00  0.00    -0.284 N 
ATOM     19  H   UNL     1      -1.401  -4.431   0.653  0.00  0.00    +0.155 HD
BRANCH  18  20
ATOM     20  C   UNL     1      -3.181  -4.207  -0.366  0.00  0.00    +0.033 A 
ATOM     21  C   UNL     1      -4.077  -4.436   0.670  0.00  0.00    +0.023 A 
ATOM     22  C   UNL     1      -5.409  -4.668   0.390  0.00  0.00    +0.006 A 
ATOM     23  C   UNL     1      -5.851  -4.671  -0.920  0.00  0.00    -0.045 A 
ATOM     24  C   UNL     1      -4.962  -4.444  -1.954  0.00  0.00    +0.006 A 
ATOM     25  C   UNL     1      -3.629  -4.205  -1.680  0.00  0.00    +0.023 A 
BRANCH  23  26
ATOM     26  C   UNL     1      -7.306  -4.925  -1.222  0.00  0.00    +0.013 C 
ATOM     27  C   UNL     1      -7.893  -3.717  -1.956  0.00  0.00    +0.012 C 
ATOM     28  C   UNL     1      -7.435  -6.169  -2.104  0.00  0.00    +0.012 C 
ENDBRANCH  23  26
ENDBRANCH  18  20
ENDBRANCH  15  16
ENDBRANCH   7  15
BRANCH   9  29
ATOM     29  C   UNL     1       3.591  -1.177  -6.837  0.00  0.00    -0.043 C 
BRANCH  29  30
ATOM     30  C   UNL     1       2.925  -2.337  -7.531  0.00  0.00    -0.064 A 
ATOM     31  C   UNL     1       3.188  -3.631  -7.121  0.00  0.00    +0.002 A 
ATOM     32  C   UNL     1       2.577  -4.695  -7.757  0.00  0.00    +0.000 A 
ATOM     33  C   UNL     1       1.703  -4.466  -8.803  0.00  0.00    +0.000 A 
ATOM     34  C   UNL     1       1.439  -3.172  -9.212  0.00  0.00    +0.000 A 
ATOM     35  C   UNL     1       2.046  -2.108  -8.573  0.00  0.00    +0.002 A 
ENDBRANCH  29  30
ENDBRANCH   9  29
TORSDOF 7
