REMARK  Name = ZINC13943863
REMARK  4 active torsions:
REMARK  status: ('A' for Active; 'I' for Inactive)
REMARK    1  A    between atoms: C_7  and  C_19
REMARK    2  A    between atoms: C_8  and  C_11
REMARK    3  A    between atoms: N_29  and  C_30
REMARK    4  A    between atoms: C_30  and  C_31
REMARK                            x       y       z     vdW  Elec       q    Type
REMARK                         _______ _______ _______ _____ _____    ______ ____
ROOT
ATOM      1  C   UNL     1       0.982   5.455  -4.502  0.00  0.00    +0.001 A 
ATOM      2  C   UNL     1       0.179   6.235  -5.324  0.00  0.00    +0.002 A 
ATOM      3  C   UNL     1      -0.909   6.906  -4.811  0.00  0.00    +0.026 A 
ATOM      4  C   UNL     1      -1.210   6.803  -3.457  0.00  0.00    +0.047 A 
ATOM      5  C   UNL     1      -0.394   6.011  -2.628  0.00  0.00    +0.006 A 
ATOM      6  C   UNL     1       0.706   5.339  -3.170  0.00  0.00    +0.010 A 
ATOM      7  C   UNL     1      -0.961   6.104  -1.284  0.00  0.00    +0.010 A 
ATOM      8  C   UNL     1      -2.049   6.910  -1.369  0.00  0.00    +0.054 A 
ATOM      9  N   UNL     1      -2.204   7.339  -2.667  0.00  0.00    -0.354 N 
ATOM     10  H   UNL     1      -2.909   7.927  -2.980  0.00  0.00    +0.166 HD
ENDROOT
BRANCH   7  11
ATOM     11  C   UNL     1      -0.441   5.429  -0.041  0.00  0.00    +0.140 C 
ATOM     12  C   UNL     1      -0.832   3.972  -0.040  0.00  0.00    -0.010 A 
ATOM     13  C   UNL     1      -2.045   3.322  -0.050  0.00  0.00    +0.006 A 
ATOM     14  C   UNL     1      -2.087   1.938  -0.051  0.00  0.00    +0.000 A 
ATOM     15  C   UNL     1      -0.913   1.206  -0.031  0.00  0.00    +0.001 A 
ATOM     16  C   UNL     1       0.308   1.848  -0.021  0.00  0.00    +0.013 A 
ATOM     17  C   UNL     1       0.359   3.243  -0.025  0.00  0.00    +0.042 A 
ATOM     18  C   UNL     1       1.485   4.197  -0.017  0.00  0.00    +0.248 C 
ATOM     19  O   UNL     1       2.660   3.884  -0.003  0.00  0.00    -0.270 OA
ATOM     20  N   UNL     1       1.026   5.460  -0.026  0.00  0.00    -0.284 N 
BRANCH  20  21
ATOM     21  C   UNL     1       1.854   6.668  -0.021  0.00  0.00    +0.140 C 
BRANCH  21  22
ATOM     22  C   UNL     1       2.261   7.003   1.415  0.00  0.00    +0.136 C 
ATOM     23  C   UNL     1       3.133   8.283   1.443  0.00  0.00    +0.035 C 
ATOM     24  C   UNL     1       2.877   8.781   2.893  0.00  0.00    +0.031 C 
ATOM     25  C   UNL     1       1.409   8.364   3.130  0.00  0.00    +0.160 C 
ATOM     26  O   UNL     1       1.101   7.319   2.201  0.00  0.00    -0.375 OA
ENDBRANCH  21  22
ENDBRANCH  20  21
ENDBRANCH   7  11
BRANCH   8  27
ATOM     27  C   UNL     1      -2.932   7.273  -0.240  0.00  0.00    +0.017 A 
ATOM     28  C   UNL     1      -4.239   6.785  -0.187  0.00  0.00    +0.013 A 
ATOM     29  C   UNL     1      -5.057   7.127   0.869  0.00  0.00    +0.021 A 
ATOM     30  C   UNL     1      -4.586   7.953   1.876  0.00  0.00    +0.042 A 
ATOM     31  C   UNL     1      -3.291   8.441   1.830  0.00  0.00    +0.040 A 
ATOM     32  C   UNL     1      -2.460   8.101   0.781  0.00  0.00    +0.051 A 
ATOM     33 CL   UNL     1      -0.834   8.707   0.727  0.00  0.00    -0.083 Cl
ATOM     34 CL   UNL     1      -5.623   8.379   3.201  0.00  0.00    -0.083 Cl
ENDBRANCH   8  27
TORSDOF 4
