REMARK  Name = ZINC39482350
REMARK  9 active torsions:
REMARK  status: ('A' for Active; 'I' for Inactive)
REMARK    1  A    between atoms: C_1  and  S_2
REMARK    2  A    between atoms: S_2  and  C_3
REMARK    3  A    between atoms: N_6  and  C_10
REMARK    4  A    between atoms: C_12  and  C_27
REMARK    5  A    between atoms: C_15  and  N_16
REMARK    6  A    between atoms: N_16  and  S_17
REMARK    7  A    between atoms: S_17  and  C_20
REMARK    8  A    between atoms: C_25  and  O_26
REMARK    9  A    between atoms: C_32  and  O_33
REMARK                            x       y       z     vdW  Elec       q    Type
REMARK                         _______ _______ _______ _____ _____    ______ ____
ROOT
ATOM      1  C   UNL     1      -4.600  -2.617  -1.389  0.00  0.00    +0.053 A 
ATOM      2  C   UNL     1      -5.210  -2.891  -0.177  0.00  0.00    +0.033 A 
ATOM      3  C   UNL     1      -5.791  -4.139   0.041  0.00  0.00    -0.013 A 
ATOM      4  C   UNL     1      -5.757  -5.108  -0.961  0.00  0.00    +0.010 A 
ATOM      5  C   UNL     1      -5.148  -4.832  -2.168  0.00  0.00    +0.027 A 
ATOM      6  C   UNL     1      -4.573  -3.589  -2.391  0.00  0.00    +0.069 A 
ENDROOT
BRANCH   1   9
ATOM      7  C   UNL     1      -2.512   0.142  -0.423  0.00  0.00    +0.129 C 
ATOM      8  C   UNL     1      -2.602  -1.123  -1.284  0.00  0.00    +0.134 C 
ATOM      9  N   UNL     1      -4.015  -1.365  -1.612  0.00  0.00    -0.325 N 
ATOM     10  C   UNL     1      -4.797  -0.257  -2.182  0.00  0.00    +0.120 C 
ATOM     11  C   UNL     1      -4.621   0.974  -1.286  0.00  0.00    +0.101 C 
ATOM     12  N   UNL     1      -3.188   1.249  -1.113  0.00  0.00    -0.302 NA
ATOM     13  H   UNL     1      -3.044   2.121  -0.626  0.00  0.00    +0.123 HD
BRANCH   7  15
ATOM     14  C   UNL     1      -0.708   2.360  -0.445  0.00  0.00    +0.086 C 
ATOM     15  S   UNL     1      -0.770   0.570  -0.155  0.00  0.00    -0.144 S 
ENDBRANCH   7  15
ENDBRANCH   1   9
BRANCH   3  16
ATOM     16  C   UNL     1      -6.446  -4.436   1.338  0.00  0.00    +0.024 A 
ATOM     17  C   UNL     1      -5.780  -4.176   2.534  0.00  0.00    +0.012 A 
ATOM     18  C   UNL     1      -6.393  -4.454   3.739  0.00  0.00    +0.001 A 
ATOM     19  C   UNL     1      -7.668  -4.991   3.764  0.00  0.00    +0.004 A 
ATOM     20  C   UNL     1      -8.337  -5.254   2.584  0.00  0.00    +0.046 A 
ATOM     21  C   UNL     1      -7.736  -4.974   1.367  0.00  0.00    +0.125 A 
BRANCH  21  22
ATOM     22  O   UNL     1      -8.395  -5.228   0.206  0.00  0.00    -0.506 OA
ATOM     23  H   UNL     1      -8.246  -6.116  -0.145  0.00  0.00    +0.292 HD
ENDBRANCH  21  22
ENDBRANCH   3  16
BRANCH   6  24
ATOM     24  N   UNL     1      -3.962  -3.311  -3.619  0.00  0.00    -0.214 N 
ATOM     25  H   UNL     1      -3.173  -2.748  -3.651  0.00  0.00    +0.174 HD
BRANCH  24  26
ATOM     26  S   UNL     1      -4.586  -3.943  -5.016  0.00  0.00    +0.076 S 
ATOM     27  O   UNL     1      -5.990  -3.729  -4.967  0.00  0.00    -0.150 OA
ATOM     28  O   UNL     1      -3.778  -3.456  -6.079  0.00  0.00    -0.150 OA
BRANCH  26  29
ATOM     29  C   UNL     1      -4.340  -5.687  -4.955  0.00  0.00    +0.150 A 
ATOM     30  C   UNL     1      -5.428  -6.538  -4.933  0.00  0.00    +0.032 A 
ATOM     31  C   UNL     1      -5.235  -7.906  -4.885  0.00  0.00    +0.002 A 
ATOM     32  C   UNL     1      -3.953  -8.426  -4.858  0.00  0.00    +0.004 A 
ATOM     33  C   UNL     1      -2.863  -7.579  -4.881  0.00  0.00    +0.047 A 
ATOM     34  C   UNL     1      -3.054  -6.205  -4.935  0.00  0.00    +0.143 A 
BRANCH  34  35
ATOM     35  O   UNL     1      -1.982  -5.370  -4.963  0.00  0.00    -0.505 OA
ATOM     36  H   UNL     1      -1.660  -5.114  -4.088  0.00  0.00    +0.292 HD
ENDBRANCH  34  35
ENDBRANCH  26  29
ENDBRANCH  24  26
ENDBRANCH   6  24
TORSDOF 8
