REMARK  Name = ZINC42361390
REMARK  6 active torsions:
REMARK  status: ('A' for Active; 'I' for Inactive)
REMARK    1  A    between atoms: C_1  and  N_2
REMARK    2  A    between atoms: N_2  and  C_3
REMARK    3  A    between atoms: N_2  and  S_10
REMARK    4  A    between atoms: C_3  and  C_4
REMARK    5  A    between atoms: S_10  and  C_13
REMARK    6  A    between atoms: C_16  and  N_20
REMARK                            x       y       z     vdW  Elec       q    Type
REMARK                         _______ _______ _______ _____ _____    ______ ____
ROOT
ATOM      1  S   UNL     1      -0.000  -0.824  -1.437  0.00  0.00    +0.064 S 
ATOM      2  O   UNL     1      -0.531  -2.115  -1.167  0.00  0.00    -0.153 OA
ATOM      3  O   UNL     1      -0.572   0.049  -2.401  0.00  0.00    -0.153 OA
ENDROOT
BRANCH   1   4
ATOM      4  C   UNL     1       1.682  -1.059  -1.905  0.00  0.00    +0.142 A 
ATOM      5  C   UNL     1       2.323  -0.107  -2.678  0.00  0.00    +0.070 A 
ATOM      6  C   UNL     1       3.643  -0.289  -3.047  0.00  0.00    +0.044 A 
ATOM      7  C   UNL     1       4.325  -1.429  -2.641  0.00  0.00    +0.027 A 
ATOM      8  C   UNL     1       3.679  -2.382  -1.865  0.00  0.00    +0.044 A 
ATOM      9  C   UNL     1       2.361  -2.193  -1.495  0.00  0.00    +0.070 A 
ATOM     10 CL   UNL     1       1.555  -3.382  -0.520  0.00  0.00    -0.081 Cl
ATOM     11 CL   UNL     1       1.469   1.317  -3.185  0.00  0.00    -0.081 Cl
BRANCH   7  12
ATOM     12  N   UNL     1       5.659  -1.615  -3.013  0.00  0.00    -0.358 N 
ATOM     13  H   UNL     1       6.109  -0.949  -3.555  0.00  0.00    +0.142 HD
ATOM     14  H   UNL     1       6.134  -2.411  -2.729  0.00  0.00    +0.142 HD
ENDBRANCH   7  12
ENDBRANCH   1   4
BRANCH   1  16
ATOM     15  C   UNL     1      -0.018   1.461   0.010  0.00  0.00    +0.132 C 
ATOM     16  N   UNL     1       0.002  -0.004   0.002  0.00  0.00    -0.175 NA
BRANCH  16  17
ATOM     17  C   UNL     1       0.024  -0.743   1.267  0.00  0.00    +0.144 C 
BRANCH  17  18
ATOM     18  C   UNL     1      -1.384  -0.909   1.776  0.00  0.00    -0.024 A 
ATOM     19  C   UNL     1      -1.946   0.042   2.607  0.00  0.00    +0.028 A 
ATOM     20  C   UNL     1      -3.216  -0.138   3.048  0.00  0.00    +0.055 A 
ATOM     21  S   UNL     1      -3.656  -1.689   2.282  0.00  0.00    -0.090 S 
ATOM     22  C   UNL     1      -2.121  -1.990   1.422  0.00  0.00    +0.051 A 
ATOM     23 BR   UNL     1      -4.252   0.967   4.180  0.00  0.00    -0.043 Br
ENDBRANCH  17  18
ENDBRANCH  16  17
ENDBRANCH   1  16
TORSDOF 5
