REMARK  Name = ZINC34890285
REMARK  9 active torsions:
REMARK  status: ('A' for Active; 'I' for Inactive)
REMARK    1  A    between atoms: C_1  and  C_2
REMARK    2  A    between atoms: C_7  and  N_12
REMARK    3  A    between atoms: C_9  and  C_11
REMARK    4  A    between atoms: C_14  and  C_19
REMARK    5  A    between atoms: N_21  and  C_22
REMARK    6  A    between atoms: C_22  and  C_23
REMARK    7  A    between atoms: C_23  and  C_24
REMARK    8  A    between atoms: C_27  and  S_30
REMARK    9  A    between atoms: S_30  and  N_33
REMARK                            x       y       z     vdW  Elec       q    Type
REMARK                         _______ _______ _______ _____ _____    ______ ____
ROOT
ATOM      1  C   UNL     1       4.425  -4.228   3.544  0.00  0.00    +0.218 C 
ATOM      2  O   UNL     1       4.231  -5.261   2.940  0.00  0.00    -0.275 OA
ATOM      3  N   UNL     1       5.244  -4.216   4.614  0.00  0.00    -0.315 N 
ATOM      4  H   UNL     1       5.399  -3.390   5.098  0.00  0.00    +0.149 HD
ENDROOT
BRANCH   1   7
ATOM      5  N   UNL     1       1.689  -2.342   2.036  0.00  0.00    -0.297 N 
ATOM      6  C   UNL     1       2.862  -3.207   1.859  0.00  0.00    +0.121 C 
ATOM      7  C   UNL     1       3.749  -2.956   3.099  0.00  0.00    +0.101 C 
ATOM      8  C   UNL     1       2.708  -2.487   4.142  0.00  0.00    +0.110 C 
ATOM      9  C   UNL     1       1.579  -1.923   3.309  0.00  0.00    +0.217 C 
ATOM     10  O   UNL     1       0.700  -1.201   3.728  0.00  0.00    -0.276 OA
BRANCH   5  16
ATOM     11  C   UNL     1      -1.734  -4.084  -1.077  0.00  0.00    +0.008 C 
ATOM     12  C   UNL     1      -0.971  -2.840  -0.618  0.00  0.00    -0.009 C 
ATOM     13  C   UNL     1      -0.184  -2.260  -1.796  0.00  0.00    +0.003 C 
ATOM     14  C   UNL     1       0.579  -1.017  -1.337  0.00  0.00    +0.002 C 
ATOM     15  C   UNL     1       1.548  -1.398  -0.215  0.00  0.00    +0.023 C 
ATOM     16  C   UNL     1       0.762  -1.977   0.963  0.00  0.00    +0.079 C 
ATOM     17  C   UNL     1      -0.002  -3.221   0.504  0.00  0.00    +0.009 C 
ATOM     18  C   UNL     1       0.989  -4.266  -0.012  0.00  0.00    +0.009 C 
ENDBRANCH   5  16
ENDBRANCH   1   7
BRANCH   3  19
ATOM     19  C   UNL     1       5.901  -5.452   5.047  0.00  0.00    +0.109 C 
BRANCH  19  20
ATOM     20  C   UNL     1       6.769  -5.166   6.274  0.00  0.00    +0.054 C 
BRANCH  20  21
ATOM     21  C   UNL     1       7.444  -6.438   6.720  0.00  0.00    -0.046 A 
ATOM     22  C   UNL     1       6.822  -7.267   7.634  0.00  0.00    +0.005 A 
ATOM     23  C   UNL     1       7.442  -8.433   8.042  0.00  0.00    +0.029 A 
ATOM     24  C   UNL     1       8.683  -8.770   7.536  0.00  0.00    +0.105 A 
ATOM     25  C   UNL     1       9.305  -7.941   6.621  0.00  0.00    +0.029 A 
ATOM     26  C   UNL     1       8.683  -6.777   6.209  0.00  0.00    +0.005 A 
BRANCH  24  27
ATOM     27  S   UNL     1       9.473 -10.256   8.057  0.00  0.00    +0.056 S 
ATOM     28  O   UNL     1      10.867 -10.069   7.851  0.00  0.00    -0.153 OA
ATOM     29  O   UNL     1       8.929 -10.581   9.329  0.00  0.00    -0.153 OA
BRANCH  27  30
ATOM     30  N   UNL     1       8.997 -11.455   7.019  0.00  0.00    -0.204 NA
ATOM     31  H   UNL     1       8.389 -11.252   6.291  0.00  0.00    +0.144 HD
ATOM     32  H   UNL     1       9.327 -12.359   7.138  0.00  0.00    +0.144 HD
ENDBRANCH  27  30
ENDBRANCH  24  27
ENDBRANCH  20  21
ENDBRANCH  19  20
ENDBRANCH   3  19
TORSDOF 7
