REMARK  Name = ZINC20762903
REMARK  5 active torsions:
REMARK  status: ('A' for Active; 'I' for Inactive)
REMARK    1  A    between atoms: C_1  and  C_2
REMARK    2  A    between atoms: C_5  and  C_8
REMARK    3  A    between atoms: C_10  and  C_24
REMARK    4  A    between atoms: C_13  and  C_16
REMARK    5  A    between atoms: C_21  and  O_22
REMARK                            x       y       z     vdW  Elec       q    Type
REMARK                         _______ _______ _______ _____ _____    ______ ____
ROOT
ATOM      1  C   UNL     1       2.322   0.981  -0.003  0.00  0.00    +0.047 C 
ATOM      2  N   UNL     1       2.407  -0.295   0.009  0.00  0.00    -0.264 NA
ATOM      3  C   UNL     1       3.663  -1.033  -0.048  0.00  0.00    +0.205 C 
ATOM      4  N   UNL     1       4.790  -0.163   0.312  0.00  0.00    -0.284 NA
ATOM      5  C   UNL     1       4.752   1.075  -0.486  0.00  0.00    +0.095 C 
ATOM      6  C   UNL     1       3.524   1.883  -0.055  0.00  0.00    +0.079 C 
ATOM      7  H   UNL     1       4.728   0.095   1.379  0.00  0.00    +0.125 HD
ENDROOT
BRANCH   1  12
ATOM      8  C   UNL     1      -2.902   3.383   0.178  0.00  0.00    +0.044 C 
ATOM      9  C   UNL     1      -1.533   2.754   0.130  0.00  0.00    -0.050 A 
ATOM     10  C   UNL     1      -1.408   1.376   0.131  0.00  0.00    +0.004 A 
ATOM     11  C   UNL     1      -0.159   0.793   0.093  0.00  0.00    +0.010 A 
ATOM     12  C   UNL     1       0.982   1.598   0.044  0.00  0.00    -0.004 A 
ATOM     13  C   UNL     1       0.848   2.988   0.038  0.00  0.00    +0.010 A 
ATOM     14  C   UNL     1      -0.407   3.557   0.081  0.00  0.00    +0.004 A 
ENDBRANCH   1  12
BRANCH   5  15
ATOM     15  C   UNL     1       6.002   1.878  -0.238  0.00  0.00    +0.012 A 
ATOM     16  C   UNL     1       6.767   1.637   0.887  0.00  0.00    +0.024 A 
ATOM     17  C   UNL     1       7.918   2.371   1.112  0.00  0.00    +0.018 A 
ATOM     18  C   UNL     1       8.300   3.355   0.217  0.00  0.00    +0.019 A 
ATOM     19  C   UNL     1       7.535   3.602  -0.907  0.00  0.00    +0.047 A 
ATOM     20  C   UNL     1       6.383   2.864  -1.137  0.00  0.00    +0.122 A 
ATOM     21 BR   UNL     1       8.966   2.035   2.649  0.00  0.00    -0.050 Br
BRANCH  20  22
ATOM     22  O   UNL     1       5.629   3.106  -2.242  0.00  0.00    -0.506 OA
ATOM     23  H   UNL     1       5.932   3.887  -2.954  0.00  0.00    +0.292 HD
ENDBRANCH  20  22
ENDBRANCH   5  15
BRANCH   3  24
ATOM     24  C   UNL     1       3.870  -1.562  -1.444  0.00  0.00    +0.009 A 
ATOM     25  C   UNL     1       3.285  -0.920  -2.520  0.00  0.00    +0.008 A 
ATOM     26  C   UNL     1       3.474  -1.406  -3.800  0.00  0.00    +0.000 A 
ATOM     27  C   UNL     1       4.249  -2.532  -4.005  0.00  0.00    +0.001 A 
ATOM     28  C   UNL     1       4.835  -3.174  -2.930  0.00  0.00    +0.020 A 
ATOM     29  C   UNL     1       4.650  -2.686  -1.649  0.00  0.00    +0.047 A 
ATOM     30 CL   UNL     1       5.391  -3.487  -0.299  0.00  0.00    -0.083 Cl
ENDBRANCH   3  24
TORSDOF 4
