REMARK  Name = ZINC01424307
REMARK  12 active torsions:
REMARK  status: ('A' for Active; 'I' for Inactive)
REMARK    1  A    between atoms: C_1  and  C_2
REMARK    2  A    between atoms: C_4  and  O_32
REMARK    3  A    between atoms: C_5  and  S_10
REMARK    4  A    between atoms: C_6  and  C_9
REMARK    5  A    between atoms: S_10  and  N_13
REMARK    6  A    between atoms: N_13  and  C_14
REMARK    7  A    between atoms: C_14  and  C_15
REMARK    8  A    between atoms: C_15  and  C_16
REMARK    9  A    between atoms: C_17  and  C_31
REMARK   10  A    between atoms: C_23  and  O_26
REMARK   11  A    between atoms: O_26  and  C_27
REMARK   12  A    between atoms: O_32  and  C_33
REMARK                            x       y       z     vdW  Elec       q    Type
REMARK                         _______ _______ _______ _____ _____    ______ ____
ROOT
ATOM      1  C   UNL     1      -0.318   2.502   1.935  0.00  0.00    +0.110 C 
ENDROOT
BRANCH   1   2
ATOM      2  N   UNL     1       0.251   1.803   3.090  0.00  0.00    -0.190 NA
ATOM      3  H   UNL     1       0.976   1.171   2.965  0.00  0.00    +0.148 HD
BRANCH   2   4
ATOM      4  S   UNL     1      -0.343   2.092   4.608  0.00  0.00    +0.062 S 
ATOM      5  O   UNL     1       0.386   1.256   5.496  0.00  0.00    -0.153 OA
ATOM      6  O   UNL     1      -0.395   3.504   4.762  0.00  0.00    -0.153 OA
BRANCH   4  11
ATOM      7  C   UNL     1      -6.056   0.139   4.693  0.00  0.00    +0.045 C 
ATOM      8  C   UNL     1      -4.629   0.625   4.673  0.00  0.00    -0.028 A 
ATOM      9  C   UNL     1      -3.632  -0.138   5.250  0.00  0.00    +0.052 A 
ATOM     10  C   UNL     1      -2.319   0.309   5.231  0.00  0.00    +0.147 A 
ATOM     11  C   UNL     1      -2.010   1.522   4.633  0.00  0.00    +0.151 A 
ATOM     12  C   UNL     1      -3.010   2.284   4.062  0.00  0.00    -0.002 A 
ATOM     13  C   UNL     1      -4.319   1.834   4.077  0.00  0.00    +0.049 A 
ATOM     14 CL   UNL     1      -5.573   2.791   3.353  0.00  0.00    -0.083 Cl
ATOM     15  C   UNL     1      -2.675   3.604   3.417  0.00  0.00    +0.047 C 
BRANCH  10  16
ATOM     16  O   UNL     1      -1.337  -0.440   5.799  0.00  0.00    -0.493 OA
ATOM     17  C   UNL     1      -1.729  -1.678   6.397  0.00  0.00    +0.277 C 
ENDBRANCH  10  16
ENDBRANCH   4  11
ENDBRANCH   2   4
ENDBRANCH   1   2
BRANCH   1  18
ATOM     18  C   UNL     1       0.622   2.356   0.737  0.00  0.00    +0.054 C 
BRANCH  18  19
ATOM     19  C   UNL     1       0.036   3.075  -0.451  0.00  0.00    -0.018 A 
ATOM     20  C   UNL     1      -0.784   2.552  -1.377  0.00  0.00    +0.017 A 
ATOM     21  N   UNL     1      -1.112   3.505  -2.302  0.00  0.00    -0.358 N 
ATOM     22  H   UNL     1      -1.694   3.364  -3.064  0.00  0.00    +0.166 HD
ATOM     23  C   UNL     1      -0.487   4.694  -1.991  0.00  0.00    +0.047 A 
ATOM     24  C   UNL     1       0.259   4.476  -0.818  0.00  0.00    +0.007 A 
ATOM     25  C   UNL     1       1.005   5.516  -0.262  0.00  0.00    +0.056 A 
ATOM     26  C   UNL     1       1.005   6.756  -0.869  0.00  0.00    +0.131 A 
ATOM     27  C   UNL     1       0.266   6.970  -2.029  0.00  0.00    +0.048 A 
ATOM     28  C   UNL     1      -0.474   5.950  -2.587  0.00  0.00    +0.030 A 
ATOM     29  C   UNL     1      -1.272   1.126  -1.393  0.00  0.00    +0.063 C 
BRANCH  26  30
ATOM     30  O   UNL     1       1.730   7.774  -0.331  0.00  0.00    -0.406 OA
BRANCH  30  31
ATOM     31  C   UNL     1       1.686   9.031  -1.010  0.00  0.00    +0.575 C 
ATOM     32  F   UNL     1       0.366   9.491  -1.053  0.00  0.00    -0.133 F 
ATOM     33  F   UNL     1       2.481   9.957  -0.327  0.00  0.00    -0.133 F 
ATOM     34  F   UNL     1       2.168   8.874  -2.314  0.00  0.00    -0.133 F 
ENDBRANCH  30  31
ENDBRANCH  26  30
ENDBRANCH  18  19
ENDBRANCH   1  18
TORSDOF 8
