REMARK  Name = ZINC33396856
REMARK  9 active torsions:
REMARK  status: ('A' for Active; 'I' for Inactive)
REMARK    1  A    between atoms: C_1  and  C_2
REMARK    2  A    between atoms: C_2  and  C_3
REMARK    3  A    between atoms: C_3  and  C_4
REMARK    4  A    between atoms: C_4  and  C_5
REMARK    5  A    between atoms: C_5  and  C_6
REMARK    6  A    between atoms: C_15  and  C_19
REMARK    7  A    between atoms: N_21  and  C_22
REMARK    8  A    between atoms: C_22  and  C_23
REMARK    9  A    between atoms: C_23  and  C_24
REMARK                            x       y       z     vdW  Elec       q    Type
REMARK                         _______ _______ _______ _____ _____    ______ ____
ROOT
ATOM      1  C   UNL     1       0.000   1.080   2.488  0.00  0.00    +0.216 C 
ATOM      2  O   UNL     1       0.994   0.397   2.363  0.00  0.00    -0.276 OA
ATOM      3  N   UNL     1      -0.453   1.393   3.718  0.00  0.00    -0.302 N 
ATOM      4  C   UNL     1      -1.653   2.224   3.883  0.00  0.00    +0.107 C 
ATOM      5  C   UNL     1      -1.312   3.416   4.778  0.00  0.00    +0.017 C 
ATOM      6  C   UNL     1      -0.685   2.917   6.073  0.00  0.00    -0.016 C 
ATOM      7  C   UNL     1       0.581   2.116   5.806  0.00  0.00    +0.017 C 
ATOM      8  C   UNL     1       0.248   0.913   4.917  0.00  0.00    +0.107 C 
ATOM      9  N   UNL     1      -1.651   2.136   6.863  0.00  0.00    +0.397 N 
ATOM     10  C   UNL     1      -1.888   2.612   8.230  0.00  0.00    +0.028 C 
ATOM     11  C   UNL     1      -1.728   4.159   8.312  0.00  0.00    +0.061 C 
ATOM     12  S   UNL     1      -0.293   4.347   7.158  0.00  0.00    -0.174 S 
ATOM     13  H   UNL     1      -2.629   2.145   6.360  0.00  0.00    -0.083 HD
ATOM     14  H   UNL     1      -1.296   1.099   6.955  0.00  0.00    -0.083 HD
ENDROOT
BRANCH  10  15
ATOM     15  C   UNL     1      -3.285   2.235   8.651  0.00  0.00    +0.200 C 
ATOM     16  O   UNL     1      -4.007   1.631   7.887  0.00  0.00    -0.278 OA
ATOM     17  N   UNL     1      -3.732   2.570   9.878  0.00  0.00    -0.316 N 
ATOM     18  H   UNL     1      -3.077   3.118  10.571  0.00  0.00    +0.149 HD
BRANCH  17  19
ATOM     19  C   UNL     1      -5.090   2.203  10.288  0.00  0.00    +0.109 C 
BRANCH  19  20
ATOM     20  C   UNL     1      -5.343   2.698  11.713  0.00  0.00    +0.055 C 
BRANCH  20  21
ATOM     21  C   UNL     1      -6.740   2.321  12.135  0.00  0.00    -0.027 A 
ATOM     22  C   UNL     1      -7.773   3.229  11.995  0.00  0.00    +0.006 A 
ATOM     23  C   UNL     1      -9.055   2.882  12.376  0.00  0.00    +0.020 A 
ATOM     24  C   UNL     1      -9.304   1.629  12.909  0.00  0.00    +0.042 A 
ATOM     25  C   UNL     1      -8.270   0.722  13.054  0.00  0.00    +0.040 A 
ATOM     26  C   UNL     1      -6.987   1.068  12.667  0.00  0.00    +0.046 A 
ATOM     27 CL   UNL     1      -5.689  -0.069  12.850  0.00  0.00    -0.083 Cl
ATOM     28 CL   UNL     1     -10.913   1.196  13.394  0.00  0.00    -0.083 Cl
ENDBRANCH  20  21
ENDBRANCH  19  20
ENDBRANCH  17  19
ENDBRANCH  10  15
BRANCH   1  29
ATOM     29  C   UNL     1      -0.729   1.579   1.267  0.00  0.00    +0.096 C 
BRANCH  29  30
ATOM     30  C   UNL     1      -0.013   1.086   0.008  0.00  0.00    +0.009 C 
BRANCH  30  31
ATOM     31  C   UNL     1      -0.753   1.593  -1.232  0.00  0.00    +0.000 C 
BRANCH  31  33
ATOM     32  C   UNL     1      -0.777   1.606  -3.730  0.00  0.00    +0.004 C 
ATOM     33  C   UNL     1      -0.037   1.099  -2.490  0.00  0.00    -0.003 C 
ENDBRANCH  31  33
ENDBRANCH  30  31
ENDBRANCH  29  30
ENDBRANCH   1  29
TORSDOF 8
