REMARK  Name = ZINC22067557
REMARK  14 active torsions:
REMARK  status: ('A' for Active; 'I' for Inactive)
REMARK    1  A    between atoms: C_1  and  C_2
REMARK    2  A    between atoms: C_2  and  C_3
REMARK    3  A    between atoms: C_2  and  C_4
REMARK    4  A    between atoms: C_4  and  C_6
REMARK    5  A    between atoms: C_4  and  N_24
REMARK    6  A    between atoms: C_11  and  C_14
REMARK    7  A    between atoms: C_17  and  C_19
REMARK    8  A    between atoms: C_19  and  N_20
REMARK    9  A    between atoms: C_21  and  C_23
REMARK   10  A    between atoms: C_25  and  C_27
REMARK   11  A    between atoms: C_30  and  C_33
REMARK   12  A    between atoms: C_33  and  C_34
REMARK   13  A    between atoms: C_33  and  C_35
REMARK   14  A    between atoms: C_33  and  C_36
REMARK                            x       y       z     vdW  Elec       q    Type
REMARK                         _______ _______ _______ _____ _____    ______ ____
ROOT
ATOM      1  C   UNL     1      -2.179   1.366   1.258  0.00  0.00    +0.239 C 
ATOM      2  O   UNL     1      -2.513   0.971   2.355  0.00  0.00    -0.273 OA
ATOM      3  N   UNL     1      -3.027   1.255   0.216  0.00  0.00    -0.263 N 
ATOM      4  C   UNL     1      -4.249   0.614   0.379  0.00  0.00    +0.165 A 
ATOM      5  N   UNL     1      -5.205   0.405  -0.505  0.00  0.00    -0.221 NA
ATOM      6  C   UNL     1      -6.324  -0.236  -0.173  0.00  0.00    +0.115 A 
ATOM      7  C   UNL     1      -6.480  -0.684   1.112  0.00  0.00    +0.080 A 
ATOM      8  S   UNL     1      -4.936  -0.152   1.840  0.00  0.00    -0.060 S 
ATOM      9  H   UNL     1      -2.752   1.673  -0.764  0.00  0.00    +0.157 HD
ENDROOT
BRANCH   6  10
ATOM     10  C   UNL     1      -7.384  -0.460  -1.177  0.00  0.00    +0.154 A 
ATOM     11  C   UNL     1      -7.350  -0.060  -2.476  0.00  0.00    +0.052 A 
ATOM     12  C   UNL     1      -8.561  -0.484  -3.063  0.00  0.00    +0.047 A 
ATOM     13  C   UNL     1      -9.269  -1.107  -2.102  0.00  0.00    +0.123 A 
ATOM     14  O   UNL     1      -8.555  -1.091  -0.963  0.00  0.00    -0.457 OA
BRANCH  13  15
ATOM     15  C   UNL     1     -10.634  -1.721  -2.275  0.00  0.00    +0.178 C 
BRANCH  15  16
ATOM     16  N   UNL     1     -10.492  -3.122  -2.679  0.00  0.00    -0.308 N 
ATOM     17  C   UNL     1     -11.589  -3.876  -2.893  0.00  0.00    +0.210 C 
ATOM     18  O   UNL     1     -12.693  -3.394  -2.750  0.00  0.00    -0.276 OA
ATOM     19  C   UNL     1     -11.443  -5.316  -3.309  0.00  0.00    +0.109 C 
ATOM     20  H   UNL     1      -9.491  -3.558  -2.808  0.00  0.00    +0.149 HD
ENDBRANCH  15  16
ENDBRANCH  13  15
ENDBRANCH   6  10
BRANCH   1  21
ATOM     21  C   UNL     1      -0.817   1.979   1.059  0.00  0.00    +0.162 C 
BRANCH  21  22
ATOM     22  N   UNL     1      -0.271   2.384   2.357  0.00  0.00    -0.300 N 
ATOM     23  C   UNL     1       0.648   3.368   2.423  0.00  0.00    +0.245 C 
ATOM     24  O   UNL     1       1.022   3.920   1.407  0.00  0.00    -0.270 OA
ATOM     25  H   UNL     1      -0.610   1.885   3.276  0.00  0.00    +0.150 HD
BRANCH  23  26
ATOM     26  C   UNL     1       1.200   3.777   3.732  0.00  0.00    +0.037 A 
ATOM     27  C   UNL     1       0.767   3.150   4.902  0.00  0.00    +0.013 A 
ATOM     28  C   UNL     1       1.289   3.534   6.120  0.00  0.00    +0.005 A 
ATOM     29  C   UNL     1       2.232   4.545   6.185  0.00  0.00    -0.042 A 
ATOM     30  C   UNL     1       2.661   5.173   5.030  0.00  0.00    +0.005 A 
ATOM     31  C   UNL     1       2.151   4.796   3.805  0.00  0.00    +0.013 A 
BRANCH  29  32
ATOM     32  C   UNL     1       2.794   4.962   7.519  0.00  0.00    -0.013 C 
ATOM     33  C   UNL     1       2.484   6.440   7.764  0.00  0.00    +0.015 C 
ATOM     34  C   UNL     1       2.159   4.118   8.627  0.00  0.00    +0.015 C 
ATOM     35  C   UNL     1       4.309   4.751   7.523  0.00  0.00    +0.015 C 
ENDBRANCH  29  32
ENDBRANCH  23  26
ENDBRANCH  21  22
BRANCH  21  37
ATOM     36  C   UNL     1       0.311  -0.230   1.362  0.00  0.00    +0.009 C 
ATOM     37  C   UNL     1       0.115   0.953   0.411  0.00  0.00    +0.012 C 
ATOM     38  C   UNL     1       1.468   1.605   0.121  0.00  0.00    +0.009 C 
ENDBRANCH  21  37
ENDBRANCH   1  21
TORSDOF 8
