REMARK  Name = ZINC14545065
REMARK  5 active torsions:
REMARK  status: ('A' for Active; 'I' for Inactive)
REMARK    1  A    between atoms: C_7  and  C_11
REMARK    2  A    between atoms: C_22  and  O_27
REMARK    3  A    between atoms: O_27  and  C_28
REMARK    4  A    between atoms: C_28  and  C_29
REMARK    5  A    between atoms: C_29  and  C_30
REMARK                            x       y       z     vdW  Elec       q    Type
REMARK                         _______ _______ _______ _____ _____    ______ ____
ROOT
ATOM      1  C   UNL     1       3.028   5.065   0.002  0.00  0.00    +0.107 C 
ATOM      2  C   UNL     1       2.951   5.649  -1.398  0.00  0.00    +0.029 C 
ATOM      3  C   UNL     1       1.551   5.892  -1.978  0.00  0.00    +0.033 C 
ATOM      4  C   UNL     1       1.807   7.075  -2.914  0.00  0.00    -0.030 C 
ATOM      5  C   UNL     1       2.860   7.766  -2.495  0.00  0.00    -0.023 C 
ATOM      6  C   UNL     1       3.372   7.141  -1.249  0.00  0.00    +0.049 C 
ATOM      7  C   UNL     1       4.805   7.178  -0.886  0.00  0.00    -0.016 A 
ATOM      8  C   UNL     1       5.656   8.166  -1.331  0.00  0.00    +0.051 A 
ATOM      9  C   UNL     1       6.989   8.165  -0.949  0.00  0.00    +0.121 A 
ATOM     10  C   UNL     1       7.468   7.165  -0.116  0.00  0.00    +0.047 A 
ATOM     11  C   UNL     1       6.622   6.170   0.327  0.00  0.00    +0.027 A 
ATOM     12  C   UNL     1       5.287   6.159  -0.056  0.00  0.00    +0.032 A 
ATOM     13  N   UNL     1       4.457   5.114   0.377  0.00  0.00    -0.336 N 
ATOM     14  H   UNL     1       4.828   4.411   0.933  0.00  0.00    +0.147 HD
ENDROOT
BRANCH   1  21
ATOM     15  C   UNL     1      -1.246   3.139   0.030  0.00  0.00    +0.001 A 
ATOM     16  C   UNL     1      -1.213   1.751   0.017  0.00  0.00    +0.002 A 
ATOM     17  C   UNL     1      -0.013   1.076   0.008  0.00  0.00    +0.026 A 
ATOM     18  C   UNL     1       1.181   1.790   0.000  0.00  0.00    +0.047 A 
ATOM     19  C   UNL     1       1.143   3.196   0.008  0.00  0.00    +0.005 A 
ATOM     20  C   UNL     1      -0.085   3.860   0.023  0.00  0.00    +0.010 A 
ATOM     21  C   UNL     1       2.539   3.639  -0.002  0.00  0.00    -0.002 A 
ATOM     22  C   UNL     1       3.301   2.534  -0.014  0.00  0.00    +0.089 A 
ATOM     23  N   UNL     1       2.507   1.420  -0.013  0.00  0.00    -0.360 N 
ATOM     24  H   UNL     1       2.831   0.505  -0.021  0.00  0.00    +0.165 HD
ENDBRANCH   1  21
BRANCH   9  25
ATOM     25  O   UNL     1       7.825   9.142  -1.393  0.00  0.00    -0.492 OA
BRANCH  25  26
ATOM     26  C   UNL     1       9.186   9.077  -0.959  0.00  0.00    +0.229 C 
BRANCH  26  27
ATOM     27  C   UNL     1       9.967  10.250  -1.555  0.00  0.00    +0.044 C 
BRANCH  27  28
ATOM     28  C   UNL     1      11.423  10.181  -1.091  0.00  0.00    -0.008 C 
ATOM     29  C   UNL     1      11.486  10.381   0.424  0.00  0.00    +0.003 C 
ATOM     30  C   UNL     1      12.942  10.311   0.888  0.00  0.00    +0.000 C 
ATOM     31  C   UNL     1      13.751  11.409   0.195  0.00  0.00    +0.000 C 
ATOM     32  C   UNL     1      13.689  11.209  -1.320  0.00  0.00    +0.000 C 
ATOM     33  C   UNL     1      12.232  11.279  -1.784  0.00  0.00    +0.003 C 
ENDBRANCH  27  28
ENDBRANCH  26  27
ENDBRANCH  25  26
ENDBRANCH   9  25
TORSDOF 5
