REMARK  Name = ZINC04505048
REMARK  11 active torsions:
REMARK  status: ('A' for Active; 'I' for Inactive)
REMARK    1  A    between atoms: C_1  and  C_2
REMARK    2  A    between atoms: C_2  and  C_22
REMARK    3  A    between atoms: N_3  and  N_4
REMARK    4  A    between atoms: C_5  and  C_7
REMARK    5  A    between atoms: C_10  and  C_12
REMARK    6  A    between atoms: C_15  and  C_18
REMARK    7  A    between atoms: C_18  and  C_19
REMARK    8  A    between atoms: C_18  and  C_20
REMARK    9  A    between atoms: C_18  and  C_21
REMARK   10  A    between atoms: C_23  and  C_24
REMARK   11  A    between atoms: C_25  and  C_26
REMARK                            x       y       z     vdW  Elec       q    Type
REMARK                         _______ _______ _______ _____ _____    ______ ____
ROOT
ATOM      1  N   UNL     1      -1.181   3.579  -0.067  0.00  0.00    -0.207 N 
ATOM      2  C   UNL     1      -2.357   4.231  -0.149  0.00  0.00    +0.236 C 
ATOM      3  O   UNL     1      -3.398   3.609  -0.146  0.00  0.00    -0.274 OA
ATOM      4  H   UNL     1      -0.348   4.076  -0.070  0.00  0.00    +0.177 HD
ENDROOT
BRANCH   1   7
ATOM      5  C   UNL     1      -0.005   0.035  -0.017  0.00  0.00    +0.067 C 
ATOM      6  C   UNL     1      -0.024   1.542   0.002  0.00  0.00    +0.056 C 
ATOM      7  N   UNL     1      -1.161   2.180   0.022  0.00  0.00    -0.185 NA
BRANCH   6   8
ATOM      8  C   UNL     1       1.192   2.264  -0.007  0.00  0.00    +0.024 C 
ATOM      9  C   UNL     1       2.374   1.604   0.083  0.00  0.00    +0.002 C 
BRANCH   9  10
ATOM     10  C   UNL     1       3.583   2.329   0.178  0.00  0.00    +0.001 C 
ATOM     11  C   UNL     1       4.760   1.671   0.268  0.00  0.00    +0.008 C 
BRANCH  11  12
ATOM     12  C   UNL     1       6.019   2.425   0.367  0.00  0.00    -0.025 A 
ATOM     13  C   UNL     1       6.002   3.824   0.364  0.00  0.00    +0.008 A 
ATOM     14  C   UNL     1       7.186   4.524   0.463  0.00  0.00    +0.001 A 
ATOM     15  C   UNL     1       8.389   3.846   0.554  0.00  0.00    +0.000 A 
ATOM     16  C   UNL     1       8.415   2.462   0.552  0.00  0.00    +0.001 A 
ATOM     17  C   UNL     1       7.239   1.748   0.460  0.00  0.00    +0.008 A 
ENDBRANCH  11  12
ENDBRANCH   9  10
ENDBRANCH   6   8
ENDBRANCH   1   7
BRANCH   2  18
ATOM     18  C   UNL     1      -2.379   5.735  -0.245  0.00  0.00    +0.085 C 
ATOM     19  C   UNL     1      -2.927   6.512   0.953  0.00  0.00    +0.022 C 
ATOM     20  C   UNL     1      -3.745   6.418  -0.336  0.00  0.00    +0.032 C 
BRANCH  20  21
ATOM     21  C   UNL     1      -4.966   5.535  -0.323  0.00  0.00    -0.044 A 
ATOM     22  C   UNL     1      -5.209   4.707   0.757  0.00  0.00    +0.004 A 
ATOM     23  C   UNL     1      -6.331   3.900   0.771  0.00  0.00    +0.004 A 
ATOM     24  C   UNL     1      -7.206   3.914  -0.299  0.00  0.00    -0.042 A 
ATOM     25  C   UNL     1      -6.960   4.738  -1.382  0.00  0.00    +0.004 A 
ATOM     26  C   UNL     1      -5.840   5.548  -1.394  0.00  0.00    +0.004 A 
BRANCH  24  27
ATOM     27  C   UNL     1      -8.428   3.032  -0.286  0.00  0.00    -0.013 C 
ATOM     28  C   UNL     1      -8.377   2.072  -1.476  0.00  0.00    +0.015 C 
ATOM     29  C   UNL     1      -8.462   2.228   1.016  0.00  0.00    +0.015 C 
ATOM     30  C   UNL     1      -9.684   3.899  -0.383  0.00  0.00    +0.015 C 
ENDBRANCH  24  27
ENDBRANCH  20  21
ENDBRANCH   2  18
TORSDOF 7
