REMARK  Name = ZINC13640867
REMARK  8 active torsions:
REMARK  status: ('A' for Active; 'I' for Inactive)
REMARK    1  A    between atoms: C_1  and  C_2
REMARK    2  A    between atoms: C_15  and  C_18
REMARK    3  A    between atoms: C_20  and  O_28
REMARK    4  A    between atoms: C_21  and  O_26
REMARK    5  A    between atoms: C_22  and  O_24
REMARK    6  A    between atoms: O_24  and  C_25
REMARK    7  A    between atoms: O_26  and  C_27
REMARK    8  A    between atoms: O_28  and  C_29
REMARK                            x       y       z     vdW  Elec       q    Type
REMARK                         _______ _______ _______ _____ _____    ______ ____
ROOT
ATOM      1  C   UNL     1      -0.514   0.335   4.719  0.00  0.00    +0.044 C 
ATOM      2  C   UNL     1      -0.900   1.063   3.458  0.00  0.00    -0.050 A 
ATOM      3  C   UNL     1      -1.874   2.044   3.499  0.00  0.00    +0.005 A 
ATOM      4  C   UNL     1      -2.225   2.709   2.342  0.00  0.00    +0.023 A 
ATOM      5  C   UNL     1      -1.602   2.392   1.141  0.00  0.00    +0.031 A 
ATOM      6  C   UNL     1      -0.631   1.424   1.087  0.00  0.00    -0.019 A 
ATOM      7  C   UNL     1      -0.280   0.748   2.265  0.00  0.00    +0.009 A 
ATOM      8  C   UNL     1       0.073   1.034  -0.174  0.00  0.00    +0.049 C 
ATOM      9  C   UNL     1       1.478   1.586  -0.214  0.00  0.00    -0.023 C 
ATOM     10  C   UNL     1       1.788   1.949  -1.435  0.00  0.00    -0.030 C 
ATOM     11  C   UNL     1       0.631   1.682  -2.378  0.00  0.00    +0.033 C 
ATOM     12  C   UNL     1      -0.601   1.623  -1.428  0.00  0.00    +0.029 C 
ATOM     13  C   UNL     1      -1.039   3.065  -1.158  0.00  0.00    +0.105 C 
ATOM     14  N   UNL     1      -1.968   3.075  -0.023  0.00  0.00    -0.336 N 
ATOM     15  H   UNL     1      -2.815   3.545  -0.079  0.00  0.00    +0.147 HD
ENDROOT
BRANCH  13  16
ATOM     16  C   UNL     1       0.169   3.905  -0.830  0.00  0.00    -0.020 A 
ATOM     17  C   UNL     1       0.857   4.548  -1.841  0.00  0.00    +0.055 A 
ATOM     18  C   UNL     1       1.964   5.327  -1.543  0.00  0.00    +0.165 A 
ATOM     19  C   UNL     1       2.389   5.451  -0.226  0.00  0.00    +0.204 A 
ATOM     20  C   UNL     1       1.698   4.798   0.788  0.00  0.00    +0.165 A 
ATOM     21  C   UNL     1       0.588   4.026   0.482  0.00  0.00    +0.055 A 
BRANCH  20  22
ATOM     22  O   UNL     1       2.111   4.917   2.079  0.00  0.00    -0.491 OA
ATOM     23  C   UNL     1       1.353   4.217   3.068  0.00  0.00    +0.277 C 
ENDBRANCH  20  22
BRANCH  19  24
ATOM     24  O   UNL     1       3.479   6.211   0.071  0.00  0.00    -0.488 OA
ATOM     25  C   UNL     1       4.748   5.554   0.067  0.00  0.00    +0.277 C 
ENDBRANCH  19  24
BRANCH  18  26
ATOM     26  O   UNL     1       2.638   5.964  -2.538  0.00  0.00    -0.491 OA
ATOM     27  C   UNL     1       2.144   5.791  -3.869  0.00  0.00    +0.277 C 
ENDBRANCH  18  26
ENDBRANCH  13  16
TORSDOF 4
