REMARK  Name = ZINC06166479
REMARK  6 active torsions:
REMARK  status: ('A' for Active; 'I' for Inactive)
REMARK    1  A    between atoms: C_1  and  C_2
REMARK    2  A    between atoms: N_13  and  C_16
REMARK    3  A    between atoms: C_16  and  C_18
REMARK    4  A    between atoms: C_16  and  C_19
REMARK    5  A    between atoms: N_21  and  N_22
REMARK    6  A    between atoms: C_23  and  C_24
REMARK                            x       y       z     vdW  Elec       q    Type
REMARK                         _______ _______ _______ _____ _____    ______ ____
ROOT
ATOM      1  C   UNL     1      -0.011  -0.004  -0.005  0.00  0.00    +0.176 C 
ATOM      2  C   UNL     1      -0.732  -0.525  -1.251  0.00  0.00    +0.041 C 
ENDROOT
BRANCH   1  14
ATOM      3  C   UNL     1       5.308   7.522   0.055  0.00  0.00    +0.008 C 
ATOM      4  C   UNL     1       4.256   6.451   0.350  0.00  0.00    -0.009 C 
ATOM      5  C   UNL     1       4.542   5.205  -0.493  0.00  0.00    +0.008 C 
ATOM      6  C   UNL     1       3.658   4.048  -0.026  0.00  0.00    +0.037 C 
ATOM      7  C   UNL     1       2.205   4.513  -0.013  0.00  0.00    -0.023 A 
ATOM      8  C   UNL     1       1.903   5.829  -0.007  0.00  0.00    -0.004 A 
ATOM      9  S   UNL     1       0.131   5.893   0.006  0.00  0.00    -0.073 S 
ATOM     10  C   UNL     1      -0.198   4.149   0.005  0.00  0.00    +0.116 A 
ATOM     11  C   UNL     1       1.083   3.575  -0.006  0.00  0.00    +0.076 A 
ATOM     12  C   UNL     1       1.122   2.142  -0.009  0.00  0.00    +0.263 A 
ATOM     13  O   UNL     1       2.188   1.550  -0.017  0.00  0.00    -0.267 OA
ATOM     14  N   UNL     1      -0.039   1.460  -0.002  0.00  0.00    -0.287 N 
ATOM     15  C   UNL     1      -1.235   2.103   0.003  0.00  0.00    +0.204 A 
ATOM     16  N   UNL     1      -1.302   3.407   0.010  0.00  0.00    -0.230 NA
ATOM     17  C   UNL     1       2.861   6.980  -0.011  0.00  0.00    +0.046 C 
ENDBRANCH   1  14
BRANCH   1  18
ATOM     18  C   UNL     1      -0.703  -0.523   1.229  0.00  0.00    +0.255 C 
ATOM     19  O   UNL     1      -1.173   0.255   2.033  0.00  0.00    -0.272 OA
ATOM     20  N   UNL     1      -0.799  -1.851   1.440  0.00  0.00    -0.205 N 
ATOM     21  H   UNL     1      -0.423  -2.472   0.797  0.00  0.00    +0.177 HD
BRANCH  20  22
ATOM     22  N   UNL     1      -1.442  -2.333   2.587  0.00  0.00    -0.188 NA
ATOM     23  C   UNL     1      -1.535  -3.612   2.791  0.00  0.00    +0.139 C 
BRANCH  23  24
ATOM     24  C   UNL     1      -2.211  -4.119   3.996  0.00  0.00    +0.002 A 
ATOM     25  C   UNL     1      -2.417  -5.481   4.174  0.00  0.00    +0.010 A 
ATOM     26  C   UNL     1      -3.049  -5.956   5.315  0.00  0.00    +0.001 A 
ATOM     27  C   UNL     1      -3.499  -5.118   6.288  0.00  0.00    +0.008 A 
ATOM     28  C   UNL     1      -3.330  -3.728   6.172  0.00  0.00    -0.017 A 
ATOM     29  C   UNL     1      -2.684  -3.199   5.028  0.00  0.00    -0.009 A 
ATOM     30  C   UNL     1      -2.513  -1.814   4.909  0.00  0.00    +0.009 A 
ATOM     31  C   UNL     1      -2.971  -0.991   5.894  0.00  0.00    +0.001 A 
ATOM     32  C   UNL     1      -3.606  -1.509   7.021  0.00  0.00    +0.001 A 
ATOM     33  C   UNL     1      -3.788  -2.850   7.169  0.00  0.00    +0.008 A 
ENDBRANCH  23  24
ENDBRANCH  20  22
ENDBRANCH   1  18
TORSDOF 4
