REMARK  Name = ZINC09289305
REMARK  4 active torsions:
REMARK  status: ('A' for Active; 'I' for Inactive)
REMARK    1  A    between atoms: C_1  and  C_2
REMARK    2  A    between atoms: C_3  and  C_8
REMARK    3  A    between atoms: C_5  and  C_7
REMARK    4  A    between atoms: C_11  and  C_17
REMARK                            x       y       z     vdW  Elec       q    Type
REMARK                         _______ _______ _______ _____ _____    ______ ____
ROOT
ATOM      1  C   UNL     1       0.890   3.854  -0.073  0.00  0.00    +0.088 C 
ATOM      2  N   UNL     1       1.690   2.869  -0.307  0.00  0.00    -0.166 NA
ATOM      3  N   UNL     1       1.308   1.540  -0.141  0.00  0.00    -0.186 N 
ATOM      4  C   UNL     1       2.044   0.402   0.012  0.00  0.00    +0.186 A 
ATOM      5  N   UNL     1       1.189  -0.597   0.117  0.00  0.00    -0.126 NA
ATOM      6  N   UNL     1      -0.022  -0.155   0.042  0.00  0.00    -0.120 NA
ATOM      7  C   UNL     1      -0.008   1.135  -0.111  0.00  0.00    +0.213 A 
ATOM      8  S   UNL     1      -1.339   2.282  -0.259  0.00  0.00    -0.078 S 
ATOM      9  C   UNL     1      -0.514   3.739   0.437  0.00  0.00    +0.135 C 
ENDROOT
BRANCH   1  12
ATOM     10  C   UNL     1       3.608   4.594  -1.357  0.00  0.00    +0.067 C 
ATOM     11  C   UNL     1       2.591   5.604  -0.892  0.00  0.00    +0.055 A 
ATOM     12  C   UNL     1       1.400   5.205  -0.328  0.00  0.00    +0.059 A 
ATOM     13  S   UNL     1       0.646   6.792  -0.002  0.00  0.00    -0.071 S 
ATOM     14  C   UNL     1       1.934   7.783  -0.611  0.00  0.00    +0.076 A 
ATOM     15  N   UNL     1       2.813   6.891  -1.012  0.00  0.00    -0.249 NA
ATOM     16  C   UNL     1       2.021   9.287  -0.671  0.00  0.00    +0.073 C 
ENDBRANCH   1  12
BRANCH   4  17
ATOM     17  C   UNL     1       3.518   0.305   0.053  0.00  0.00    +0.021 A 
ATOM     18  C   UNL     1       4.289   1.447   0.280  0.00  0.00    +0.013 A 
ATOM     19  C   UNL     1       5.664   1.350   0.322  0.00  0.00    +0.021 A 
ATOM     20  C   UNL     1       6.281   0.126   0.128  0.00  0.00    +0.041 A 
ATOM     21  C   UNL     1       5.522  -1.010  -0.103  0.00  0.00    +0.021 A 
ATOM     22  C   UNL     1       4.146  -0.926  -0.142  0.00  0.00    +0.013 A 
ATOM     23 CL   UNL     1       8.012   0.013   0.175  0.00  0.00    -0.084 Cl
ENDBRANCH   4  17
TORSDOF 2
