REMARK  Name = ZINC39528087
REMARK  8 active torsions:
REMARK  status: ('A' for Active; 'I' for Inactive)
REMARK    1  A    between atoms: C_4  and  C_7
REMARK    2  A    between atoms: C_7  and  C_8
REMARK    3  A    between atoms: C_11  and  N_21
REMARK    4  A    between atoms: C_12  and  C_14
REMARK    5  A    between atoms: C_14  and  C_15
REMARK    6  A    between atoms: C_25  and  S_28
REMARK    7  A    between atoms: S_28  and  O_31
REMARK    8  A    between atoms: O_31  and  C_32
REMARK                            x       y       z     vdW  Elec       q    Type
REMARK                         _______ _______ _______ _____ _____    ______ ____
ROOT
ATOM      1  C   UNL     1       4.510  -1.329   1.258  0.00  0.00    -0.043 A 
ATOM      2  C   UNL     1       5.404  -0.462   1.860  0.00  0.00    +0.006 A 
ATOM      3  C   UNL     1       5.722  -0.613   3.195  0.00  0.00    +0.023 A 
ATOM      4  C   UNL     1       5.143  -1.637   3.934  0.00  0.00    +0.033 A 
ATOM      5  C   UNL     1       4.246  -2.506   3.326  0.00  0.00    -0.022 A 
ATOM      6  C   UNL     1       3.928  -2.346   1.992  0.00  0.00    +0.009 A 
ENDROOT
BRANCH   4   7
ATOM      7  N   UNL     1       5.463  -1.793   5.285  0.00  0.00    -0.331 N 
ATOM      8  C   UNL     1       6.574  -2.662   5.704  0.00  0.00    +0.086 C 
ATOM      9  C   UNL     1       7.473  -1.873   6.661  0.00  0.00    -0.061 C 
ATOM     10  N   UNL     1       6.665  -1.346   7.768  0.00  0.00    +0.398 N 
ATOM     11  C   UNL     1       5.687  -0.378   7.256  0.00  0.00    +0.133 C 
ATOM     12  C   UNL     1       4.703  -1.088   6.328  0.00  0.00    +0.115 C 
ATOM     13  H   UNL     1       6.179  -2.106   8.220  0.00  0.00    -0.083 HD
ATOM     14  H   UNL     1       7.269  -0.891   8.436  0.00  0.00    -0.083 HD
BRANCH  11  15
ATOM     15  S   UNL     1       4.786   0.363   8.646  0.00  0.00    +0.109 S 
ATOM     16  O   UNL     1       3.964   1.427   8.184  0.00  0.00    -0.138 OA
ATOM     17  O   UNL     1       4.252  -0.656   9.480  0.00  0.00    -0.138 OA
BRANCH  15  18
ATOM     18  O   UNL     1       5.856   1.037   9.492  0.00  0.00    -0.347 OA
BRANCH  18  19
ATOM     19  C   UNL     1       6.330   2.195   8.962  0.00  0.00    +0.156 A 
ATOM     20  C   UNL     1       7.419   2.172   8.103  0.00  0.00    +0.048 A 
ATOM     21  C   UNL     1       7.899   3.350   7.566  0.00  0.00    +0.004 A 
ATOM     22  C   UNL     1       7.296   4.553   7.885  0.00  0.00    +0.000 A 
ATOM     23  C   UNL     1       6.211   4.579   8.741  0.00  0.00    +0.004 A 
ATOM     24  C   UNL     1       5.723   3.403   9.276  0.00  0.00    +0.048 A 
ENDBRANCH  18  19
ENDBRANCH  15  18
ENDBRANCH  11  15
ENDBRANCH   4   7
BRANCH   1  25
ATOM     25  C   UNL     1       4.165  -1.161  -0.199  0.00  0.00    +0.070 C 
BRANCH  25  29
ATOM     26  C   UNL     1       0.809   1.453  -0.579  0.00  0.00    +0.000 A 
ATOM     27  C   UNL     1       2.091   1.970  -0.583  0.00  0.00    +0.000 A 
ATOM     28  C   UNL     1       3.177   1.123  -0.460  0.00  0.00    +0.004 A 
ATOM     29  C   UNL     1       2.981  -0.239  -0.332  0.00  0.00    -0.043 A 
ATOM     30  C   UNL     1       1.699  -0.755  -0.327  0.00  0.00    +0.004 A 
ATOM     31  C   UNL     1       0.613   0.091  -0.452  0.00  0.00    +0.000 A 
ENDBRANCH  25  29
ENDBRANCH   1  25
BRANCH   5  32
ATOM     32  C   UNL     1       3.616  -3.619   4.124  0.00  0.00    +0.072 C 
BRANCH  32  33
ATOM     33  C   UNL     1       2.793  -4.489   3.209  0.00  0.00    -0.043 A 
ATOM     34  C   UNL     1       1.445  -4.236   3.042  0.00  0.00    +0.004 A 
ATOM     35  C   UNL     1       0.690  -5.034   2.203  0.00  0.00    +0.000 A 
ATOM     36  C   UNL     1       1.284  -6.085   1.530  0.00  0.00    +0.000 A 
ATOM     37  C   UNL     1       2.633  -6.338   1.696  0.00  0.00    +0.000 A 
ATOM     38  C   UNL     1       3.389  -5.538   2.532  0.00  0.00    +0.004 A 
ENDBRANCH  32  33
ENDBRANCH   5  32
TORSDOF 8
