REMARK  Name = ZINC00845789
REMARK  5 active torsions:
REMARK  status: ('A' for Active; 'I' for Inactive)
REMARK    1  A    between atoms: C_1  and  C_2
REMARK    2  A    between atoms: C_6  and  N_12
REMARK    3  A    between atoms: N_10  and  C_11
REMARK    4  A    between atoms: N_12  and  C_13
REMARK    5  A    between atoms: C_13  and  C_14
REMARK                            x       y       z     vdW  Elec       q    Type
REMARK                         _______ _______ _______ _____ _____    ______ ____
ROOT
ATOM      1  N   UNL     1       5.498  -0.591  -0.055  0.00  0.00    -0.340 N 
ATOM      2  H   UNL     1       6.027   0.222  -0.056  0.00  0.00    +0.146 HD
ENDROOT
BRANCH   1   8
ATOM      3  C   UNL     1      -1.263   2.202   0.020  0.00  0.00    +0.086 C 
ATOM      4  C   UNL     1      -0.016   1.356   0.009  0.00  0.00    +0.107 A 
ATOM      5  N   UNL     1       1.199   1.820   0.000  0.00  0.00    -0.233 NA
ATOM      6  C   UNL     1       2.082   0.788  -0.014  0.00  0.00    +0.091 A 
ATOM      7  C   UNL     1       3.478   0.717  -0.028  0.00  0.00    +0.052 A 
ATOM      8  C   UNL     1       4.100  -0.517  -0.041  0.00  0.00    +0.030 A 
ATOM      9  C   UNL     1       3.344  -1.688  -0.040  0.00  0.00    +0.025 A 
ATOM     10  C   UNL     1       1.968  -1.629  -0.026  0.00  0.00    +0.030 A 
ATOM     11  C   UNL     1       1.328  -0.397  -0.013  0.00  0.00    +0.069 A 
ATOM     12  N   UNL     1       0.002  -0.004   0.002  0.00  0.00    -0.331 N 
ATOM     13  C   UNL     1      -1.166  -0.888   0.008  0.00  0.00    +0.150 C 
ENDBRANCH   1   8
BRANCH   1  14
ATOM     14  C   UNL     1       6.162  -1.897  -0.070  0.00  0.00    +0.139 C 
BRANCH  14  15
ATOM     15  C   UNL     1       7.656  -1.701  -0.084  0.00  0.00    -0.005 A 
ATOM     16  C   UNL     1       8.461  -1.775  -1.155  0.00  0.00    +0.088 A 
ATOM     17  N   UNL     1       9.756  -1.539  -0.782  0.00  0.00    -0.360 N 
ATOM     18  H   UNL     1      10.518  -1.540  -1.383  0.00  0.00    +0.165 HD
ATOM     19  C   UNL     1       9.818  -1.301   0.572  0.00  0.00    +0.047 A 
ATOM     20  C   UNL     1       8.504  -1.385   1.069  0.00  0.00    +0.004 A 
ATOM     21  C   UNL     1       8.258  -1.180   2.427  0.00  0.00    +0.010 A 
ATOM     22  C   UNL     1       9.296  -0.894   3.269  0.00  0.00    +0.001 A 
ATOM     23  C   UNL     1      10.593  -0.806   2.784  0.00  0.00    +0.002 A 
ATOM     24  C   UNL     1      10.860  -1.012   1.448  0.00  0.00    +0.026 A 
ENDBRANCH  14  15
ENDBRANCH   1  14
TORSDOF 3
