REMARK  Name = ZINC35745254
REMARK  10 active torsions:
REMARK  status: ('A' for Active; 'I' for Inactive)
REMARK    1  A    between atoms: C_3  and  C_6
REMARK    2  A    between atoms: C_6  and  C_7
REMARK    3  A    between atoms: C_6  and  C_27
REMARK    4  A    between atoms: C_6  and  O_32
REMARK    5  A    between atoms: C_10  and  C_12
REMARK    6  A    between atoms: C_12  and  N_13
REMARK    7  A    between atoms: N_13  and  C_14
REMARK    8  A    between atoms: N_13  and  C_20
REMARK    9  A    between atoms: C_14  and  C_15
REMARK   10  A    between atoms: C_20  and  C_21
REMARK                            x       y       z     vdW  Elec       q    Type
REMARK                         _______ _______ _______ _____ _____    ______ ____
ROOT
ATOM      1  C   UNL     1       4.540   0.786   0.591  0.00  0.00    +0.147 A 
ATOM      2  C   UNL     1       5.566   1.187   1.364  0.00  0.00    +0.048 A 
ATOM      3  C   UNL     1       6.145   0.019   1.913  0.00  0.00    +0.043 A 
ATOM      4  C   UNL     1       5.439  -1.024   1.442  0.00  0.00    +0.089 A 
ATOM      5  O   UNL     1       4.465  -0.554   0.646  0.00  0.00    -0.463 OA
ENDROOT
BRANCH   1   6
ATOM      6  C   UNL     1       3.627   1.688  -0.199  0.00  0.00    +0.186 C 
BRANCH   6   9
ATOM      7  C   UNL     1      -0.079   0.860  -0.494  0.00  0.00    +0.008 A 
ATOM      8  C   UNL     1       1.051   1.651  -0.406  0.00  0.00    +0.015 A 
ATOM      9  C   UNL     1       2.264   1.054  -0.306  0.00  0.00    +0.034 A 
ATOM     10  S   UNL     1       1.829  -0.676  -0.335  0.00  0.00    -0.098 S 
ATOM     11  C   UNL     1       0.059  -0.488  -0.478  0.00  0.00    +0.045 A 
ENDBRANCH   6   9
BRANCH   6  12
ATOM     12  C   UNL     1       4.196   1.894  -1.580  0.00  0.00    +0.034 A 
ATOM     13  C   UNL     1       4.081   2.968  -2.399  0.00  0.00    +0.015 A 
ATOM     14  C   UNL     1       4.694   2.935  -3.637  0.00  0.00    +0.008 A 
ATOM     15  C   UNL     1       5.392   1.830  -3.996  0.00  0.00    +0.045 A 
ATOM     16  S   UNL     1       5.201   0.789  -2.558  0.00  0.00    -0.098 S 
ENDBRANCH   6  12
BRANCH   6  17
ATOM     17  O   UNL     1       3.515   2.950   0.463  0.00  0.00    -0.371 OA
ATOM     18  H   UNL     1       3.156   2.894   1.358  0.00  0.00    +0.212 HD
ENDBRANCH   6  17
ENDBRANCH   1   6
BRANCH   4  19
ATOM     19  C   UNL     1       5.694  -2.476   1.758  0.00  0.00    -0.003 C 
BRANCH  19  20
ATOM     20  N   UNL     1       5.025  -2.827   3.018  0.00  0.00    +0.389 N 
ATOM     21  H   UNL     1       5.321  -2.192   3.744  0.00  0.00    -0.081 HD
BRANCH  20  22
ATOM     22  C   UNL     1       3.570  -2.729   2.844  0.00  0.00    -0.042 C 
BRANCH  22  23
ATOM     23  C   UNL     1       2.888  -2.969   4.166  0.00  0.00    -0.057 A 
ATOM     24  C   UNL     1       2.525  -4.248   4.545  0.00  0.00    +0.009 A 
ATOM     25  C   UNL     1       1.914  -4.430   5.741  0.00  0.00    +0.045 A 
ATOM     26  S   UNL     1       1.835  -2.762   6.373  0.00  0.00    -0.105 S 
ATOM     27  C   UNL     1       2.627  -1.936   5.003  0.00  0.00    +0.047 A 
ENDBRANCH  22  23
ENDBRANCH  20  22
BRANCH  20  28
ATOM     28  C   UNL     1       5.381  -4.202   3.394  0.00  0.00    -0.046 C 
BRANCH  28  29
ATOM     29  C   UNL     1       6.875  -4.271   3.718  0.00  0.00    +0.102 C 
ATOM     30  C   UNL     1       7.257  -5.711   4.124  0.00  0.00    +0.032 C 
ATOM     31  C   UNL     1       8.267  -5.471   5.279  0.00  0.00    +0.030 C 
ATOM     32  C   UNL     1       7.675  -4.193   5.926  0.00  0.00    +0.160 C 
ATOM     33  O   UNL     1       7.173  -3.414   4.826  0.00  0.00    -0.378 OA
ENDBRANCH  28  29
ENDBRANCH  20  28
ENDBRANCH  19  20
ENDBRANCH   4  19
TORSDOF 10
