REMARK  Name = ZINC62038861
REMARK  8 active torsions:
REMARK  status: ('A' for Active; 'I' for Inactive)
REMARK    1  A    between atoms: C_1  and  C_2
REMARK    2  A    between atoms: C_2  and  C_4
REMARK    3  A    between atoms: C_2  and  S_16
REMARK    4  A    between atoms: N_6  and  C_7
REMARK    5  A    between atoms: C_9  and  C_14
REMARK    6  A    between atoms: C_12  and  O_13
REMARK    7  A    between atoms: S_16  and  C_17
REMARK    8  A    between atoms: C_19  and  C_26
REMARK                            x       y       z     vdW  Elec       q    Type
REMARK                         _______ _______ _______ _____ _____    ______ ____
ROOT
ATOM      1  C   UNL     1      -2.665  -0.177  -1.566  0.00  0.00    +0.110 A 
ATOM      2  C   UNL     1      -3.975  -0.592  -1.931  0.00  0.00    +0.047 A 
ATOM      3  C   UNL     1      -4.907  -1.460  -1.220  0.00  0.00    +0.001 A 
ATOM      4  C   UNL     1      -6.115  -1.713  -1.778  0.00  0.00    +0.056 A 
ATOM      5  S   UNL     1      -6.071  -0.791  -3.303  0.00  0.00    -0.076 S 
ATOM      6  C   UNL     1      -4.447  -0.093  -3.162  0.00  0.00    +0.113 A 
ATOM      7  N   UNL     1      -3.708   0.704  -3.910  0.00  0.00    -0.228 NA
ATOM      8  C   UNL     1      -2.499   1.056  -3.519  0.00  0.00    +0.223 A 
ATOM      9  N   UNL     1      -1.995   0.630  -2.374  0.00  0.00    -0.228 NA
ENDROOT
BRANCH   3  10
ATOM     10  C   UNL     1      -4.539  -2.055   0.086  0.00  0.00    -0.016 A 
ATOM     11  C   UNL     1      -4.197  -1.234   1.160  0.00  0.00    +0.009 A 
ATOM     12  C   UNL     1      -3.855  -1.800   2.368  0.00  0.00    +0.004 A 
ATOM     13  C   UNL     1      -3.848  -3.182   2.528  0.00  0.00    -0.044 A 
ATOM     14  C   UNL     1      -4.190  -3.997   1.472  0.00  0.00    -0.044 A 
ATOM     15  C   UNL     1      -4.538  -3.436   0.252  0.00  0.00    +0.012 A 
ATOM     16  C   UNL     1      -4.218  -5.500   1.583  0.00  0.00    +0.035 C 
ATOM     17  C   UNL     1      -3.425  -5.963   2.803  0.00  0.00    +0.005 C 
ATOM     18  C   UNL     1      -3.912  -5.176   4.025  0.00  0.00    +0.005 C 
ATOM     19  C   UNL     1      -3.455  -3.726   3.877  0.00  0.00    +0.035 C 
ENDBRANCH   3  10
BRANCH   1  20
ATOM     20  S   UNL     1      -1.946  -0.723  -0.054  0.00  0.00    -0.093 S 
BRANCH  20  22
ATOM     21  C   UNL     1      -0.478   1.583   0.047  0.00  0.00    +0.029 C 
ATOM     22  C   UNL     1      -0.311   0.064  -0.036  0.00  0.00    +0.136 C 
BRANCH  22  23
ATOM     23  C   UNL     1       0.467  -0.422   1.160  0.00  0.00    +0.230 C 
ATOM     24  O   UNL     1      -0.115  -0.914   2.103  0.00  0.00    -0.274 OA
ATOM     25  N   UNL     1       1.810  -0.310   1.180  0.00  0.00    -0.282 N 
ATOM     26  H   UNL     1       2.282   0.014   0.397  0.00  0.00    +0.155 HD
BRANCH  25  27
ATOM     27  C   UNL     1       2.525  -0.660   2.334  0.00  0.00    +0.076 A 
ATOM     28  C   UNL     1       2.054  -1.661   3.162  0.00  0.00    +0.038 A 
ATOM     29  C   UNL     1       2.771  -2.007   4.313  0.00  0.00    +0.016 A 
ATOM     30  C   UNL     1       3.962  -1.338   4.619  0.00  0.00    +0.015 A 
ATOM     31  C   UNL     1       4.425  -0.342   3.789  0.00  0.00    +0.048 A 
ATOM     32  C   UNL     1       3.717  -0.002   2.643  0.00  0.00    +0.138 A 
BRANCH  32  33
ATOM     33  O   UNL     1       4.181   0.978   1.826  0.00  0.00    -0.505 OA
ATOM     34  H   UNL     1       3.863   1.862   2.052  0.00  0.00    +0.292 HD
ENDBRANCH  32  33
BRANCH  29  35
ATOM     35  C   UNL     1       2.275  -3.070   5.197  0.00  0.00    +0.258 C 
ATOM     36  O   UNL     1       2.898  -3.369   6.194  0.00  0.00    -0.296 OA
ENDBRANCH  29  35
ENDBRANCH  25  27
ENDBRANCH  22  23
ENDBRANCH  20  22
ENDBRANCH   1  20
TORSDOF 7
