REMARK  Name = ZINC39326695
REMARK  13 active torsions:
REMARK  status: ('A' for Active; 'I' for Inactive)
REMARK    1  A    between atoms: C_1  and  C_2
REMARK    2  A    between atoms: C_7  and  C_8
REMARK    3  A    between atoms: C_11  and  O_16
REMARK    4  A    between atoms: C_12  and  O_14
REMARK    5  A    between atoms: O_14  and  C_15
REMARK    6  A    between atoms: O_16  and  C_17
REMARK    7  A    between atoms: C_21  and  C_29
REMARK    8  A    between atoms: C_23  and  C_27
REMARK    9  A    between atoms: C_24  and  N_26
REMARK   10  A    between atoms: C_32  and  O_37
REMARK   11  A    between atoms: C_33  and  O_35
REMARK   12  A    between atoms: O_35  and  C_36
REMARK   13  A    between atoms: O_37  and  C_38
REMARK                            x       y       z     vdW  Elec       q    Type
REMARK                         _______ _______ _______ _____ _____    ______ ____
ROOT
ATOM      1  C   UNL     1       0.663   1.651   0.234  0.00  0.00    +0.109 C 
ATOM      2  C   UNL     1       0.620   0.145   0.257  0.00  0.00    +0.213 C 
ATOM      3  O   UNL     1       0.773  -0.450   1.302  0.00  0.00    -0.276 OA
ATOM      4  N   UNL     1       0.410  -0.540  -0.884  0.00  0.00    -0.293 N 
ATOM      5  C   UNL     1       0.226   0.158  -2.171  0.00  0.00    +0.147 C 
ATOM      6  C   UNL     1       1.292  -0.384  -3.100  0.00  0.00    +0.013 C 
ATOM      7  C   UNL     1       1.920   0.423  -3.974  0.00  0.00    +0.016 C 
ATOM      8  C   UNL     1       1.624  -1.820  -3.023  0.00  0.00    +0.136 C 
ATOM      9  C   UNL     1       1.204  -2.569  -2.004  0.00  0.00    +0.003 C 
ATOM     10  C   UNL     1       0.363  -2.004  -0.891  0.00  0.00    +0.143 C 
ATOM     11  C   UNL     1       1.568  -4.034  -1.932  0.00  0.00    +0.095 C 
ATOM     12  C   UNL     1       2.735  -4.331  -2.829  0.00  0.00    +0.098 C 
ATOM     13  C   UNL     1       3.074  -3.475  -3.826  0.00  0.00    +0.199 C 
ATOM     14  O   UNL     1       2.373  -2.347  -4.028  0.00  0.00    -0.441 OA
ENDROOT
BRANCH   7  15
ATOM     15  C   UNL     1       1.463   1.812  -4.153  0.00  0.00    -0.021 A 
ATOM     16  C   UNL     1       2.383   2.817  -4.463  0.00  0.00    +0.012 A 
ATOM     17  C   UNL     1       1.953   4.117  -4.631  0.00  0.00    +0.050 A 
ATOM     18  C   UNL     1       0.608   4.429  -4.493  0.00  0.00    +0.162 A 
ATOM     19  C   UNL     1      -0.314   3.432  -4.183  0.00  0.00    +0.162 A 
ATOM     20  C   UNL     1       0.108   2.126  -4.019  0.00  0.00    +0.057 A 
BRANCH  19  21
ATOM     21  O   UNL     1      -1.631   3.743  -4.048  0.00  0.00    -0.491 OA
ATOM     22  C   UNL     1      -2.522   2.671  -3.730  0.00  0.00    +0.277 C 
ENDBRANCH  19  21
BRANCH  18  23
ATOM     23  O   UNL     1       0.190   5.712  -4.659  0.00  0.00    -0.491 OA
ATOM     24  C   UNL     1       1.189   6.684  -4.975  0.00  0.00    +0.277 C 
ENDBRANCH  18  23
ENDBRANCH   7  15
BRANCH  11  25
ATOM     25  C   UNL     1       0.386  -4.862  -2.364  0.00  0.00    -0.031 A 
ATOM     26  C   UNL     1      -0.134  -4.711  -3.636  0.00  0.00    +0.008 A 
ATOM     27  C   UNL     1      -1.219  -5.468  -4.037  0.00  0.00    +0.050 A 
ATOM     28  C   UNL     1      -1.786  -6.382  -3.164  0.00  0.00    +0.162 A 
ATOM     29  C   UNL     1      -1.263  -6.535  -1.884  0.00  0.00    +0.162 A 
ATOM     30  C   UNL     1      -0.172  -5.776  -1.490  0.00  0.00    +0.054 A 
BRANCH  29  31
ATOM     31  O   UNL     1      -1.816  -7.431  -1.024  0.00  0.00    -0.491 OA
ATOM     32  C   UNL     1      -1.226  -7.534   0.274  0.00  0.00    +0.277 C 
ENDBRANCH  29  31
BRANCH  28  33
ATOM     33  O   UNL     1      -2.854  -7.128  -3.557  0.00  0.00    -0.491 OA
ATOM     34  C   UNL     1      -3.338  -6.918  -4.885  0.00  0.00    +0.277 C 
ENDBRANCH  28  33
ENDBRANCH  11  25
BRANCH  13  35
ATOM     35  N   UNL     1       4.143  -3.764  -4.636  0.00  0.00    -0.328 N 
ATOM     36  H   UNL     1       4.653  -4.577  -4.494  0.00  0.00    +0.145 HD
ATOM     37  H   UNL     1       4.390  -3.155  -5.350  0.00  0.00    +0.145 HD
ENDBRANCH  13  35
BRANCH  12  38
ATOM     38  C   UNL     1       3.498  -5.527  -2.631  0.00  0.00    +0.101 C 
ATOM     39  N   UNL     1       4.102  -6.476  -2.474  0.00  0.00    -0.191 NA
ENDBRANCH  12  38
TORSDOF 8
