REMARK  Name = ZINC10043907
REMARK  10 active torsions:
REMARK  status: ('A' for Active; 'I' for Inactive)
REMARK    1  A    between atoms: C_1  and  C_2
REMARK    2  A    between atoms: C_2  and  N_3
REMARK    3  A    between atoms: N_3  and  C_4
REMARK    4  A    between atoms: N_3  and  C_18
REMARK    5  A    between atoms: C_4  and  C_5
REMARK    6  A    between atoms: C_10  and  O_16
REMARK    7  A    between atoms: O_16  and  C_17
REMARK    8  A    between atoms: C_19  and  N_34
REMARK    9  A    between atoms: N_20  and  C_27
REMARK   10  A    between atoms: C_27  and  C_28
REMARK                            x       y       z     vdW  Elec       q    Type
REMARK                         _______ _______ _______ _____ _____    ______ ____
ROOT
ATOM      1  C   UNL     1       7.531   7.553  -1.351  0.00  0.00    +0.134 A 
ATOM      2  C   UNL     1       7.359   8.861  -1.714  0.00  0.00    +0.127 A 
ATOM      3  N   UNL     1       8.438   9.715  -1.691  0.00  0.00    -0.276 N 
ATOM      4  C   UNL     1       9.653   9.268  -1.325  0.00  0.00    +0.331 A 
ATOM      5  O   UNL     1      10.595  10.036  -1.314  0.00  0.00    -0.246 OA
ATOM      6  N   UNL     1       9.841   7.984  -0.970  0.00  0.00    -0.273 N 
ATOM      7  H   UNL     1      10.753   7.673  -0.701  0.00  0.00    +0.173 HD
ATOM      8  C   UNL     1       8.813   7.113  -0.973  0.00  0.00    +0.277 A 
ATOM      9  O   UNL     1       8.992   5.951  -0.650  0.00  0.00    -0.266 OA
ENDROOT
BRANCH   2  10
ATOM     10  N   UNL     1       6.118   9.318  -2.095  0.00  0.00    -0.343 N 
ATOM     11  H   UNL     1       5.361   8.713  -2.106  0.00  0.00    +0.144 HD
ATOM     12  H   UNL     1       6.001  10.247  -2.351  0.00  0.00    +0.144 HD
ENDBRANCH   2  10
BRANCH   1  13
ATOM     13  N   UNL     1       6.439   6.655  -1.362  0.00  0.00    -0.319 N 
BRANCH  13  15
ATOM     14  C   UNL     1       6.631   6.192  -3.759  0.00  0.00    +0.024 C 
ATOM     15  C   UNL     1       6.642   5.590  -2.353  0.00  0.00    +0.102 C 
ENDBRANCH  13  15
BRANCH  13  16
ATOM     16  C   UNL     1       6.206   6.093  -0.025  0.00  0.00    +0.143 C 
BRANCH  16  17
ATOM     17  C   UNL     1       4.900   5.341  -0.016  0.00  0.00    +0.007 A 
ATOM     18  C   UNL     1       4.898   3.975  -0.023  0.00  0.00    +0.018 A 
ATOM     19  C   UNL     1       3.657   3.312  -0.015  0.00  0.00    +0.001 A 
ATOM     20  C   UNL     1       3.579   1.909  -0.021  0.00  0.00    +0.013 A 
ATOM     21  C   UNL     1       2.361   1.302  -0.008  0.00  0.00    +0.046 A 
ATOM     22  C   UNL     1       1.184   2.058   0.002  0.00  0.00    +0.122 A 
ATOM     23  C   UNL     1       1.226   3.423   0.009  0.00  0.00    +0.074 A 
ATOM     24  C   UNL     1       2.466   4.082   0.001  0.00  0.00    +0.076 A 
ATOM     25  N   UNL     1       2.538   5.417   0.007  0.00  0.00    -0.235 NA
ATOM     26  C   UNL     1       3.694   6.039  -0.001  0.00  0.00    +0.135 A 
ATOM     27 CL   UNL     1       3.721   7.774   0.008  0.00  0.00    -0.062 Cl
BRANCH  22  28
ATOM     28  O   UNL     1      -0.017   1.425   0.010  0.00  0.00    -0.495 OA
ATOM     29  C   UNL     1       0.002  -0.004   0.002  0.00  0.00    +0.277 C 
ENDBRANCH  22  28
ENDBRANCH  16  17
ENDBRANCH  13  16
ENDBRANCH   1  13
BRANCH   3  30
ATOM     30  C   UNL     1       8.264  11.119  -2.073  0.00  0.00    +0.163 C 
BRANCH  30  31
ATOM     31  C   UNL     1       8.489  11.268  -3.556  0.00  0.00    -0.028 A 
ATOM     32  C   UNL     1       9.756  11.540  -4.038  0.00  0.00    +0.005 A 
ATOM     33  C   UNL     1       9.964  11.672  -5.398  0.00  0.00    +0.000 A 
ATOM     34  C   UNL     1       8.903  11.542  -6.275  0.00  0.00    +0.000 A 
ATOM     35  C   UNL     1       7.636  11.275  -5.793  0.00  0.00    +0.000 A 
ATOM     36  C   UNL     1       7.429  11.138  -4.433  0.00  0.00    +0.005 A 
ENDBRANCH  30  31
ENDBRANCH   3  30
TORSDOF 8
