REMARK  Name = ZINC19594252
REMARK  5 active torsions:
REMARK  status: ('A' for Active; 'I' for Inactive)
REMARK    1  A    between atoms: C_1  and  O_2
REMARK    2  A    between atoms: O_2  and  C_3
REMARK    3  A    between atoms: C_3  and  C_4
REMARK    4  A    between atoms: C_5  and  C_23
REMARK    5  A    between atoms: C_10  and  O_13
REMARK                            x       y       z     vdW  Elec       q    Type
REMARK                         _______ _______ _______ _____ _____    ______ ____
ROOT
ATOM      1  C   UNL     1       0.614  -2.074  -1.042  0.00  0.00    +0.099 A 
ATOM      2  C   UNL     1       1.584  -2.882  -0.424  0.00  0.00    +0.048 A 
ATOM      3  C   UNL     1       1.171  -4.197  -0.558  0.00  0.00    +0.138 A 
ATOM      4  N   UNL     1       1.725  -5.389  -0.148  0.00  0.00    -0.297 N 
ATOM      5  C   UNL     1       1.090  -6.568  -0.419  0.00  0.00    +0.065 C 
ATOM      6  C   UNL     1      -0.121  -6.556  -1.113  0.00  0.00    +0.092 C 
ATOM      7  C   UNL     1      -0.664  -5.356  -1.517  0.00  0.00    +0.217 C 
ATOM      8  N   UNL     1      -0.013  -4.180  -1.237  0.00  0.00    -0.185 N 
ATOM      9  N   UNL     1      -0.330  -2.845  -1.516  0.00  0.00    -0.164 NA
ATOM     10  C   UNL     1       1.678  -7.840   0.015  0.00  0.00    +0.110 C 
ATOM     11  C   UNL     1       2.879  -8.014   0.722  0.00  0.00    +0.002 C 
ATOM     12  C   UNL     1       3.011  -9.362   0.900  0.00  0.00    +0.040 C 
ATOM     13  N   UNL     1       1.958  -9.943   0.335  0.00  0.00    -0.281 N 
ATOM     14  H   UNL     1       1.800 -10.900   0.315  0.00  0.00    +0.189 HD
ATOM     15  N   UNL     1       1.174  -9.064  -0.177  0.00  0.00    -0.172 NA
ATOM     16  C   UNL     1       4.286  -9.658   1.659  0.00  0.00    +0.055 C 
ATOM     17  C   UNL     1       5.130  -8.369   1.547  0.00  0.00    +0.011 C 
ATOM     18  C   UNL     1       4.047  -7.287   1.341  0.00  0.00    +0.039 C 
ATOM     19  H   UNL     1       2.567  -5.392   0.334  0.00  0.00    +0.154 HD
ENDROOT
BRANCH   2  20
ATOM     20  C   UNL     1       2.821  -2.413   0.246  0.00  0.00    -0.013 A 
ATOM     21  C   UNL     1       4.070  -2.743  -0.279  0.00  0.00    +0.010 A 
ATOM     22  C   UNL     1       5.218  -2.304   0.348  0.00  0.00    +0.020 A 
ATOM     23  C   UNL     1       5.131  -1.537   1.498  0.00  0.00    +0.041 A 
ATOM     24  C   UNL     1       3.893  -1.206   2.024  0.00  0.00    +0.020 A 
ATOM     25  C   UNL     1       2.740  -1.635   1.400  0.00  0.00    +0.010 A 
ATOM     26 CL   UNL     1       6.579  -0.988   2.282  0.00  0.00    -0.084 Cl
ENDBRANCH   2  20
BRANCH   7  27
ATOM     27  O   UNL     1      -1.833  -5.336  -2.188  0.00  0.00    -0.492 OA
ATOM     28  H   UNL     1      -2.215  -6.212  -2.339  0.00  0.00    +0.294 HD
ENDBRANCH   7  27
BRANCH   1  29
ATOM     29  C   UNL     1       0.652  -0.570  -1.138  0.00  0.00    +0.217 C 
BRANCH  29  31
ATOM     30  C   UNL     1      -0.017   1.425   0.010  0.00  0.00    +0.194 C 
ATOM     31  O   UNL     1       0.002  -0.004   0.002  0.00  0.00    -0.377 OA
ENDBRANCH  29  31
ENDBRANCH   1  29
TORSDOF 4
