REMARK  Name = ZINC07603030
REMARK  5 active torsions:
REMARK  status: ('A' for Active; 'I' for Inactive)
REMARK    1  A    between atoms: C_1  and  C_2
REMARK    2  A    between atoms: N_10  and  N_14
REMARK    3  A    between atoms: C_15  and  C_17
REMARK    4  A    between atoms: C_17  and  S_18
REMARK    5  A    between atoms: S_18  and  C_19
REMARK                            x       y       z     vdW  Elec       q    Type
REMARK                         _______ _______ _______ _____ _____    ______ ____
ROOT
ATOM      1  C   UNL     1       5.008   4.205  -0.023  0.00  0.00    +0.007 C 
ATOM      2  C   UNL     1       3.533   3.799  -0.011  0.00  0.00    -0.014 C 
ATOM      3  C   UNL     1       3.220   2.976  -1.262  0.00  0.00    +0.006 C 
ATOM      4  C   UNL     1       1.741   2.581  -1.255  0.00  0.00    +0.035 C 
ATOM      5  C   UNL     1       1.435   1.768  -0.002  0.00  0.00    +0.114 C 
ATOM      6  C   UNL     1       1.765   2.567   1.254  0.00  0.00    +0.035 C 
ATOM      7  C   UNL     1       3.244   2.962   1.237  0.00  0.00    +0.006 C 
ATOM      8  C   UNL     1      -0.016   1.345   0.009  0.00  0.00    +0.263 C 
ATOM      9  O   UNL     1      -0.991   2.066   0.018  0.00  0.00    -0.271 OA
ATOM     10  N   UNL     1       0.002  -0.004   0.002  0.00  0.00    -0.137 N 
ATOM     11  C   UNL     1       1.253  -0.480  -0.013  0.00  0.00    +0.326 C 
ATOM     12  O   UNL     1       1.526  -1.665  -0.021  0.00  0.00    -0.251 OA
ATOM     13  N   UNL     1       2.176   0.501  -0.016  0.00  0.00    -0.284 N 
ATOM     14  H   UNL     1       3.140   0.392  -0.026  0.00  0.00    +0.151 HD
ENDROOT
BRANCH  10  15
ATOM     15  N   UNL     1      -1.146  -0.807   0.008  0.00  0.00    -0.223 N 
ATOM     16  C   UNL     1      -1.535  -1.435  -1.119  0.00  0.00    +0.239 C 
ATOM     17  O   UNL     1      -0.892  -1.305  -2.139  0.00  0.00    -0.273 OA
ATOM     18  H   UNL     1      -1.660  -0.911   0.824  0.00  0.00    +0.174 HD
BRANCH  16  19
ATOM     19  C   UNL     1      -2.770  -2.299  -1.112  0.00  0.00    +0.166 C 
BRANCH  19  20
ATOM     20  S   UNL     1      -3.027  -2.999  -2.766  0.00  0.00    -0.148 S 
BRANCH  20  21
ATOM     21  C   UNL     1      -4.531  -3.998  -2.590  0.00  0.00    +0.047 C 
ATOM     22  C   UNL     1      -4.264  -5.157  -1.627  0.00  0.00    +0.014 C 
ATOM     23  C   UNL     1      -5.532  -6.000  -1.479  0.00  0.00    +0.001 C 
ATOM     24  C   UNL     1      -5.937  -6.556  -2.846  0.00  0.00    +0.000 C 
ATOM     25  C   UNL     1      -6.205  -5.397  -3.809  0.00  0.00    +0.001 C 
ATOM     26  C   UNL     1      -4.936  -4.554  -3.957  0.00  0.00    +0.014 C 
ENDBRANCH  20  21
ENDBRANCH  19  20
ENDBRANCH  16  19
ENDBRANCH  10  15
TORSDOF 4
