REMARK  Name = ZINC58934703
REMARK  12 active torsions:
REMARK  status: ('A' for Active; 'I' for Inactive)
REMARK    1  A    between atoms: C_1  and  C_2
REMARK    2  A    between atoms: C_7  and  N_12
REMARK    3  A    between atoms: C_9  and  C_11
REMARK    4  A    between atoms: C_13  and  C_15
REMARK    5  A    between atoms: C_15  and  C_17
REMARK    6  A    between atoms: C_15  and  S_18
REMARK    7  A    between atoms: S_18  and  C_21
REMARK    8  A    between atoms: C_21  and  C_22
REMARK    9  A    between atoms: C_25  and  C_28
REMARK   10  A    between atoms: C_28  and  C_29
REMARK   11  A    between atoms: C_28  and  C_30
REMARK   12  A    between atoms: C_28  and  C_31
REMARK                            x       y       z     vdW  Elec       q    Type
REMARK                         _______ _______ _______ _____ _____    ______ ____
ROOT
ATOM      1  C   UNL     1       1.363  -0.333   6.074  0.00  0.00    +0.213 C 
ATOM      2  C   UNL     1       2.798   0.197   6.063  0.00  0.00    +0.042 C 
ENDROOT
BRANCH   1   4
ATOM      3  N   UNL     1       0.735  -0.503   3.687  0.00  0.00    -0.311 N 
ATOM      4  C   UNL     1       0.634   0.166   4.853  0.00  0.00    +0.237 C 
ATOM      5  O   UNL     1      -0.044   1.170   4.919  0.00  0.00    -0.274 OA
ATOM      6  H   UNL     1       1.276  -1.306   3.634  0.00  0.00    +0.149 HD
BRANCH   3  12
ATOM      7  C   UNL     1      -0.019   1.526   0.010  0.00  0.00    +0.008 C 
ATOM      8  C   UNL     1       0.002  -0.004   0.002  0.00  0.00    -0.009 C 
ATOM      9  C   UNL     1      -1.433  -0.534   0.013  0.00  0.00    +0.003 C 
ATOM     10  C   UNL     1      -2.149  -0.040   1.272  0.00  0.00    +0.002 C 
ATOM     11  C   UNL     1      -1.409  -0.547   2.511  0.00  0.00    +0.022 C 
ATOM     12  C   UNL     1       0.026  -0.018   2.500  0.00  0.00    +0.076 C 
ATOM     13  C   UNL     1       0.742  -0.511   1.242  0.00  0.00    +0.009 C 
ATOM     14  C   UNL     1       2.178   0.019   1.231  0.00  0.00    +0.009 C 
ENDBRANCH   3  12
ENDBRANCH   1   4
BRANCH   1  15
ATOM     15  S   UNL     1       0.513   0.252   7.566  0.00  0.00    -0.016 S 
ATOM     16  O   UNL     1       0.513   1.673   7.556  0.00  0.00    -0.173 OA
ATOM     17  O   UNL     1      -0.724  -0.438   7.679  0.00  0.00    -0.173 OA
BRANCH  15  18
ATOM     18  C   UNL     1       1.609  -0.312   8.898  0.00  0.00    +0.201 C 
BRANCH  18  19
ATOM     19  C   UNL     1       1.036   0.102  10.229  0.00  0.00    -0.026 A 
ATOM     20  C   UNL     1       1.373   1.326  10.776  0.00  0.00    +0.005 A 
ATOM     21  C   UNL     1       0.848   1.705  11.997  0.00  0.00    +0.004 A 
ATOM     22  C   UNL     1      -0.015   0.861  12.670  0.00  0.00    -0.042 A 
ATOM     23  C   UNL     1      -0.353  -0.362  12.123  0.00  0.00    +0.004 A 
ATOM     24  C   UNL     1       0.169  -0.740  10.899  0.00  0.00    +0.005 A 
BRANCH  22  25
ATOM     25  C   UNL     1      -0.587   1.274  14.002  0.00  0.00    -0.013 C 
ATOM     26  C   UNL     1      -1.390   2.566  13.833  0.00  0.00    +0.015 C 
ATOM     27  C   UNL     1      -1.505   0.169  14.528  0.00  0.00    +0.015 C 
ATOM     28  C   UNL     1       0.552   1.508  14.996  0.00  0.00    +0.015 C 
ENDBRANCH  22  25
ENDBRANCH  18  19
ENDBRANCH  15  18
ENDBRANCH   1  15
TORSDOF 6
