REMARK  Name = ZINC05276765
REMARK  7 active torsions:
REMARK  status: ('A' for Active; 'I' for Inactive)
REMARK    1  A    between atoms: C_1  and  C_2
REMARK    2  A    between atoms: C_13  and  C_15
REMARK    3  A    between atoms: C_15  and  C_17
REMARK    4  A    between atoms: C_15  and  O_19
REMARK    5  A    between atoms: C_17  and  O_18
REMARK    6  A    between atoms: C_23  and  C_30
REMARK    7  A    between atoms: C_26  and  O_29
REMARK                            x       y       z     vdW  Elec       q    Type
REMARK                         _______ _______ _______ _____ _____    ______ ____
ROOT
ATOM      1  C   UNL     1      -1.046   3.989  -0.659  0.00  0.00    +0.012 C 
ATOM      2  C   UNL     1      -1.825   2.682  -0.801  0.00  0.00    -0.024 C 
ATOM      3  C   UNL     1      -3.088   2.900  -1.590  0.00  0.00    +0.007 C 
ATOM      4  C   UNL     1      -4.106   3.672  -0.724  0.00  0.00    +0.005 C 
ATOM      5  C   UNL     1      -4.419   2.889   0.536  0.00  0.00    +0.003 C 
ATOM      6  C   UNL     1      -3.147   2.689   1.390  0.00  0.00    +0.000 C 
ATOM      7  C   UNL     1      -2.134   1.988   0.540  0.00  0.00    -0.001 C 
ATOM      8  C   UNL     1      -0.725   1.745   1.093  0.00  0.00    +0.005 C 
ATOM      9  C   UNL     1       0.053   1.281  -0.174  0.00  0.00    +0.007 C 
ATOM     10  C   UNL     1      -0.831   1.658  -1.393  0.00  0.00    +0.026 C 
ATOM     11  C   UNL     1      -2.704   4.043   1.931  0.00  0.00    +0.031 C 
ATOM     12  C   UNL     1      -3.845   4.678   2.681  0.00  0.00    -0.027 C 
ATOM     13  C   UNL     1      -5.086   4.410   2.433  0.00  0.00    -0.065 C 
ATOM     14  C   UNL     1      -5.546   3.428   1.385  0.00  0.00    -0.008 C 
ATOM     15  C   UNL     1      -6.290   2.293   2.102  0.00  0.00    +0.014 C 
ATOM     16  C   UNL     1      -6.421   2.611   3.589  0.00  0.00    +0.032 C 
ATOM     17  C   UNL     1      -7.066   3.974   3.826  0.00  0.00    +0.119 C 
ATOM     18  C   UNL     1      -6.170   5.083   3.258  0.00  0.00    +0.062 C 
ATOM     19  C   UNL     1      -6.571   4.139   0.492  0.00  0.00    +0.016 C 
ENDROOT
BRANCH  17  20
ATOM     20  O   UNL     1      -8.349   4.019   3.199  0.00  0.00    -0.391 OA
ATOM     21  H   UNL     1      -8.813   4.860   3.312  0.00  0.00    +0.210 HD
ENDBRANCH  17  20
BRANCH  10  22
ATOM     22  C   UNL     1       0.008   2.322  -2.481  0.00  0.00    +0.143 C 
BRANCH  22  23
ATOM     23  O   UNL     1      -0.848   2.775  -3.533  0.00  0.00    -0.389 OA
ATOM     24  H   UNL     1      -1.358   2.070  -3.955  0.00  0.00    +0.210 HD
ENDBRANCH  22  23
BRANCH  22  25
ATOM     25  C   UNL     1       1.011   1.311  -3.040  0.00  0.00    +0.187 C 
BRANCH  25  26
ATOM     26  O   UNL     1       1.873   1.962  -3.975  0.00  0.00    -0.392 OA
ATOM     27  H   UNL     1       2.537   1.380  -4.370  0.00  0.00    +0.210 HD
ENDBRANCH  25  26
ENDBRANCH  22  25
ENDBRANCH  10  22
TORSDOF 5
