REMARK  Name = ZINC20774517
REMARK  12 active torsions:
REMARK  status: ('A' for Active; 'I' for Inactive)
REMARK    1  A    between atoms: C_1  and  O_2
REMARK    2  A    between atoms: O_2  and  C_3
REMARK    3  A    between atoms: C_8  and  N_9
REMARK    4  A    between atoms: N_12  and  C_15
REMARK    5  A    between atoms: N_19  and  C_29
REMARK    6  A    between atoms: C_21  and  C_23
REMARK    7  A    between atoms: C_23  and  C_24
REMARK    8  A    between atoms: C_24  and  C_25
REMARK    9  A    between atoms: C_25  and  O_27
REMARK   10  A    between atoms: O_27  and  C_28
REMARK   11  A    between atoms: C_29  and  C_30
REMARK   12  A    between atoms: C_35  and  O_36
REMARK                            x       y       z     vdW  Elec       q    Type
REMARK                         _______ _______ _______ _____ _____    ______ ____
ROOT
ATOM      1  C   UNL     1      -3.969   0.902   6.848  0.00  0.00    +0.056 C 
ATOM      2  C   UNL     1      -3.952  -0.565   6.409  0.00  0.00    +0.000 C 
ATOM      3  C   UNL     1      -4.659  -1.417   7.465  0.00  0.00    -0.077 C 
ATOM      4  N   UNL     1      -6.043  -0.951   7.624  0.00  0.00    +0.383 N 
ATOM      5  C   UNL     1      -6.084   0.440   8.091  0.00  0.00    -0.073 C 
ATOM      6  C   UNL     1      -5.419   1.348   7.054  0.00  0.00    -0.010 C 
ATOM      7  H   UNL     1      -6.525  -0.988   6.636  0.00  0.00    -0.081 HD
ENDROOT
BRANCH   1  11
ATOM      8  N   UNL     1      -1.385   3.517   4.766  0.00  0.00    -0.325 N 
ATOM      9  C   UNL     1      -1.397   2.101   4.371  0.00  0.00    +0.120 C 
ATOM     10  C   UNL     1      -1.984   1.262   5.509  0.00  0.00    +0.103 C 
ATOM     11  N   UNL     1      -3.343   1.733   5.811  0.00  0.00    -0.296 NA
ATOM     12  C   UNL     1      -3.330   3.148   6.207  0.00  0.00    +0.103 C 
ATOM     13  C   UNL     1      -2.744   3.988   5.069  0.00  0.00    +0.120 C 
BRANCH   8  19
ATOM     14  C   UNL     1       0.391   4.997   4.053  0.00  0.00    +0.141 A 
ATOM     15  C   UNL     1       0.980   5.774   3.070  0.00  0.00    +0.047 A 
ATOM     16  C   UNL     1       0.395   5.870   1.821  0.00  0.00    +0.004 A 
ATOM     17  C   UNL     1      -0.778   5.191   1.549  0.00  0.00    +0.002 A 
ATOM     18  C   UNL     1      -1.373   4.413   2.524  0.00  0.00    +0.027 A 
ATOM     19  C   UNL     1      -0.788   4.308   3.778  0.00  0.00    +0.072 A 
BRANCH  14  21
ATOM     20  C   UNL     1       2.177   5.631   5.490  0.00  0.00    +0.277 C 
ATOM     21  O   UNL     1       0.965   4.902   5.282  0.00  0.00    -0.493 OA
ENDBRANCH  14  21
ENDBRANCH   8  19
ENDBRANCH   1  11
BRANCH   6  22
ATOM     22  C   UNL     1      -6.177   1.250   5.729  0.00  0.00    +0.014 C 
BRANCH  22  23
ATOM     23  C   UNL     1      -7.582   1.832   5.900  0.00  0.00    +0.121 C 
BRANCH  23  24
ATOM     24  C   UNL     1      -8.328   1.735   4.595  0.00  0.00    +0.307 C 
ATOM     25  O   UNL     1      -7.791   1.251   3.626  0.00  0.00    -0.251 OA
BRANCH  24  26
ATOM     26  O   UNL     1      -9.589   2.187   4.507  0.00  0.00    -0.468 OA
ATOM     27  C   UNL     1     -10.246   2.062   3.219  0.00  0.00    +0.280 C 
ENDBRANCH  24  26
ENDBRANCH  23  24
ENDBRANCH  22  23
ENDBRANCH   6  22
BRANCH   4  28
ATOM     28  C   UNL     1      -6.794  -1.833   8.528  0.00  0.00    -0.039 C 
BRANCH  28  29
ATOM     29  C   UNL     1      -6.529  -3.271   8.162  0.00  0.00    -0.021 A 
ATOM     30  C   UNL     1      -7.451  -3.974   7.412  0.00  0.00    +0.025 A 
ATOM     31  C   UNL     1      -7.207  -5.292   7.071  0.00  0.00    +0.041 A 
ATOM     32  C   UNL     1      -6.043  -5.912   7.491  0.00  0.00    +0.023 A 
ATOM     33  C   UNL     1      -5.121  -5.214   8.246  0.00  0.00    +0.047 A 
ATOM     34  C   UNL     1      -5.362  -3.890   8.584  0.00  0.00    +0.118 A 
ATOM     35 CL   UNL     1      -8.364  -6.172   6.122  0.00  0.00    -0.084 Cl
BRANCH  34  36
ATOM     36  O   UNL     1      -4.456  -3.202   9.327  0.00  0.00    -0.507 OA
ATOM     37  H   UNL     1      -3.531  -3.694   9.661  0.00  0.00    +0.292 HD
ENDBRANCH  34  36
ENDBRANCH  28  29
ENDBRANCH   4  28
TORSDOF 10
