REMARK  Name = ZINC13112854
REMARK  7 active torsions:
REMARK  status: ('A' for Active; 'I' for Inactive)
REMARK    1  A    between atoms: C_1  and  C_2
REMARK    2  A    between atoms: C_2  and  C_32
REMARK    3  A    between atoms: N_5  and  N_9
REMARK    4  A    between atoms: C_10  and  C_12
REMARK    5  A    between atoms: C_12  and  N_13
REMARK    6  A    between atoms: C_16  and  C_20
REMARK    7  A    between atoms: C_16  and  C_26
REMARK                            x       y       z     vdW  Elec       q    Type
REMARK                         _______ _______ _______ _____ _____    ______ ____
ROOT
ATOM      1  C   UNL     1       1.454  -1.671  -1.215  0.00  0.00    +0.215 C 
ENDROOT
BRANCH   1   2
ATOM      2  N   UNL     1       1.099  -0.375  -0.631  0.00  0.00    -0.215 N 
ATOM      3  C   UNL     1      -0.115   0.199  -0.741  0.00  0.00    +0.256 C 
ATOM      4  O   UNL     1      -1.084  -0.243  -1.321  0.00  0.00    -0.272 OA
ATOM      5  C   UNL     1      -0.018   1.512   0.010  0.00  0.00    +0.164 C 
ATOM      6  N   UNL     1       1.370   1.527   0.503  0.00  0.00    -0.278 N 
ATOM      7  C   UNL     1       1.941   0.386   0.078  0.00  0.00    +0.310 C 
ATOM      8  O   UNL     1       3.094   0.079   0.313  0.00  0.00    -0.252 OA
ATOM      9  H   UNL     1       1.790   2.224   1.030  0.00  0.00    +0.152 HD
BRANCH   5  10
ATOM     10  C   UNL     1      -0.265   2.673  -0.918  0.00  0.00    -0.011 A 
ATOM     11  C   UNL     1      -1.361   2.664  -1.760  0.00  0.00    +0.006 A 
ATOM     12  C   UNL     1      -1.589   3.732  -2.608  0.00  0.00    +0.000 A 
ATOM     13  C   UNL     1      -0.717   4.803  -2.621  0.00  0.00    +0.000 A 
ATOM     14  C   UNL     1       0.383   4.810  -1.782  0.00  0.00    +0.000 A 
ATOM     15  C   UNL     1       0.609   3.744  -0.931  0.00  0.00    +0.006 A 
ENDBRANCH   5  10
BRANCH   5  16
ATOM     16  C   UNL     1      -0.990   1.536   1.162  0.00  0.00    -0.011 A 
ATOM     17  C   UNL     1      -2.321   1.232   0.950  0.00  0.00    +0.006 A 
ATOM     18  C   UNL     1      -3.212   1.250   2.007  0.00  0.00    +0.000 A 
ATOM     19  C   UNL     1      -2.772   1.582   3.275  0.00  0.00    +0.000 A 
ATOM     20  C   UNL     1      -1.442   1.892   3.486  0.00  0.00    +0.000 A 
ATOM     21  C   UNL     1      -0.550   1.869   2.430  0.00  0.00    +0.006 A 
ENDBRANCH   5  16
ENDBRANCH   1   2
BRANCH   1  23
ATOM     22  N   UNL     1       2.383  -2.524  -3.342  0.00  0.00    -0.222 N 
ATOM     23  C   UNL     1       1.990  -1.464  -2.607  0.00  0.00    +0.248 C 
ATOM     24  O   UNL     1       2.069  -0.345  -3.067  0.00  0.00    -0.273 OA
ATOM     25  H   UNL     1       2.320  -3.419  -2.975  0.00  0.00    +0.174 HD
BRANCH  22  30
ATOM     26  C   UNL     1       5.099  -0.899  -6.734  0.00  0.00    +0.047 C 
ATOM     27  C   UNL     1       4.252  -2.142  -6.455  0.00  0.00    +0.137 C 
ATOM     28  C   UNL     1       4.186  -2.420  -4.967  0.00  0.00    +0.267 C 
ATOM     29  O   UNL     1       5.113  -2.669  -4.227  0.00  0.00    -0.271 OA
ATOM     30  N   UNL     1       2.882  -2.332  -4.637  0.00  0.00    -0.137 N 
ATOM     31  C   UNL     1       2.122  -2.045  -5.700  0.00  0.00    +0.327 C 
ATOM     32  O   UNL     1       0.914  -1.919  -5.654  0.00  0.00    -0.251 OA
ATOM     33  N   UNL     1       2.845  -1.907  -6.827  0.00  0.00    -0.280 N 
ATOM     34  H   UNL     1       2.506  -1.697  -7.711  0.00  0.00    +0.152 HD
BRANCH  27  35
ATOM     35  C   UNL     1       4.803  -3.334  -7.194  0.00  0.00    -0.015 A 
ATOM     36  C   UNL     1       5.709  -4.173  -6.573  0.00  0.00    +0.006 A 
ATOM     37  C   UNL     1       6.211  -5.269  -7.249  0.00  0.00    +0.000 A 
ATOM     38  C   UNL     1       5.815  -5.521  -8.549  0.00  0.00    +0.000 A 
ATOM     39  C   UNL     1       4.913  -4.678  -9.172  0.00  0.00    +0.000 A 
ATOM     40  C   UNL     1       4.407  -3.585  -8.495  0.00  0.00    +0.006 A 
ENDBRANCH  27  35
ENDBRANCH  22  30
ENDBRANCH   1  23
TORSDOF 6
