REMARK  Name = ZINC00528412
REMARK  6 active torsions:
REMARK  status: ('A' for Active; 'I' for Inactive)
REMARK    1  A    between atoms: C_1  and  C_2
REMARK    2  A    between atoms: C_2  and  C_3
REMARK    3  A    between atoms: C_2  and  C_4
REMARK    4  A    between atoms: C_4  and  C_5
REMARK    5  A    between atoms: C_5  and  S_6
REMARK    6  A    between atoms: S_6  and  C_7
REMARK                            x       y       z     vdW  Elec       q    Type
REMARK                         _______ _______ _______ _____ _____    ______ ____
ROOT
ATOM      1  C   UNL     1      -3.528   1.619   0.028  0.00  0.00    +0.192 A 
ATOM      2  N   UNL     1      -2.362   0.978   0.019  0.00  0.00    -0.207 NA
ATOM      3  C   UNL     1      -1.213   1.638   0.017  0.00  0.00    +0.130 A 
ATOM      4  C   UNL     1      -1.254   3.054   0.030  0.00  0.00    +0.059 A 
ATOM      5  C   UNL     1      -0.097   3.837   0.024  0.00  0.00    +0.020 A 
ATOM      6  C   UNL     1      -0.227   5.207   0.033  0.00  0.00    -0.025 A 
ATOM      7  C   UNL     1      -1.489   5.779   0.037  0.00  0.00    +0.047 A 
ATOM      8  N   UNL     1      -2.577   5.025   0.037  0.00  0.00    -0.232 NA
ATOM      9  C   UNL     1      -2.517   3.697   0.033  0.00  0.00    +0.166 A 
ATOM     10  N   UNL     1      -3.621   2.936   0.035  0.00  0.00    -0.202 NA
ATOM     11  C   UNL     1      -1.692   7.274   0.035  0.00  0.00    +0.056 C 
ATOM     12  C   UNL     1      -0.415   7.989   0.470  0.00  0.00    +0.006 C 
ATOM     13  C   UNL     1       0.749   7.464  -0.378  0.00  0.00    +0.005 C 
ATOM     14  C   UNL     1       1.038   6.024   0.041  0.00  0.00    +0.037 C 
ATOM     15  N   UNL     1      -0.011   0.966   0.007  0.00  0.00    -0.342 N 
ATOM     16  H   UNL     1       0.002  -0.004   0.002  0.00  0.00    +0.144 HD
ATOM     17  H   UNL     1       0.822   1.462   0.002  0.00  0.00    +0.144 HD
ENDROOT
BRANCH   1  18
ATOM     18  S   UNL     1      -5.012   0.669   0.030  0.00  0.00    -0.086 S 
BRANCH  18  19
ATOM     19  C   UNL     1      -4.316  -1.001   0.018  0.00  0.00    +0.078 C 
BRANCH  19  20
ATOM     20  C   UNL     1      -5.452  -2.027   0.018  0.00  0.00    +0.014 C 
BRANCH  20  22
ATOM     21  C   UNL     1      -4.099  -3.683   1.310  0.00  0.00    +0.007 C 
ATOM     22  C   UNL     1      -4.864  -3.439   0.008  0.00  0.00    -0.016 C 
ATOM     23  C   UNL     1      -5.995  -4.462  -0.117  0.00  0.00    +0.007 C 
ENDBRANCH  20  22
ENDBRANCH  19  20
ENDBRANCH  18  19
ENDBRANCH   1  18
TORSDOF 4
