REMARK  Name = ZINC02162861
REMARK  13 active torsions:
REMARK  status: ('A' for Active; 'I' for Inactive)
REMARK    1  A    between atoms: C_1  and  C_2
REMARK    2  A    between atoms: C_6  and  N_8
REMARK    3  A    between atoms: N_8  and  C_9
REMARK    4  A    between atoms: N_8  and  S_30
REMARK    5  A    between atoms: C_9  and  C_10
REMARK    6  A    between atoms: N_12  and  N_13
REMARK    7  A    between atoms: C_14  and  C_15
REMARK    8  A    between atoms: C_17  and  C_29
REMARK    9  A    between atoms: N_18  and  C_21
REMARK   10  A    between atoms: C_19  and  C_20
REMARK   11  A    between atoms: C_22  and  C_28
REMARK   12  A    between atoms: C_26  and  C_27
REMARK   13  A    between atoms: S_30  and  C_33
REMARK                            x       y       z     vdW  Elec       q    Type
REMARK                         _______ _______ _______ _____ _____    ______ ____
ROOT
ATOM      1  C   UNL     1      -1.250   6.101   1.968  0.00  0.00    +0.251 C 
ATOM      2  O   UNL     1      -0.322   5.654   2.609  0.00  0.00    -0.272 OA
ATOM      3  N   UNL     1      -2.263   6.729   2.598  0.00  0.00    -0.206 N 
ATOM      4  H   UNL     1      -3.005   7.087   2.085  0.00  0.00    +0.177 HD
ENDROOT
BRANCH   3   5
ATOM      5  N   UNL     1      -2.243   6.867   3.992  0.00  0.00    -0.188 NA
ATOM      6  C   UNL     1      -3.218   7.472   4.598  0.00  0.00    +0.140 C 
BRANCH   6   7
ATOM      7  C   UNL     1      -3.198   7.617   6.065  0.00  0.00    +0.016 A 
ATOM      8  C   UNL     1      -4.213   8.268   6.898  0.00  0.00    +0.032 A 
ATOM      9  C   UNL     1      -3.787   8.168   8.171  0.00  0.00    +0.022 A 
ATOM     10  N   UNL     1      -2.592   7.507   8.186  0.00  0.00    -0.317 N 
ATOM     11  C   UNL     1      -2.232   7.166   6.919  0.00  0.00    +0.030 A 
ATOM     12  C   UNL     1      -0.983   6.422   6.525  0.00  0.00    +0.064 C 
ATOM     13  C   UNL     1      -4.511   8.697   9.382  0.00  0.00    +0.064 C 
BRANCH  10  14
ATOM     14  C   UNL     1      -1.848   7.217   9.338  0.00  0.00    +0.052 A 
ATOM     15  C   UNL     1      -0.895   8.117   9.795  0.00  0.00    -0.026 A 
ATOM     16  C   UNL     1      -0.167   7.831  10.934  0.00  0.00    +0.005 A 
ATOM     17  C   UNL     1      -0.380   6.645  11.612  0.00  0.00    +0.001 A 
ATOM     18  C   UNL     1      -1.325   5.744  11.156  0.00  0.00    +0.005 A 
ATOM     19  C   UNL     1      -2.059   6.027  10.021  0.00  0.00    -0.026 A 
ATOM     20  C   UNL     1      -3.089   5.045   9.525  0.00  0.00    +0.046 C 
ATOM     21  C   UNL     1      -0.658   9.407   9.053  0.00  0.00    +0.046 C 
ENDBRANCH  10  14
ENDBRANCH   6   7
ENDBRANCH   3   5
BRANCH   1  22
ATOM     22  C   UNL     1      -1.271   5.953   0.469  0.00  0.00    +0.228 C 
BRANCH  22  23
ATOM     23  N   UNL     1      -0.069   5.239   0.031  0.00  0.00    -0.199 N 
BRANCH  23  29
ATOM     24  C   UNL     1      -1.896   0.975  -1.589  0.00  0.00    +0.044 C 
ATOM     25  C   UNL     1      -0.921   1.749  -0.741  0.00  0.00    -0.049 A 
ATOM     26  C   UNL     1      -0.001   1.076   0.042  0.00  0.00    +0.003 A 
ATOM     27  C   UNL     1       0.900   1.783   0.817  0.00  0.00    +0.002 A 
ATOM     28  C   UNL     1       0.881   3.164   0.816  0.00  0.00    +0.025 A 
ATOM     29  C   UNL     1      -0.046   3.843   0.035  0.00  0.00    +0.052 A 
ATOM     30  C   UNL     1      -0.950   3.129  -0.743  0.00  0.00    +0.028 A 
ENDBRANCH  23  29
BRANCH  23  31
ATOM     31  S   UNL     1       1.263   6.088  -0.467  0.00  0.00    +0.043 S 
ATOM     32  O   UNL     1       1.238   7.284   0.300  0.00  0.00    -0.155 OA
ATOM     33  O   UNL     1       2.343   5.173  -0.346  0.00  0.00    -0.155 OA
ATOM     34  C   UNL     1       0.952   6.460  -2.215  0.00  0.00    +0.218 C 
ENDBRANCH  23  31
ENDBRANCH  22  23
ENDBRANCH   1  22
TORSDOF 7
