REMARK  Name = ZINC26602991
REMARK  6 active torsions:
REMARK  status: ('A' for Active; 'I' for Inactive)
REMARK    1  A    between atoms: C_4  and  N_8
REMARK    2  A    between atoms: C_9  and  C_11
REMARK    3  A    between atoms: N_16  and  C_17
REMARK    4  A    between atoms: C_17  and  C_18
REMARK    5  A    between atoms: N_20  and  C_21
REMARK    6  A    between atoms: C_22  and  C_26
REMARK                            x       y       z     vdW  Elec       q    Type
REMARK                         _______ _______ _______ _____ _____    ______ ____
ROOT
ATOM      1  C   UNL     1       0.165   1.579   0.244  0.00  0.00    +0.020 C 
ATOM      2  C   UNL     1      -0.897   1.838  -0.846  0.00  0.00    -0.008 C 
ATOM      3  C   UNL     1      -0.280   3.001  -1.666  0.00  0.00    -0.020 C 
ATOM      4  C   UNL     1       1.228   2.653  -1.617  0.00  0.00    -0.077 C 
ATOM      5  N   UNL     1       1.446   2.105  -0.261  0.00  0.00    +0.393 N 
ATOM      6  H   UNL     1       1.809   2.899   0.408  0.00  0.00    -0.080 HD
ENDROOT
BRANCH   1   8
ATOM      7  N   UNL     1      -0.125  -0.415   1.679  0.00  0.00    -0.286 N 
ATOM      8  C   UNL     1       0.284   0.099   0.502  0.00  0.00    +0.204 C 
ATOM      9  O   UNL     1       0.749  -0.629  -0.349  0.00  0.00    -0.277 OA
ATOM     10  H   UNL     1      -0.597   0.237   2.429  0.00  0.00    +0.155 HD
BRANCH   7  14
ATOM     11  C   UNL     1       0.400  -4.472   2.478  0.00  0.00    +0.021 A 
ATOM     12  C   UNL     1       0.394  -3.559   3.517  0.00  0.00    +0.023 A 
ATOM     13  C   UNL     1       0.226  -2.213   3.255  0.00  0.00    +0.062 A 
ATOM     14  C   UNL     1       0.051  -1.777   1.947  0.00  0.00    +0.053 A 
ATOM     15  C   UNL     1       0.058  -2.695   0.906  0.00  0.00    +0.044 A 
ATOM     16  C   UNL     1       0.232  -4.041   1.174  0.00  0.00    +0.043 A 
ATOM     17 CL   UNL     1       0.240  -5.190  -0.127  0.00  0.00    -0.083 Cl
ATOM     18 CL   UNL     1       0.226  -1.068   4.560  0.00  0.00    -0.082 Cl
ENDBRANCH   7  14
ENDBRANCH   1   8
BRANCH   5  19
ATOM     19  C   UNL     1       2.476   1.058  -0.275  0.00  0.00    +0.020 C 
BRANCH  19  20
ATOM     20  C   UNL     1       3.837   1.693  -0.405  0.00  0.00    +0.201 C 
ATOM     21  O   UNL     1       3.938   2.900  -0.478  0.00  0.00    -0.278 OA
ATOM     22  N   UNL     1       4.941   0.921  -0.439  0.00  0.00    -0.281 N 
ATOM     23  H   UNL     1       4.849  -0.173  -0.372  0.00  0.00    +0.155 HD
BRANCH  22  24
ATOM     24  C   UNL     1       6.194   1.506  -0.558  0.00  0.00    +0.089 A 
ATOM     25  C   UNL     1       7.435   0.885  -0.605  0.00  0.00    +0.080 A 
ATOM     26  C   UNL     1       8.587   1.744  -0.736  0.00  0.00    +0.028 A 
ATOM     27  C   UNL     1       8.361   3.070  -0.793  0.00  0.00    +0.048 A 
ATOM     28  S   UNL     1       6.588   3.188  -0.677  0.00  0.00    -0.081 S 
BRANCH  25  29
ATOM     29  C   UNL     1       7.565  -0.539  -0.529  0.00  0.00    +0.102 C 
ATOM     30  N   UNL     1       7.668  -1.669  -0.469  0.00  0.00    -0.191 NA
ENDBRANCH  25  29
ENDBRANCH  22  24
ENDBRANCH  19  20
ENDBRANCH   5  19
TORSDOF 6
