REMARK  Name = ZINC03043091
REMARK  11 active torsions:
REMARK  status: ('A' for Active; 'I' for Inactive)
REMARK    1  A    between atoms: C_1  and  C_2
REMARK    2  A    between atoms: C_2  and  C_3
REMARK    3  A    between atoms: C_3  and  C_5
REMARK    4  A    between atoms: C_3  and  N_6
REMARK    5  A    between atoms: C_7  and  C_9
REMARK    6  A    between atoms: C_9  and  S_10
REMARK    7  A    between atoms: S_10  and  C_11
REMARK    8  A    between atoms: N_17  and  C_18
REMARK    9  A    between atoms: N_27  and  C_28
REMARK   10  A    between atoms: C_31  and  C_35
REMARK   11  A    between atoms: C_32  and  C_34
REMARK                            x       y       z     vdW  Elec       q    Type
REMARK                         _______ _______ _______ _____ _____    ______ ____
ROOT
ATOM      1  C   UNL     1       1.027   3.192   0.503  0.00  0.00    +0.179 A 
ATOM      2  N   UNL     1      -0.110   3.841   0.538  0.00  0.00    -0.204 NA
ATOM      3  C   UNL     1      -1.264   3.299   0.075  0.00  0.00    +0.161 A 
ATOM      4  C   UNL     1      -1.171   2.008  -0.448  0.00  0.00    +0.122 A 
ATOM      5  C   UNL     1       0.031   1.315  -0.481  0.00  0.00    +0.275 A 
ATOM      6  O   UNL     1       0.090   0.184  -0.939  0.00  0.00    -0.266 OA
ATOM      7  N   UNL     1       1.139   1.927   0.002  0.00  0.00    -0.255 N 
ATOM      8  S   UNL     1      -2.839   1.647  -0.935  0.00  0.00    -0.055 S 
ATOM      9  C   UNL     1      -3.572   3.199  -0.442  0.00  0.00    +0.132 A 
ATOM     10  S   UNL     1      -5.202   3.706  -0.567  0.00  0.00    -0.024 S 
ATOM     11  N   UNL     1      -2.512   3.870   0.055  0.00  0.00    -0.282 N 
ENDROOT
BRANCH  11  12
ATOM     12  C   UNL     1      -2.688   5.166   0.556  0.00  0.00    +0.050 A 
ATOM     13  C   UNL     1      -2.077   6.244  -0.071  0.00  0.00    +0.026 A 
ATOM     14  C   UNL     1      -2.252   7.520   0.425  0.00  0.00    +0.005 A 
ATOM     15  C   UNL     1      -3.035   7.726   1.547  0.00  0.00    -0.047 A 
ATOM     16  C   UNL     1      -3.645   6.655   2.174  0.00  0.00    -0.046 A 
ATOM     17  C   UNL     1      -3.478   5.377   1.678  0.00  0.00    +0.030 A 
ATOM     18  C   UNL     1      -4.497   6.884   3.396  0.00  0.00    +0.044 C 
ATOM     19  C   UNL     1      -3.225   9.121   2.086  0.00  0.00    +0.044 C 
ENDBRANCH  11  12
BRANCH   7  20
ATOM     20  C   UNL     1       2.378   1.274  -0.013  0.00  0.00    +0.052 A 
ATOM     21  C   UNL     1       3.218   1.400  -1.112  0.00  0.00    +0.026 A 
ATOM     22  C   UNL     1       4.441   0.760  -1.121  0.00  0.00    +0.002 A 
ATOM     23  C   UNL     1       4.826  -0.015  -0.043  0.00  0.00    +0.000 A 
ATOM     24  C   UNL     1       3.990  -0.147   1.050  0.00  0.00    +0.002 A 
ATOM     25  C   UNL     1       2.767   0.495   1.068  0.00  0.00    +0.026 A 
ENDBRANCH   7  20
BRANCH   1  26
ATOM     26  S   UNL     1       2.471   3.984   1.131  0.00  0.00    -0.078 S 
BRANCH  26  27
ATOM     27  C   UNL     1       1.763   5.569   1.643  0.00  0.00    +0.173 C 
BRANCH  27  29
ATOM     28  N   UNL     1       2.550   7.673   2.679  0.00  0.00    -0.312 N 
ATOM     29  C   UNL     1       2.847   6.438   2.227  0.00  0.00    +0.224 C 
ATOM     30  O   UNL     1       3.986   6.026   2.292  0.00  0.00    -0.275 OA
ATOM     31  H   UNL     1       1.640   8.002   2.627  0.00  0.00    +0.149 HD
BRANCH  28  32
ATOM     32  C   UNL     1       3.604   8.517   3.247  0.00  0.00    +0.070 C 
ATOM     33  C   UNL     1       4.324   9.261   2.121  0.00  0.00    +0.028 C 
BRANCH  32  35
ATOM     34  C   UNL     1       2.369   8.790   5.402  0.00  0.00    +0.005 C 
ATOM     35  C   UNL     1       2.982   9.529   4.211  0.00  0.00    +0.018 C 
ENDBRANCH  32  35
ENDBRANCH  28  32
ENDBRANCH  27  29
ENDBRANCH  26  27
ENDBRANCH   1  26
TORSDOF 7
