REMARK  Name = ZINC03169685
REMARK  4 active torsions:
REMARK  status: ('A' for Active; 'I' for Inactive)
REMARK    1  A    between atoms: C_9  and  O_29
REMARK    2  A    between atoms: C_10  and  C_11
REMARK    3  A    between atoms: N_12  and  C_13
REMARK    4  A    between atoms: C_20  and  C_22
REMARK                            x       y       z     vdW  Elec       q    Type
REMARK                         _______ _______ _______ _____ _____    ______ ____
ROOT
ATOM      1  C   UNL     1       3.703  -0.602  -0.035  0.00  0.00    +0.066 A 
ATOM      2  C   UNL     1       4.721  -0.180  -0.901  0.00  0.00    +0.031 A 
ATOM      3  C   UNL     1       5.931  -0.834  -0.922  0.00  0.00    +0.050 A 
ATOM      4  C   UNL     1       6.152  -1.918  -0.084  0.00  0.00    +0.156 A 
ATOM      5  C   UNL     1       5.139  -2.350   0.789  0.00  0.00    +0.112 A 
ATOM      6  C   UNL     1       3.914  -1.684   0.814  0.00  0.00    +0.059 A 
ATOM      7  N   UNL     1       5.640  -3.413   1.472  0.00  0.00    -0.209 NA
ATOM      8  C   UNL     1       6.864  -3.634   1.066  0.00  0.00    +0.228 A 
ATOM      9  O   UNL     1       7.206  -2.740   0.119  0.00  0.00    -0.435 OA
ENDROOT
BRANCH   8  10
ATOM     10  C   UNL     1       7.743  -4.708   1.574  0.00  0.00    +0.037 A 
ATOM     11  C   UNL     1       7.286  -5.578   2.565  0.00  0.00    +0.014 A 
ATOM     12  C   UNL     1       8.110  -6.582   3.031  0.00  0.00    +0.016 A 
ATOM     13  C   UNL     1       9.391  -6.720   2.526  0.00  0.00    +0.018 A 
ATOM     14  C   UNL     1       9.852  -5.857   1.546  0.00  0.00    +0.016 A 
ATOM     15  C   UNL     1       9.037  -4.853   1.068  0.00  0.00    +0.014 A 
ATOM     16 BR   UNL     1      10.516  -8.094   3.175  0.00  0.00    -0.050 Br
ENDBRANCH   8  10
BRANCH   1  18
ATOM     17  C   UNL     1       2.472   1.361  -0.014  0.00  0.00    +0.123 C 
ATOM     18  N   UNL     1       2.503   0.055  -0.021  0.00  0.00    -0.255 NA
BRANCH  17  28
ATOM     19  C   UNL     1       0.967   6.290   0.025  0.00  0.00    +0.001 A 
ATOM     20  C   UNL     1       2.208   5.659   0.010  0.00  0.00    +0.001 A 
ATOM     21  C   UNL     1       2.300   4.298   0.003  0.00  0.00    +0.009 A 
ATOM     22  C   UNL     1       1.134   3.525   0.010  0.00  0.00    -0.006 A 
ATOM     23  C   UNL     1      -0.129   4.165   0.026  0.00  0.00    -0.017 A 
ATOM     24  C   UNL     1      -0.187   5.568   0.033  0.00  0.00    +0.008 A 
ATOM     25  C   UNL     1      -1.301   3.386   0.033  0.00  0.00    +0.012 A 
ATOM     26  C   UNL     1      -1.235   2.029   0.019  0.00  0.00    +0.046 A 
ATOM     27  C   UNL     1      -0.016   1.352   0.009  0.00  0.00    +0.126 A 
ATOM     28  C   UNL     1       1.187   2.063   0.002  0.00  0.00    +0.042 A 
BRANCH  27  29
ATOM     29  O   UNL     1       0.002  -0.004   0.002  0.00  0.00    -0.506 OA
ATOM     30  H   UNL     1       0.016  -0.402   0.883  0.00  0.00    +0.292 HD
ENDBRANCH  27  29
ENDBRANCH  17  28
ENDBRANCH   1  18
TORSDOF 4
