REMARK  Name = ZINC21238015
REMARK  8 active torsions:
REMARK  status: ('A' for Active; 'I' for Inactive)
REMARK    1  A    between atoms: C_1  and  C_2
REMARK    2  A    between atoms: C_5  and  C_11
REMARK    3  A    between atoms: C_7  and  N_8
REMARK    4  A    between atoms: C_16  and  C_21
REMARK    5  A    between atoms: C_23  and  O_29
REMARK    6  A    between atoms: C_26  and  O_27
REMARK    7  A    between atoms: O_27  and  C_28
REMARK    8  A    between atoms: O_29  and  C_30
REMARK                            x       y       z     vdW  Elec       q    Type
REMARK                         _______ _______ _______ _____ _____    ______ ____
ROOT
ATOM      1  C   UNL     1      -6.199   0.934   0.326  0.00  0.00    +0.136 C 
ATOM      2  C   UNL     1      -4.970   0.103   0.610  0.00  0.00    +0.036 C 
ATOM      3  C   UNL     1      -4.163  -0.452  -0.309  0.00  0.00    +0.017 C 
ATOM      4  C   UNL     1      -2.969  -1.288   0.120  0.00  0.00    +0.060 C 
ATOM      5  C   UNL     1      -2.397  -0.741   1.427  0.00  0.00    +0.036 C 
ATOM      6  C   UNL     1      -3.502  -0.815   2.487  0.00  0.00    +0.088 C 
ATOM      7  C   UNL     1      -4.695  -0.056   1.989  0.00  0.00    +0.163 C 
ATOM      8  O   UNL     1      -5.454   0.440   2.798  0.00  0.00    -0.292 OA
ATOM      9  N   UNL     1      -4.320  -0.335  -1.653  0.00  0.00    -0.316 N 
ATOM     10  C   UNL     1      -5.524  -0.510  -2.328  0.00  0.00    +0.052 A 
ATOM     11  C   UNL     1      -5.700  -1.502  -3.277  0.00  0.00    +0.025 A 
ATOM     12  C   UNL     1      -6.885  -1.555  -3.991  0.00  0.00    +0.002 A 
ATOM     13  C   UNL     1      -7.882  -0.625  -3.758  0.00  0.00    +0.002 A 
ATOM     14  C   UNL     1      -7.715   0.355  -2.795  0.00  0.00    +0.025 A 
ATOM     15  C   UNL     1      -6.537   0.400  -2.067  0.00  0.00    +0.049 A 
ATOM     16  N   UNL     1      -6.340   1.340  -1.057  0.00  0.00    -0.331 N 
ATOM     17  H   UNL     1      -3.457  -0.086  -2.287  0.00  0.00    +0.152 HD
ATOM     18  H   UNL     1      -6.293   2.406  -1.325  0.00  0.00    +0.147 HD
ENDROOT
BRANCH   1  23
ATOM     19  C   UNL     1     -10.866  -2.125   1.825  0.00  0.00    +0.046 C 
ATOM     20  C   UNL     1      -9.649  -1.327   1.434  0.00  0.00    -0.020 A 
ATOM     21  C   UNL     1      -9.351  -0.151   2.097  0.00  0.00    +0.006 A 
ATOM     22  C   UNL     1      -8.232   0.578   1.742  0.00  0.00    +0.006 A 
ATOM     23  C   UNL     1      -7.416   0.137   0.716  0.00  0.00    -0.021 A 
ATOM     24  C   UNL     1      -7.715  -1.038   0.053  0.00  0.00    +0.038 A 
ATOM     25  C   UNL     1      -8.831  -1.770   0.412  0.00  0.00    +0.129 A 
BRANCH  25  26
ATOM     26  N   UNL     1      -9.150  -3.029  -0.299  0.00  0.00    +0.057 N 
ATOM     27  O   UNL     1      -9.612  -3.975   0.315  0.00  0.00    -0.126 OA
ATOM     28  O   UNL     1      -8.951  -3.120  -1.497  0.00  0.00    -0.126 OA
ENDBRANCH  25  26
ENDBRANCH   1  23
BRANCH   5  29
ATOM     29  C   UNL     1      -1.220  -1.578   1.858  0.00  0.00    +0.002 A 
ATOM     30  C   UNL     1      -1.384  -2.927   2.105  0.00  0.00    +0.053 A 
ATOM     31  C   UNL     1      -0.302  -3.696   2.507  0.00  0.00    +0.121 A 
ATOM     32  C   UNL     1       0.947  -3.111   2.656  0.00  0.00    +0.049 A 
ATOM     33  C   UNL     1       1.113  -1.763   2.405  0.00  0.00    +0.049 A 
ATOM     34  C   UNL     1       0.030  -0.994   2.002  0.00  0.00    +0.124 A 
BRANCH  34  35
ATOM     35  O   UNL     1       0.193   0.333   1.755  0.00  0.00    -0.495 OA
ATOM     36  C   UNL     1       1.507   0.869   1.929  0.00  0.00    +0.277 C 
ENDBRANCH  34  35
BRANCH  31  37
ATOM     37  O   UNL     1      -0.465  -5.023   2.754  0.00  0.00    -0.495 OA
ATOM     38  C   UNL     1       0.692  -5.753   3.165  0.00  0.00    +0.277 C 
ENDBRANCH  31  37
ENDBRANCH   5  29
TORSDOF 5
