REMARK  Name = ZINC03596118
REMARK  10 active torsions:
REMARK  status: ('A' for Active; 'I' for Inactive)
REMARK    1  A    between atoms: C_1  and  C_2
REMARK    2  A    between atoms: C_2  and  C_3
REMARK    3  A    between atoms: C_3  and  C_4
REMARK    4  A    between atoms: C_4  and  C_22
REMARK    5  A    between atoms: N_7  and  C_11
REMARK    6  A    between atoms: C_11  and  C_12
REMARK    7  A    between atoms: N_17  and  C_18
REMARK    8  A    between atoms: C_18  and  C_19
REMARK    9  A    between atoms: C_19  and  C_20
REMARK   10  A    between atoms: C_19  and  C_21
REMARK                            x       y       z     vdW  Elec       q    Type
REMARK                         _______ _______ _______ _____ _____    ______ ____
ROOT
ATOM      1  C   UNL     1      -1.332   2.114   0.020  0.00  0.00    +0.138 C 
ATOM      2  C   UNL     1      -1.866   2.271  -1.390  0.00  0.00    +0.251 C 
ATOM      3  O   UNL     1      -1.343   2.864  -2.309  0.00  0.00    -0.272 OA
ATOM      4  N   UNL     1      -3.044   1.617  -1.409  0.00  0.00    -0.215 N 
ATOM      5  C   UNL     1      -3.325   1.073  -0.219  0.00  0.00    +0.310 C 
ATOM      6  O   UNL     1      -4.333   0.433   0.010  0.00  0.00    -0.252 OA
ATOM      7  N   UNL     1      -2.368   1.314   0.695  0.00  0.00    -0.281 N 
ATOM      8  H   UNL     1      -2.361   1.018   1.619  0.00  0.00    +0.152 HD
ENDROOT
BRANCH   1   9
ATOM      9  C   UNL     1      -0.017   1.378   0.010  0.00  0.00    -0.015 A 
ATOM     10  C   UNL     1       1.171   2.086   0.002  0.00  0.00    +0.006 A 
ATOM     11  C   UNL     1       2.377   1.411  -0.014  0.00  0.00    +0.000 A 
ATOM     12  C   UNL     1       2.396   0.029  -0.021  0.00  0.00    +0.000 A 
ATOM     13  C   UNL     1       1.208  -0.679  -0.014  0.00  0.00    +0.000 A 
ATOM     14  C   UNL     1       0.002  -0.004   0.002  0.00  0.00    +0.006 A 
ENDBRANCH   1   9
BRANCH   1  15
ATOM     15  C   UNL     1      -1.179   3.478   0.696  0.00  0.00    +0.040 C 
BRANCH  15  17
ATOM     16  C   UNL     1      -2.396   5.513   1.482  0.00  0.00    +0.004 C 
ATOM     17  C   UNL     1      -2.549   4.150   0.805  0.00  0.00    -0.000 C 
ENDBRANCH  15  17
ENDBRANCH   1  15
BRANCH   4  18
ATOM     18  C   UNL     1      -3.909   1.512  -2.587  0.00  0.00    +0.214 C 
BRANCH  18  19
ATOM     19  C   UNL     1      -4.875   2.669  -2.604  0.00  0.00    +0.238 C 
ATOM     20  O   UNL     1      -4.843   3.498  -1.721  0.00  0.00    -0.274 OA
ATOM     21  N   UNL     1      -5.773   2.781  -3.603  0.00  0.00    -0.239 N 
ATOM     22  C   UNL     1      -6.637   3.816  -3.619  0.00  0.00    +0.306 C 
ATOM     23  O   UNL     1      -6.606   4.647  -2.733  0.00  0.00    -0.252 OA
ATOM     24  N   UNL     1      -7.535   3.928  -4.617  0.00  0.00    -0.299 N 
ATOM     25  H   UNL     1      -5.798   2.117  -4.310  0.00  0.00    +0.159 HD
ATOM     26  H   UNL     1      -7.560   3.264  -5.324  0.00  0.00    +0.150 HD
BRANCH  24  27
ATOM     27  C   UNL     1      -8.474   5.052  -4.635  0.00  0.00    +0.108 C 
BRANCH  27  28
ATOM     28  C   UNL     1      -9.377   4.943  -5.865  0.00  0.00    -0.000 C 
ATOM     29  C   UNL     1     -10.438   6.045  -5.818  0.00  0.00    +0.009 C 
ATOM     30  C   UNL     1      -8.534   5.100  -7.132  0.00  0.00    +0.009 C 
ENDBRANCH  27  28
ENDBRANCH  24  27
ENDBRANCH  18  19
ENDBRANCH   4  18
TORSDOF 7
