REMARK  Name = ZINC35991223
REMARK  10 active torsions:
REMARK  status: ('A' for Active; 'I' for Inactive)
REMARK    1  A    between atoms: C_1  and  C_2
REMARK    2  A    between atoms: C_2  and  N_3
REMARK    3  A    between atoms: N_6  and  C_9
REMARK    4  A    between atoms: C_9  and  C_10
REMARK    5  A    between atoms: C_11  and  C_27
REMARK    6  A    between atoms: C_12  and  C_19
REMARK    7  A    between atoms: N_17  and  C_18
REMARK    8  A    between atoms: C_27  and  O_29
REMARK    9  A    between atoms: O_29  and  C_30
REMARK   10  A    between atoms: C_30  and  C_31
REMARK                            x       y       z     vdW  Elec       q    Type
REMARK                         _______ _______ _______ _____ _____    ______ ____
ROOT
ATOM      1  C   UNL     1      -4.836  -4.368  -1.676  0.00  0.00    +0.041 C 
ATOM      2  C   UNL     1      -5.216  -4.886  -0.488  0.00  0.00    +0.080 C 
ATOM      3  C   UNL     1      -5.041  -6.376  -0.280  0.00  0.00    +0.145 C 
ATOM      4  N   UNL     1      -4.466  -7.143  -1.398  0.00  0.00    -0.288 N 
ATOM      5  C   UNL     1      -4.135  -6.483  -2.525  0.00  0.00    +0.307 C 
ATOM      6  O   UNL     1      -3.659  -7.107  -3.454  0.00  0.00    -0.252 OA
ATOM      7  N   UNL     1      -4.316  -5.163  -2.658  0.00  0.00    -0.260 N 
ATOM      8  C   UNL     1      -3.931  -4.535  -3.924  0.00  0.00    +0.139 C 
ATOM      9  H   UNL     1      -4.329  -8.101  -1.325  0.00  0.00    +0.151 HD
ENDROOT
BRANCH   3  10
ATOM     10  C   UNL     1      -6.392  -6.963   0.039  0.00  0.00    -0.004 A 
ATOM     11  C   UNL     1      -7.187  -7.460  -0.978  0.00  0.00    +0.008 A 
ATOM     12  C   UNL     1      -8.426  -7.998  -0.686  0.00  0.00    +0.020 A 
ATOM     13  C   UNL     1      -8.872  -8.040   0.623  0.00  0.00    +0.042 A 
ATOM     14  C   UNL     1      -8.077  -7.543   1.640  0.00  0.00    +0.040 A 
ATOM     15  C   UNL     1      -6.834  -7.009   1.349  0.00  0.00    +0.048 A 
ATOM     16 CL   UNL     1      -5.833  -6.391   2.625  0.00  0.00    -0.083 Cl
ATOM     17 CL   UNL     1     -10.428  -8.716   0.989  0.00  0.00    -0.083 Cl
ENDBRANCH   3  10
BRANCH   2  18
ATOM     18  C   UNL     1      -5.760  -4.064   0.527  0.00  0.00    +0.339 C 
ATOM     19  O   UNL     1      -5.050  -3.667   1.433  0.00  0.00    -0.245 OA
BRANCH  18  20
ATOM     20  O   UNL     1      -7.064  -3.721   0.491  0.00  0.00    -0.462 OA
BRANCH  20  21
ATOM     21  C   UNL     1      -7.570  -2.977   1.602  0.00  0.00    +0.229 C 
ATOM     22  C   UNL     1      -9.080  -2.788   1.444  0.00  0.00    +0.048 C 
ENDBRANCH  20  21
ENDBRANCH  18  20
ENDBRANCH   2  18
BRANCH   1  23
ATOM     23  C   UNL     1      -4.993  -2.890  -1.925  0.00  0.00    +0.136 C 
BRANCH  23  27
ATOM     24  N   UNL     1      -1.625  -0.360  -1.573  0.00  0.00    +0.381 N 
ATOM     25  C   UNL     1      -2.391  -0.320  -2.826  0.00  0.00    -0.063 C 
ATOM     26  C   UNL     1      -3.788  -0.896  -2.588  0.00  0.00    +0.066 C 
ATOM     27  N   UNL     1      -3.669  -2.281  -2.111  0.00  0.00    -0.300 NA
ATOM     28  C   UNL     1      -2.883  -2.340  -0.871  0.00  0.00    +0.066 C 
ATOM     29  C   UNL     1      -1.494  -1.752  -1.122  0.00  0.00    -0.063 C 
ATOM     30  H   UNL     1      -2.106   0.178  -0.868  0.00  0.00    -0.082 HD
BRANCH  24  32
ATOM     31  C   UNL     1      -0.421   1.694  -2.146  0.00  0.00    -0.017 C 
ATOM     32  C   UNL     1      -0.290   0.210  -1.797  0.00  0.00    -0.082 C 
ENDBRANCH  24  32
ENDBRANCH  23  27
ENDBRANCH   1  23
TORSDOF 7
