REMARK  Name = ZINC58648642
REMARK  9 active torsions:
REMARK  status: ('A' for Active; 'I' for Inactive)
REMARK    1  A    between atoms: C_1  and  N_2
REMARK    2  A    between atoms: N_2  and  S_3
REMARK    3  A    between atoms: S_3  and  C_6
REMARK    4  A    between atoms: C_9  and  N_15
REMARK    5  A    between atoms: C_10  and  N_12
REMARK    6  A    between atoms: N_15  and  C_16
REMARK    7  A    between atoms: C_16  and  C_17
REMARK    8  A    between atoms: C_17  and  C_19
REMARK    9  A    between atoms: C_17  and  O_26
REMARK                            x       y       z     vdW  Elec       q    Type
REMARK                         _______ _______ _______ _____ _____    ______ ____
ROOT
ATOM      1  C   UNL     1      -2.465  -0.607  -1.438  0.00  0.00    +0.108 A 
ATOM      2  C   UNL     1      -3.109   0.606  -1.605  0.00  0.00    +0.030 A 
ATOM      3  C   UNL     1      -3.539   0.994  -2.859  0.00  0.00    +0.027 A 
ATOM      4  C   UNL     1      -3.324   0.165  -3.953  0.00  0.00    +0.058 A 
ATOM      5  C   UNL     1      -2.677  -1.053  -3.781  0.00  0.00    +0.149 A 
ATOM      6  C   UNL     1      -2.245  -1.432  -2.525  0.00  0.00    +0.063 A 
ENDROOT
BRANCH   1   7
ATOM      7  S   UNL     1      -1.918  -1.098   0.163  0.00  0.00    +0.058 S 
ATOM      8  O   UNL     1      -1.824  -2.515   0.143  0.00  0.00    -0.153 OA
ATOM      9  O   UNL     1      -2.727  -0.401   1.101  0.00  0.00    -0.153 OA
BRANCH   7  11
ATOM     10  C   UNL     1      -0.130   0.920   0.384  0.00  0.00    +0.127 C 
ATOM     11  N   UNL     1      -0.375  -0.524   0.350  0.00  0.00    -0.193 NA
ATOM     12  H   UNL     1       0.365  -1.144   0.438  0.00  0.00    +0.148 HD
ENDBRANCH   7  11
ENDBRANCH   1   7
BRANCH   5  13
ATOM     13  N   UNL     1      -2.447  -1.939  -4.943  0.00  0.00    +0.058 N 
ATOM     14  O   UNL     1      -3.287  -2.034  -5.807  0.00  0.00    -0.126 OA
ATOM     15  O   UNL     1      -1.418  -2.569  -5.029  0.00  0.00    -0.126 OA
ENDBRANCH   5  13
BRANCH   4  16
ATOM     16  N   UNL     1      -3.758   0.554  -5.222  0.00  0.00    -0.339 N 
ATOM     17  H   UNL     1      -3.534   0.016  -5.997  0.00  0.00    +0.146 HD
BRANCH  16  18
ATOM     18  C   UNL     1      -4.553   1.774  -5.382  0.00  0.00    +0.137 C 
BRANCH  18  19
ATOM     19  C   UNL     1      -4.895   1.969  -6.861  0.00  0.00    +0.161 C 
BRANCH  19  20
ATOM     20  C   UNL     1      -5.606   3.286  -7.042  0.00  0.00    -0.018 A 
ATOM     21  C   UNL     1      -6.952   3.391  -6.746  0.00  0.00    +0.007 A 
ATOM     22  C   UNL     1      -7.604   4.598  -6.913  0.00  0.00    +0.020 A 
ATOM     23  C   UNL     1      -6.909   5.701  -7.375  0.00  0.00    +0.041 A 
ATOM     24  C   UNL     1      -5.562   5.596  -7.671  0.00  0.00    +0.020 A 
ATOM     25  C   UNL     1      -4.910   4.389  -7.499  0.00  0.00    +0.007 A 
ATOM     26 CL   UNL     1      -7.728   7.218  -7.585  0.00  0.00    -0.084 Cl
ENDBRANCH  19  20
BRANCH  19  27
ATOM     27  O   UNL     1      -5.744   0.906  -7.297  0.00  0.00    -0.386 OA
ATOM     28  H   UNL     1      -6.580   0.847  -6.816  0.00  0.00    +0.210 HD
ENDBRANCH  19  27
ENDBRANCH  18  19
ENDBRANCH  16  18
ENDBRANCH   4  16
TORSDOF 8
