REMARK  Name = ZINC09528441
REMARK  11 active torsions:
REMARK  status: ('A' for Active; 'I' for Inactive)
REMARK    1  A    between atoms: C_1  and  C_2
REMARK    2  A    between atoms: C_2  and  C_3
REMARK    3  A    between atoms: C_2  and  C_4
REMARK    4  A    between atoms: C_4  and  C_6
REMARK    5  A    between atoms: C_4  and  N_21
REMARK    6  A    between atoms: N_8  and  C_9
REMARK    7  A    between atoms: C_9  and  C_10
REMARK    8  A    between atoms: C_10  and  C_11
REMARK    9  A    between atoms: C_11  and  N_58
REMARK   10  A    between atoms: N_21  and  S_22
REMARK   11  A    between atoms: S_22  and  C_25
REMARK                            x       y       z     vdW  Elec       q    Type
REMARK                         _______ _______ _______ _____ _____    ______ ____
ROOT
ATOM      1  C   UNL     1      -0.985   8.255  -4.661  0.00  0.00    +0.232 C 
ATOM      2  O   UNL     1      -1.141   7.520  -5.613  0.00  0.00    -0.274 OA
ATOM      3  N   UNL     1       0.020   8.028  -3.793  0.00  0.00    -0.314 N 
ATOM      4  H   UNL     1       0.188   8.654  -3.071  0.00  0.00    +0.149 HD
ENDROOT
BRANCH   1   5
ATOM      5  C   UNL     1      -1.915   9.421  -4.449  0.00  0.00    +0.165 C 
BRANCH   5   7
ATOM      6  C   UNL     1      -3.866  10.254  -3.127  0.00  0.00    +0.009 C 
ATOM      7  C   UNL     1      -3.003   9.031  -3.446  0.00  0.00    +0.010 C 
ATOM      8  C   UNL     1      -3.880   7.930  -4.047  0.00  0.00    +0.009 C 
ENDBRANCH   5   7
BRANCH   5   9
ATOM      9  N   UNL     1      -2.537   9.789  -5.724  0.00  0.00    -0.177 NA
ATOM     10  H   UNL     1      -3.138   9.170  -6.167  0.00  0.00    +0.149 HD
BRANCH   9  11
ATOM     11  S   UNL     1      -2.212  11.261  -6.409  0.00  0.00    +0.065 S 
ATOM     12  O   UNL     1      -2.912  11.297  -7.645  0.00  0.00    -0.153 OA
ATOM     13  O   UNL     1      -2.410  12.235  -5.393  0.00  0.00    -0.153 OA
BRANCH  11  14
ATOM     14  C   UNL     1      -0.495  11.286  -6.802  0.00  0.00    +0.142 A 
ATOM     15  C   UNL     1       0.125  10.901  -7.945  0.00  0.00    +0.036 A 
ATOM     16  C   UNL     1       1.500  11.011  -8.032  0.00  0.00    +0.010 A 
ATOM     17  C   UNL     1       2.188  11.500  -6.971  0.00  0.00    +0.047 A 
ATOM     18  S   UNL     1       0.880  11.830  -5.802  0.00  0.00    -0.077 S 
ENDBRANCH  11  14
ENDBRANCH   9  11
ENDBRANCH   5   9
ENDBRANCH   1   5
BRANCH   3  19
ATOM     19  C   UNL     1       0.859   6.836  -3.939  0.00  0.00    +0.102 C 
BRANCH  19  20
ATOM     20  C   UNL     1       1.917   6.819  -2.833  0.00  0.00    +0.000 C 
BRANCH  20  21
ATOM     21  C   UNL     1       2.793   5.574  -2.986  0.00  0.00    -0.077 C 
BRANCH  21  31
ATOM     22  C   UNL     1       4.814   4.511  -2.173  0.00  0.00    -0.074 C 
ATOM     23  C   UNL     1       6.019   4.772  -1.269  0.00  0.00    +0.017 C 
ATOM     24  C   UNL     1       5.560   4.969   0.153  0.00  0.00    -0.048 A 
ATOM     25  C   UNL     1       6.497   4.865   1.171  0.00  0.00    +0.004 A 
ATOM     26  C   UNL     1       6.119   5.042   2.486  0.00  0.00    +0.000 A 
ATOM     27  C   UNL     1       4.801   5.324   2.792  0.00  0.00    +0.000 A 
ATOM     28  C   UNL     1       3.871   5.429   1.782  0.00  0.00    +0.002 A 
ATOM     29  C   UNL     1       4.247   5.249   0.459  0.00  0.00    -0.061 A 
ATOM     30  C   UNL     1       3.191   5.365  -0.609  0.00  0.00    -0.043 C 
ATOM     31  N   UNL     1       3.823   5.577  -1.922  0.00  0.00    +0.383 N 
ATOM     32  H   UNL     1       4.300   6.486  -1.921  0.00  0.00    -0.081 HD
ENDBRANCH  21  31
ENDBRANCH  20  21
ENDBRANCH  19  20
ENDBRANCH   3  19
TORSDOF 9
