REMARK  Name = ZINC39638848
REMARK  5 active torsions:
REMARK  status: ('A' for Active; 'I' for Inactive)
REMARK    1  A    between atoms: C_5  and  C_7
REMARK    2  A    between atoms: C_7  and  C_8
REMARK    3  A    between atoms: C_8  and  N_9
REMARK    4  A    between atoms: C_10  and  C_12
REMARK    5  A    between atoms: C_23  and  C_25
REMARK                            x       y       z     vdW  Elec       q    Type
REMARK                         _______ _______ _______ _____ _____    ______ ____
ROOT
ATOM      1  C   UNL     1       1.502  -6.993   2.290  0.00  0.00    +0.100 C 
ATOM      2  C   UNL     1       2.788  -7.178   1.453  0.00  0.00    +0.121 C 
ATOM      3  N   UNL     1       3.865  -7.354   2.455  0.00  0.00    -0.296 N 
ATOM      4  C   UNL     1       3.252  -8.194   3.511  0.00  0.00    +0.115 C 
ATOM      5  C   UNL     1       1.810  -7.665   3.639  0.00  0.00    -0.004 C 
ATOM      6  C   UNL     1       1.722  -6.644   4.769  0.00  0.00    -0.010 C 
ATOM      7  C   UNL     1       1.975  -7.347   6.106  0.00  0.00    -0.082 C 
ATOM      8  N   UNL     1       0.980  -8.409   6.299  0.00  0.00    +0.379 N 
ATOM      9  C   UNL     1       1.133  -9.434   5.260  0.00  0.00    -0.082 C 
ATOM     10  C   UNL     1       0.844  -8.819   3.887  0.00  0.00    -0.010 C 
ATOM     11  C   UNL     1       5.119  -6.861   2.415  0.00  0.00    +0.247 C 
ATOM     12  O   UNL     1       5.438  -6.080   1.540  0.00  0.00    -0.270 OA
ATOM     13  H   UNL     1       1.111  -8.829   7.207  0.00  0.00    -0.086 HD
ATOM     14  H   UNL     1       0.053  -8.013   6.246  0.00  0.00    -0.086 HD
ENDROOT
BRANCH  11  15
ATOM     15  C   UNL     1       6.107  -7.271   3.436  0.00  0.00    +0.037 A 
ATOM     16  C   UNL     1       5.920  -8.450   4.159  0.00  0.00    +0.014 A 
ATOM     17  C   UNL     1       6.845  -8.827   5.109  0.00  0.00    +0.021 A 
ATOM     18  C   UNL     1       7.957  -8.038   5.348  0.00  0.00    +0.041 A 
ATOM     19  C   UNL     1       8.149  -6.867   4.633  0.00  0.00    +0.021 A 
ATOM     20  C   UNL     1       7.234  -6.482   3.676  0.00  0.00    +0.014 A 
ATOM     21 CL   UNL     1       9.117  -8.519   6.547  0.00  0.00    -0.084 Cl
ENDBRANCH  11  15
BRANCH   1  23
ATOM     22  N   UNL     1      -0.048  -5.121   2.749  0.00  0.00    -0.315 N 
ATOM     23  C   UNL     1       1.210  -5.528   2.487  0.00  0.00    +0.218 C 
ATOM     24  O   UNL     1       2.107  -4.715   2.410  0.00  0.00    -0.275 OA
ATOM     25  H   UNL     1      -0.765  -5.771   2.811  0.00  0.00    +0.149 HD
BRANCH  22  26
ATOM     26  C   UNL     1      -0.332  -3.697   2.941  0.00  0.00    +0.109 C 
BRANCH  26  27
ATOM     27  C   UNL     1      -1.824  -3.508   3.223  0.00  0.00    +0.056 C 
BRANCH  27  32
ATOM     28  C   UNL     1      -2.414  -0.166   4.876  0.00  0.00    +0.000 A 
ATOM     29  C   UNL     1      -2.653   0.646   3.783  0.00  0.00    +0.003 A 
ATOM     30  C   UNL     1      -2.624   0.116   2.508  0.00  0.00    +0.038 A 
ATOM     31  C   UNL     1      -2.355  -1.231   2.325  0.00  0.00    +0.127 A 
ATOM     32  C   UNL     1      -2.116  -2.043   3.420  0.00  0.00    -0.011 A 
ATOM     33  C   UNL     1      -2.145  -1.510   4.695  0.00  0.00    +0.006 A 
ATOM     34  F   UNL     1      -2.327  -1.751   1.078  0.00  0.00    -0.205 F 
ENDBRANCH  27  32
ENDBRANCH  26  27
ENDBRANCH  22  26
ENDBRANCH   1  23
TORSDOF 5
