REMARK  Name = ZINC08876791
REMARK  8 active torsions:
REMARK  status: ('A' for Active; 'I' for Inactive)
REMARK    1  A    between atoms: C_1  and  C_2
REMARK    2  A    between atoms: C_4  and  C_36
REMARK    3  A    between atoms: C_9  and  C_21
REMARK    4  A    between atoms: C_12  and  C_14
REMARK    5  A    between atoms: C_14  and  C_15
REMARK    6  A    between atoms: N_23  and  C_24
REMARK    7  A    between atoms: C_29  and  O_30
REMARK    8  A    between atoms: O_30  and  C_31
REMARK                            x       y       z     vdW  Elec       q    Type
REMARK                         _______ _______ _______ _____ _____    ______ ____
ROOT
ATOM      1  C   UNL     1       0.271   4.691  -7.481  0.00  0.00    +0.044 C 
ATOM      2  C   UNL     1       1.212   5.358  -6.511  0.00  0.00    -0.050 A 
ATOM      3  C   UNL     1       2.502   5.668  -6.900  0.00  0.00    +0.008 A 
ATOM      4  C   UNL     1       3.369   6.277  -6.016  0.00  0.00    -0.029 A 
ATOM      5  C   UNL     1       2.949   6.585  -4.723  0.00  0.00    +0.039 A 
ATOM      6  C   UNL     1       1.649   6.269  -4.345  0.00  0.00    -0.027 A 
ATOM      7  C   UNL     1       0.787   5.661  -5.230  0.00  0.00    +0.008 A 
ATOM      8  C   UNL     1       1.510   6.723  -2.916  0.00  0.00    +0.049 C 
ATOM      9  C   UNL     1       0.409   7.787  -2.787  0.00  0.00    +0.076 C 
ATOM     10  C   UNL     1      -0.227   7.460  -1.407  0.00  0.00    -0.003 C 
ATOM     11  C   UNL     1      -0.122   5.915  -1.370  0.00  0.00    -0.065 C 
ATOM     12  C   UNL     1       2.856   7.306  -2.567  0.00  0.00    +0.211 C 
ATOM     13  O   UNL     1       3.180   7.788  -1.502  0.00  0.00    -0.277 OA
ATOM     14  N   UNL     1       3.628   7.188  -3.663  0.00  0.00    -0.286 N 
ATOM     15  C   UNL     1       4.773   6.610  -6.449  0.00  0.00    +0.045 C 
ATOM     16  H   UNL     1       4.549   7.489  -3.711  0.00  0.00    +0.155 HD
ATOM     17  N   UNL     1       1.163   5.613  -2.031  0.00  0.00    +0.394 N 
ATOM     18  H   UNL     1       1.896   5.494  -1.322  0.00  0.00    -0.083 HD
ATOM     19  H   UNL     1       1.074   4.749  -2.579  0.00  0.00    -0.083 HD
ENDROOT
BRANCH   9  20
ATOM     20  C   UNL     1      -0.609   7.639  -3.889  0.00  0.00    +0.220 C 
ATOM     21  O   UNL     1      -1.529   6.859  -3.764  0.00  0.00    -0.275 OA
ATOM     22  N   UNL     1      -0.495   8.374  -5.013  0.00  0.00    -0.282 N 
ATOM     23  H   UNL     1       0.284   8.936  -5.149  0.00  0.00    +0.155 HD
BRANCH  22  24
ATOM     24  C   UNL     1      -1.503   8.326  -5.986  0.00  0.00    +0.077 A 
ATOM     25  C   UNL     1      -2.828   8.165  -5.607  0.00  0.00    +0.047 A 
ATOM     26  C   UNL     1      -3.820   8.118  -6.569  0.00  0.00    +0.043 A 
ATOM     27  C   UNL     1      -3.495   8.232  -7.909  0.00  0.00    +0.024 A 
ATOM     28  C   UNL     1      -2.176   8.392  -8.293  0.00  0.00    +0.049 A 
ATOM     29  C   UNL     1      -1.177   8.446  -7.335  0.00  0.00    +0.141 A 
ATOM     30 CL   UNL     1      -5.478   7.917  -6.094  0.00  0.00    -0.083 Cl
BRANCH  29  31
ATOM     31  O   UNL     1       0.119   8.609  -7.711  0.00  0.00    -0.493 OA
ATOM     32  C   UNL     1       0.379   8.725  -9.111  0.00  0.00    +0.277 C 
ENDBRANCH  29  31
ENDBRANCH  22  24
ENDBRANCH   9  20
BRANCH  11  33
ATOM     33  C   UNL     1      -0.113   5.415   0.076  0.00  0.00    +0.019 C 
BRANCH  33  34
ATOM     34  C   UNL     1      -0.096   3.909   0.087  0.00  0.00    -0.049 A 
ATOM     35  C   UNL     1       1.110   3.232   0.090  0.00  0.00    +0.003 A 
ATOM     36  C   UNL     1       1.126   1.849   0.101  0.00  0.00    +0.000 A 
ATOM     37  C   UNL     1      -0.063   1.144   0.109  0.00  0.00    +0.000 A 
ATOM     38  C   UNL     1      -1.268   1.821   0.101  0.00  0.00    +0.000 A 
ATOM     39  C   UNL     1      -1.284   3.204   0.094  0.00  0.00    +0.003 A 
ENDBRANCH  33  34
ENDBRANCH  11  33
TORSDOF 5
