REMARK  Name = ZINC66490602
REMARK  5 active torsions:
REMARK  status: ('A' for Active; 'I' for Inactive)
REMARK    1  A    between atoms: C_4  and  O_7
REMARK    2  A    between atoms: O_7  and  C_8
REMARK    3  A    between atoms: N_10  and  C_11
REMARK    4  A    between atoms: C_17  and  C_19
REMARK    5  A    between atoms: C_19  and  C_20
REMARK                            x       y       z     vdW  Elec       q    Type
REMARK                         _______ _______ _______ _____ _____    ______ ____
ROOT
ATOM      1  C   UNL     1       4.689  -4.126   0.255  0.00  0.00    +0.079 C 
ATOM      2  C   UNL     1       4.503  -4.529   1.720  0.00  0.00    +0.041 C 
ATOM      3  C   UNL     1       4.442  -6.056   1.821  0.00  0.00    +0.109 C 
ATOM      4  N   UNL     1       5.641  -6.621   1.188  0.00  0.00    -0.301 N 
ATOM      5  C   UNL     1       5.963  -6.228  -0.191  0.00  0.00    +0.109 C 
ATOM      6  C   UNL     1       6.008  -4.699  -0.270  0.00  0.00    +0.041 C 
ATOM      7  C   UNL     1       6.431  -7.483   1.859  0.00  0.00    +0.220 C 
ATOM      8  O   UNL     1       6.154  -7.799   2.997  0.00  0.00    -0.275 OA
ENDROOT
BRANCH   1  11
ATOM      9  C   UNL     1       3.562  -1.975   0.060  0.00  0.00    +0.406 C 
ATOM     10  O   UNL     1       2.499  -2.565   0.066  0.00  0.00    -0.226 OA
ATOM     11  N   UNL     1       4.716  -2.665   0.150  0.00  0.00    -0.278 N 
ATOM     12  H   UNL     1       5.564  -2.195   0.145  0.00  0.00    +0.152 HD
BRANCH   9  13
ATOM     13  O   UNL     1       3.586  -0.632  -0.037  0.00  0.00    -0.412 OA
BRANCH  13  17
ATOM     14  C   UNL     1      -0.012   1.384   0.070  0.00  0.00    +0.000 A 
ATOM     15  C   UNL     1       0.471   0.774   1.212  0.00  0.00    +0.004 A 
ATOM     16  C   UNL     1       1.676   0.098   1.179  0.00  0.00    +0.046 A 
ATOM     17  C   UNL     1       2.400   0.032  -0.002  0.00  0.00    +0.133 A 
ATOM     18  C   UNL     1       1.913   0.644  -1.147  0.00  0.00    +0.046 A 
ATOM     19  C   UNL     1       0.708   1.319  -1.109  0.00  0.00    +0.004 A 
ENDBRANCH  13  17
ENDBRANCH   9  13
ENDBRANCH   1  11
BRANCH   7  20
ATOM     20  C   UNL     1       7.657  -8.054   1.196  0.00  0.00    +0.131 C 
BRANCH  20  21
ATOM     21  C   UNL     1       8.360  -8.983   2.152  0.00  0.00    -0.038 A 
ATOM     22  C   UNL     1       9.328  -8.493   3.009  0.00  0.00    +0.004 A 
ATOM     23  C   UNL     1       9.969  -9.350   3.880  0.00  0.00    +0.004 A 
ATOM     24  C   UNL     1       9.647 -10.701   3.904  0.00  0.00    -0.044 A 
ATOM     25  C   UNL     1       8.680 -11.188   3.055  0.00  0.00    -0.044 A 
ATOM     26  C   UNL     1       8.034 -10.323   2.180  0.00  0.00    +0.008 A 
ATOM     27  C   UNL     1       8.269 -12.637   3.038  0.00  0.00    +0.035 C 
ATOM     28  C   UNL     1       9.328 -13.503   3.717  0.00  0.00    +0.005 C 
ATOM     29  C   UNL     1       9.643 -12.896   5.089  0.00  0.00    +0.005 C 
ATOM     30  C   UNL     1      10.391 -11.582   4.874  0.00  0.00    +0.035 C 
ENDBRANCH  20  21
ENDBRANCH   7  20
TORSDOF 5
