REMARK  Name = ZINC08332110
REMARK  8 active torsions:
REMARK  status: ('A' for Active; 'I' for Inactive)
REMARK    1  A    between atoms: C_1  and  C_2
REMARK    2  A    between atoms: C_4  and  C_29
REMARK    3  A    between atoms: C_5  and  N_9
REMARK    4  A    between atoms: C_6  and  C_8
REMARK    5  A    between atoms: C_10  and  C_12
REMARK    6  A    between atoms: C_12  and  S_13
REMARK    7  A    between atoms: S_13  and  C_14
REMARK    8  A    between atoms: N_15  and  C_16
REMARK                            x       y       z     vdW  Elec       q    Type
REMARK                         _______ _______ _______ _____ _____    ______ ____
ROOT
ATOM      1  S   UNL     1     -10.127   8.702  -7.899  0.00  0.00    -0.081 S 
ENDROOT
BRANCH   1   2
ATOM      2  C   UNL     1     -10.958   8.769  -9.451  0.00  0.00    +0.157 C 
ATOM      3  N   UNL     1     -11.709   7.763  -9.838  0.00  0.00    -0.226 NA
ATOM      4  N   UNL     1     -10.820   9.872 -10.257  0.00  0.00    -0.310 N 
ATOM      5  C   UNL     1      -9.510  10.469 -10.398  0.00  0.00    +0.107 C 
ATOM      6  C   UNL     1      -9.305  11.537  -9.296  0.00  0.00    +0.019 C 
ATOM      7  C   UNL     1     -10.142  12.716  -9.565  0.00  0.00    +0.002 C 
ATOM      8  C   UNL     1     -11.642  12.439  -9.548  0.00  0.00    +0.002 C 
ATOM      9  C   UNL     1     -12.074  11.939 -10.904  0.00  0.00    +0.019 C 
ATOM     10  C   UNL     1     -12.013  10.397 -10.949  0.00  0.00    +0.107 C 
BRANCH   3  11
ATOM     11  C   UNL     1     -11.765   6.621  -9.085  0.00  0.00    +0.066 A 
ATOM     12  C   UNL     1     -10.628   5.825  -8.931  0.00  0.00    +0.028 A 
ATOM     13  C   UNL     1     -10.691   4.676  -8.171  0.00  0.00    +0.002 A 
ATOM     14  C   UNL     1     -11.878   4.311  -7.560  0.00  0.00    +0.000 A 
ATOM     15  C   UNL     1     -13.009   5.095  -7.708  0.00  0.00    +0.002 A 
ATOM     16  C   UNL     1     -12.958   6.250  -8.461  0.00  0.00    +0.028 A 
ENDBRANCH   3  11
ENDBRANCH   1   2
BRANCH   1  17
ATOM     17  C   UNL     1      -8.368   8.755  -8.339  0.00  0.00    +0.173 C 
BRANCH  17  19
ATOM     18  N   UNL     1      -6.208   8.122  -7.314  0.00  0.00    -0.284 N 
ATOM     19  C   UNL     1      -7.550   8.185  -7.209  0.00  0.00    +0.227 C 
ATOM     20  O   UNL     1      -8.100   7.784  -6.205  0.00  0.00    -0.275 OA
ATOM     21  H   UNL     1      -5.760   8.540  -8.066  0.00  0.00    +0.155 HD
BRANCH  18  26
ATOM     22  C   UNL     1      -3.177   5.410  -3.359  0.00  0.00    +0.044 C 
ATOM     23  C   UNL     1      -3.982   6.130  -4.410  0.00  0.00    -0.050 A 
ATOM     24  C   UNL     1      -4.866   5.425  -5.205  0.00  0.00    +0.008 A 
ATOM     25  C   UNL     1      -5.606   6.082  -6.169  0.00  0.00    -0.029 A 
ATOM     26  C   UNL     1      -5.461   7.453  -6.338  0.00  0.00    +0.039 A 
ATOM     27  C   UNL     1      -4.572   8.159  -5.537  0.00  0.00    -0.029 A 
ATOM     28  C   UNL     1      -3.839   7.496  -4.572  0.00  0.00    +0.008 A 
ATOM     29  C   UNL     1      -4.411   9.646  -5.718  0.00  0.00    +0.045 C 
ATOM     30  C   UNL     1      -6.569   5.313  -7.036  0.00  0.00    +0.045 C 
ENDBRANCH  18  26
ENDBRANCH  17  19
ENDBRANCH   1  17
TORSDOF 5
