REMARK  Name = ZINC12809818
REMARK  10 active torsions:
REMARK  status: ('A' for Active; 'I' for Inactive)
REMARK    1  A    between atoms: C_1  and  O_2
REMARK    2  A    between atoms: O_2  and  C_3
REMARK    3  A    between atoms: C_6  and  C_9
REMARK    4  A    between atoms: C_9  and  C_11
REMARK    5  A    between atoms: C_9  and  C_29
REMARK    6  A    between atoms: C_11  and  N_12
REMARK    7  A    between atoms: C_13  and  C_15
REMARK    8  A    between atoms: C_15  and  N_16
REMARK    9  A    between atoms: C_19  and  C_22
REMARK   10  A    between atoms: C_25  and  O_28
REMARK                            x       y       z     vdW  Elec       q    Type
REMARK                         _______ _______ _______ _____ _____    ______ ____
ROOT
ATOM      1  C   UNL     1       1.589  -3.447   5.046  0.00  0.00    +0.117 C 
ENDROOT
BRANCH   1   2
ATOM      2  N   UNL     1       2.228  -4.016   6.235  0.00  0.00    -0.313 N 
ATOM      3  C   UNL     1       1.535  -4.844   7.042  0.00  0.00    +0.227 C 
ATOM      4  O   UNL     1       0.382  -5.117   6.783  0.00  0.00    -0.274 OA
ATOM      5  H   UNL     1       3.150  -3.797   6.441  0.00  0.00    +0.149 HD
BRANCH   3   6
ATOM      6  C   UNL     1       2.192  -5.429   8.265  0.00  0.00    +0.180 C 
BRANCH   6   7
ATOM      7  N   UNL     1       1.234  -6.290   8.971  0.00  0.00    -0.290 NA
ATOM      8  C   UNL     1       1.765  -6.708  10.279  0.00  0.00    +0.090 C 
ATOM      9  C   UNL     1       0.623  -7.323  11.093  0.00  0.00    +0.051 C 
ATOM     10  C   UNL     1      -0.104  -8.340  10.258  0.00  0.00    -0.042 C 
ATOM     11  C   UNL     1       0.015  -8.400   8.950  0.00  0.00    -0.008 C 
ATOM     12  C   UNL     1       0.890  -7.467   8.163  0.00  0.00    +0.112 C 
BRANCH  10  13
ATOM     13  C   UNL     1      -0.987  -9.312  10.935  0.00  0.00    -0.022 A 
ATOM     14  C   UNL     1      -2.136  -8.872  11.594  0.00  0.00    +0.012 A 
ATOM     15  C   UNL     1      -2.958  -9.782  12.224  0.00  0.00    +0.046 A 
ATOM     16  C   UNL     1      -2.643 -11.135  12.204  0.00  0.00    +0.117 A 
ATOM     17  C   UNL     1      -1.501 -11.576  11.550  0.00  0.00    +0.046 A 
ATOM     18  C   UNL     1      -0.677 -10.673  10.912  0.00  0.00    +0.012 A 
BRANCH  16  19
ATOM     19  O   UNL     1      -3.456 -12.028  12.827  0.00  0.00    -0.507 OA
ATOM     20  H   UNL     1      -4.155 -12.384  12.262  0.00  0.00    +0.292 HD
ENDBRANCH  16  19
ENDBRANCH  10  13
ENDBRANCH   6   7
ENDBRANCH   3   6
ENDBRANCH   1   2
BRANCH   1  21
ATOM     21  C   UNL     1       2.587  -2.550   4.310  0.00  0.00    +0.068 C 
BRANCH  21  22
ATOM     22  C   UNL     1       3.726  -3.388   3.789  0.00  0.00    -0.013 A 
ATOM     23  C   UNL     1       3.635  -4.405   2.918  0.00  0.00    +0.088 A 
ATOM     24  N   UNL     1       4.877  -4.927   2.679  0.00  0.00    -0.360 N 
ATOM     25  H   UNL     1       5.065  -5.670   2.084  0.00  0.00    +0.165 HD
ATOM     26  C   UNL     1       5.822  -4.240   3.408  0.00  0.00    +0.047 A 
ATOM     27  C   UNL     1       5.143  -3.241   4.130  0.00  0.00    +0.003 A 
ATOM     28  C   UNL     1       5.856  -2.377   4.963  0.00  0.00    +0.010 A 
ATOM     29  C   UNL     1       7.213  -2.502   5.069  0.00  0.00    +0.001 A 
ATOM     30  C   UNL     1       7.888  -3.483   4.355  0.00  0.00    +0.002 A 
ATOM     31  C   UNL     1       7.202  -4.353   3.535  0.00  0.00    +0.026 A 
ENDBRANCH  21  22
BRANCH  21  35
ATOM     32  C   UNL     1       0.626  -0.618   1.042  0.00  0.00    +0.120 A 
ATOM     33  C   UNL     1       1.202   0.138   2.051  0.00  0.00    +0.046 A 
ATOM     34  C   UNL     1       1.835  -0.488   3.107  0.00  0.00    +0.008 A 
ATOM     35  C   UNL     1       1.895  -1.869   3.158  0.00  0.00    -0.038 A 
ATOM     36  C   UNL     1       1.322  -2.625   2.152  0.00  0.00    +0.008 A 
ATOM     37  C   UNL     1       0.682  -2.003   1.098  0.00  0.00    +0.046 A 
BRANCH  32  39
ATOM     38  C   UNL     1      -0.017   1.425   0.010  0.00  0.00    +0.277 C 
ATOM     39  O   UNL     1       0.002  -0.004   0.002  0.00  0.00    -0.495 OA
ENDBRANCH  32  39
ENDBRANCH  21  35
ENDBRANCH   1  21
TORSDOF 9
