REMARK  Name = ZINC39654217
REMARK  8 active torsions:
REMARK  status: ('A' for Active; 'I' for Inactive)
REMARK    1  A    between atoms: C_1  and  C_2
REMARK    2  A    between atoms: C_2  and  C_3
REMARK    3  A    between atoms: C_6  and  C_9
REMARK    4  A    between atoms: C_9  and  C_10
REMARK    5  A    between atoms: C_10  and  N_11
REMARK    6  A    between atoms: C_12  and  C_14
REMARK    7  A    between atoms: C_25  and  C_27
REMARK    8  A    between atoms: C_33  and  C_35
REMARK                            x       y       z     vdW  Elec       q    Type
REMARK                         _______ _______ _______ _____ _____    ______ ____
ROOT
ATOM      1  C   UNL     1       5.056  -0.741  -8.911  0.00  0.00    +0.100 C 
ATOM      2  C   UNL     1       6.391  -1.422  -8.537  0.00  0.00    +0.121 C 
ATOM      3  N   UNL     1       7.327  -1.028  -9.617  0.00  0.00    -0.299 N 
ATOM      4  C   UNL     1       6.992   0.389  -9.896  0.00  0.00    +0.115 C 
ATOM      5  C   UNL     1       5.454   0.447  -9.802  0.00  0.00    -0.004 C 
ATOM      6  C   UNL     1       4.834   0.299 -11.188  0.00  0.00    -0.010 C 
ATOM      7  C   UNL     1       5.198   1.520 -12.038  0.00  0.00    -0.082 C 
ATOM      8  N   UNL     1       4.701   2.737 -11.386  0.00  0.00    +0.379 N 
ATOM      9  C   UNL     1       5.371   2.922 -10.092  0.00  0.00    -0.082 C 
ATOM     10  C   UNL     1       5.015   1.760  -9.161  0.00  0.00    -0.010 C 
ATOM     11  C   UNL     1       8.271  -1.786 -10.210  0.00  0.00    +0.236 C 
ATOM     12  O   UNL     1       8.965  -1.315 -11.086  0.00  0.00    -0.274 OA
ATOM     13  H   UNL     1       4.888   3.534 -11.976  0.00  0.00    -0.086 HD
ATOM     14  H   UNL     1       3.706   2.657 -11.239  0.00  0.00    -0.086 HD
ENDROOT
BRANCH  11  15
ATOM     15  C   UNL     1       8.463  -3.219  -9.785  0.00  0.00    +0.162 C 
ATOM     16  C   UNL     1       9.305  -3.274  -8.492  0.00  0.00    +0.033 C 
ATOM     17  C   UNL     1      10.207  -4.516  -8.717  0.00  0.00    +0.021 C 
ATOM     18  C   UNL     1      10.473  -4.435 -10.241  0.00  0.00    +0.109 C 
ATOM     19  N   UNL     1       9.203  -3.953 -10.822  0.00  0.00    -0.283 N 
ATOM     20  C   UNL     1       8.789  -4.152 -12.089  0.00  0.00    +0.320 C 
ATOM     21  O   UNL     1       7.722  -3.707 -12.456  0.00  0.00    -0.266 OA
BRANCH  20  22
ATOM     22  C   UNL     1       9.652  -4.927 -13.051  0.00  0.00    +0.470 C 
ATOM     23  F   UNL     1       9.016  -5.000 -14.295  0.00  0.00    -0.162 F 
ATOM     24  F   UNL     1      10.885  -4.282 -13.195  0.00  0.00    -0.162 F 
ATOM     25  F   UNL     1       9.857  -6.219 -12.556  0.00  0.00    -0.162 F 
ENDBRANCH  20  22
ENDBRANCH  11  15
BRANCH   1  27
ATOM     26  N   UNL     1       3.006  -0.167  -7.651  0.00  0.00    -0.315 N 
ATOM     27  C   UNL     1       4.351  -0.254  -7.671  0.00  0.00    +0.218 C 
ATOM     28  O   UNL     1       4.993   0.059  -6.692  0.00  0.00    -0.275 OA
ATOM     29  H   UNL     1       2.492  -0.418  -8.435  0.00  0.00    +0.149 HD
BRANCH  26  30
ATOM     30  C   UNL     1       2.320   0.306  -6.446  0.00  0.00    +0.109 C 
BRANCH  30  31
ATOM     31  C   UNL     1       0.809   0.309  -6.687  0.00  0.00    +0.054 C 
BRANCH  31  35
ATOM     32  C   UNL     1      -1.192   1.689  -3.175  0.00  0.00    -0.048 A 
ATOM     33  C   UNL     1      -0.800   2.591  -4.146  0.00  0.00    +0.004 A 
ATOM     34  C   UNL     1      -0.152   2.145  -5.283  0.00  0.00    +0.004 A 
ATOM     35  C   UNL     1       0.104   0.796  -5.447  0.00  0.00    -0.046 A 
ATOM     36  C   UNL     1      -0.287  -0.105  -4.475  0.00  0.00    +0.004 A 
ATOM     37  C   UNL     1      -0.930   0.342  -3.337  0.00  0.00    +0.004 A 
BRANCH  32  39
ATOM     38  C   UNL     1      -0.865   2.508  -0.857  0.00  0.00    +0.009 C 
ATOM     39  C   UNL     1      -1.898   2.176  -1.935  0.00  0.00    +0.032 C 
ENDBRANCH  32  39
ENDBRANCH  31  35
ENDBRANCH  30  31
ENDBRANCH  26  30
ENDBRANCH   1  27
TORSDOF 7
