REMARK  Name = ZINC44027889
REMARK  9 active torsions:
REMARK  status: ('A' for Active; 'I' for Inactive)
REMARK    1  A    between atoms: C_1  and  C_2
REMARK    2  A    between atoms: C_2  and  O_3
REMARK    3  A    between atoms: O_3  and  C_4
REMARK    4  A    between atoms: C_6  and  C_13
REMARK    5  A    between atoms: C_9  and  O_10
REMARK    6  A    between atoms: O_10  and  C_11
REMARK    7  A    between atoms: C_14  and  C_15
REMARK    8  A    between atoms: C_14  and  C_17
REMARK    9  A    between atoms: C_17  and  C_19
REMARK                            x       y       z     vdW  Elec       q    Type
REMARK                         _______ _______ _______ _____ _____    ______ ____
ROOT
ATOM      1  C   UNL     1       0.554  -1.802   1.159  0.00  0.00    +0.164 A 
ATOM      2  C   UNL     1      -0.008  -2.692   0.267  0.00  0.00    +0.057 A 
ATOM      3  C   UNL     1       0.268  -4.062   0.380  0.00  0.00    -0.019 A 
ATOM      4  C   UNL     1       1.115  -4.519   1.401  0.00  0.00    +0.027 A 
ATOM      5  C   UNL     1       1.671  -3.623   2.285  0.00  0.00    +0.064 A 
ATOM      6  C   UNL     1       1.400  -2.264   2.167  0.00  0.00    +0.175 A 
ATOM      7 BR   UNL     1       2.813  -4.241   3.660  0.00  0.00    -0.046 Br
ENDROOT
BRANCH   6   8
ATOM      8  O   UNL     1       1.957  -1.385   3.039  0.00  0.00    -0.490 OA
ATOM      9  C   UNL     1       1.223  -1.102   4.232  0.00  0.00    +0.277 C 
ENDBRANCH   6   8
BRANCH   3  10
ATOM     10  C   UNL     1      -0.326  -5.012  -0.562  0.00  0.00    +0.030 C 
ATOM     11  C   UNL     1      -0.612  -6.298  -0.157  0.00  0.00    +0.099 C 
BRANCH  11  12
ATOM     12  C   UNL     1      -1.052  -7.269  -1.113  0.00  0.00    +0.103 C 
ATOM     13  N   UNL     1      -1.401  -8.039  -1.872  0.00  0.00    -0.191 NA
ENDBRANCH  11  12
BRANCH  11  14
ATOM     14  C   UNL     1      -0.464  -6.673   1.258  0.00  0.00    +0.204 C 
ATOM     15  O   UNL     1      -1.129  -6.111   2.109  0.00  0.00    -0.286 OA
BRANCH  14  16
ATOM     16  C   UNL     1       0.486  -7.729   1.645  0.00  0.00    +0.030 A 
ATOM     17  C   UNL     1       0.674  -8.109   3.024  0.00  0.00    +0.019 A 
ATOM     18  C   UNL     1       1.573  -9.088   3.245  0.00  0.00    +0.046 A 
ATOM     19  S   UNL     1       2.151  -9.482   1.608  0.00  0.00    -0.104 S 
ATOM     20  C   UNL     1       1.235  -8.405   0.706  0.00  0.00    +0.057 A 
ENDBRANCH  14  16
ENDBRANCH  11  14
ENDBRANCH   3  10
BRANCH   1  21
ATOM     21  O   UNL     1       0.289  -0.473   1.051  0.00  0.00    -0.489 OA
BRANCH  21  23
ATOM     22  C   UNL     1      -0.764   1.450   0.034  0.00  0.00    +0.048 C 
ATOM     23  C   UNL     1      -0.586  -0.069  -0.004  0.00  0.00    +0.226 C 
ENDBRANCH  21  23
ENDBRANCH   1  21
TORSDOF 7
