REMARK  Name = ZINC50246612
REMARK  4 active torsions:
REMARK  status: ('A' for Active; 'I' for Inactive)
REMARK    1  A    between atoms: C_5  and  S_7
REMARK    2  A    between atoms: S_7  and  N_10
REMARK    3  A    between atoms: C_13  and  C_16
REMARK    4  A    between atoms: C_16  and  N_17
REMARK                            x       y       z     vdW  Elec       q    Type
REMARK                         _______ _______ _______ _____ _____    ______ ____
ROOT
ATOM      1  S   UNL     1       1.232  -2.441  -0.024  0.00  0.00    +0.062 S 
ATOM      2  O   UNL     1       2.063  -3.090   0.929  0.00  0.00    -0.153 OA
ATOM      3  O   UNL     1      -0.181  -2.591  -0.030  0.00  0.00    -0.153 OA
ENDROOT
BRANCH   1   8
ATOM      4  C   UNL     1       2.777   1.091   1.110  0.00  0.00    +0.002 A 
ATOM      5  C   UNL     1       2.058   1.995   0.349  0.00  0.00    +0.001 A 
ATOM      6  C   UNL     1       1.088   1.544  -0.525  0.00  0.00    +0.017 A 
ATOM      7  C   UNL     1       0.835   0.189  -0.639  0.00  0.00    +0.044 A 
ATOM      8  C   UNL     1       1.554  -0.715   0.121  0.00  0.00    +0.119 A 
ATOM      9  C   UNL     1       2.525  -0.263   0.996  0.00  0.00    +0.029 A 
ATOM     10 BR   UNL     1      -0.494  -0.427  -1.835  0.00  0.00    -0.048 Br
ENDBRANCH   1   8
BRANCH   1  11
ATOM     11  N   UNL     1       1.765  -2.915  -1.518  0.00  0.00    -0.176 NA
ATOM     12  C   UNL     1       0.929  -3.067  -2.718  0.00  0.00    +0.110 C 
ATOM     13  C   UNL     1       1.858  -3.497  -3.872  0.00  0.00    +0.020 C 
ATOM     14  C   UNL     1       3.253  -3.015  -3.394  0.00  0.00    -0.012 C 
ATOM     15  C   UNL     1       3.158  -3.248  -1.868  0.00  0.00    +0.111 C 
BRANCH  14  16
ATOM     16  C   UNL     1       4.367  -3.861  -4.013  0.00  0.00    -0.082 C 
BRANCH  16  17
ATOM     17  N   UNL     1       4.407  -3.632  -5.464  0.00  0.00    +0.378 N 
ATOM     18  H   UNL     1       3.521  -3.894  -5.870  0.00  0.00    -0.090 HD
ATOM     19  H   UNL     1       4.585  -2.656  -5.646  0.00  0.00    -0.090 HD
ATOM     20  H   UNL     1       5.142  -4.190  -5.872  0.00  0.00    -0.090 HD
ENDBRANCH  16  17
ENDBRANCH  14  16
ENDBRANCH   1  11
TORSDOF 4
