REMARK  Name = ZINC43883938
REMARK  9 active torsions:
REMARK  status: ('A' for Active; 'I' for Inactive)
REMARK    1  A    between atoms: C_1  and  O_2
REMARK    2  A    between atoms: O_2  and  C_3
REMARK    3  A    between atoms: C_5  and  N_11
REMARK    4  A    between atoms: C_7  and  O_9
REMARK    5  A    between atoms: O_9  and  C_10
REMARK    6  A    between atoms: C_12  and  C_14
REMARK    7  A    between atoms: C_14  and  N_20
REMARK    8  A    between atoms: N_20  and  C_21
REMARK    9  A    between atoms: C_21  and  C_22
REMARK                            x       y       z     vdW  Elec       q    Type
REMARK                         _______ _______ _______ _____ _____    ______ ____
ROOT
ATOM      1  C   UNL     1      -2.240  -7.164   0.136  0.00  0.00    +0.113 C 
ATOM      2  C   UNL     1      -1.493  -8.344  -0.489  0.00  0.00    +0.035 C 
ATOM      3  C   UNL     1      -1.686  -9.588   0.380  0.00  0.00    +0.003 C 
ATOM      4  C   UNL     1      -3.177  -9.920   0.472  0.00  0.00    +0.000 C 
ATOM      5  C   UNL     1      -3.925  -8.740   1.096  0.00  0.00    +0.003 C 
ATOM      6  C   UNL     1      -3.731  -7.496   0.227  0.00  0.00    +0.035 C 
ENDROOT
BRANCH   1   8
ATOM      7  N   UNL     1      -0.968  -5.155  -0.543  0.00  0.00    -0.283 N 
ATOM      8  C   UNL     1      -2.050  -5.939  -0.721  0.00  0.00    +0.241 C 
ATOM      9  O   UNL     1      -2.869  -5.659  -1.569  0.00  0.00    -0.273 OA
ATOM     10  H   UNL     1      -0.310  -5.381   0.133  0.00  0.00    +0.155 HD
BRANCH   7  13
ATOM     11  C   UNL     1       0.104  -1.805  -1.632  0.00  0.00    +0.125 A 
ATOM     12  C   UNL     1      -0.069  -2.935  -0.847  0.00  0.00    +0.069 A 
ATOM     13  C   UNL     1      -0.794  -4.014  -1.334  0.00  0.00    +0.040 A 
ATOM     14  C   UNL     1      -1.346  -3.960  -2.607  0.00  0.00    +0.069 A 
ATOM     15  C   UNL     1      -1.173  -2.829  -3.390  0.00  0.00    +0.125 A 
ATOM     16  C   UNL     1      -0.453  -1.750  -2.901  0.00  0.00    +0.091 A 
BRANCH  11  18
ATOM     17  C   UNL     1       0.946   0.385  -2.014  0.00  0.00    +0.277 C 
ATOM     18  O   UNL     1       0.813  -0.749  -1.155  0.00  0.00    -0.495 OA
ENDBRANCH  11  18
BRANCH  15  19
ATOM     19  O   UNL     1      -1.713  -2.777  -4.636  0.00  0.00    -0.495 OA
ATOM     20  C   UNL     1      -1.496  -1.581  -5.388  0.00  0.00    +0.277 C 
ENDBRANCH  15  19
ENDBRANCH   7  13
ENDBRANCH   1   8
BRANCH   1  21
ATOM     21  N   UNL     1      -1.714  -6.909   1.479  0.00  0.00    -0.290 N 
ATOM     22  C   UNL     1      -0.497  -7.374   1.825  0.00  0.00    +0.329 C 
ATOM     23  O   UNL     1      -0.105  -7.255   2.967  0.00  0.00    -0.279 OA
BRANCH  21  24
ATOM     24  C   UNL     1      -2.509  -6.147   2.445  0.00  0.00    +0.110 C 
BRANCH  24  25
ATOM     25  C   UNL     1      -3.210  -7.113   3.402  0.00  0.00    -0.007 C 
ATOM     26  C   UNL     1      -4.696  -7.190   3.050  0.00  0.00    +0.002 C 
ATOM     27  C   UNL     1      -5.320  -5.805   3.248  0.00  0.00    -0.018 C 
ATOM     28  C   UNL     1      -5.099  -5.368   4.696  0.00  0.00    -0.078 C 
ATOM     29  N   UNL     1      -3.660  -5.292   4.989  0.00  0.00    +0.382 N 
ATOM     30  C   UNL     1      -3.045  -6.613   4.841  0.00  0.00    -0.064 C 
ATOM     31  C   UNL     1      -1.546  -6.530   5.148  0.00  0.00    -0.015 C 
ATOM     32  C   UNL     1      -1.337  -6.013   6.573  0.00  0.00    -0.003 C 
ATOM     33  C   UNL     1      -2.023  -4.649   6.705  0.00  0.00    -0.019 C 
ATOM     34  C   UNL     1      -3.502  -4.810   6.369  0.00  0.00    -0.078 C 
ATOM     35  H   UNL     1      -3.221  -4.643   4.354  0.00  0.00    -0.081 HD
ENDBRANCH  24  25
ENDBRANCH  21  24
ENDBRANCH   1  21
TORSDOF 7
