REMARK  Name = ZINC02543429
REMARK  6 active torsions:
REMARK  status: ('A' for Active; 'I' for Inactive)
REMARK    1  A    between atoms: C_1  and  C_2
REMARK    2  A    between atoms: C_2  and  C_3
REMARK    3  A    between atoms: C_2  and  C_4
REMARK    4  A    between atoms: C_2  and  C_5
REMARK    5  A    between atoms: N_9  and  S_10
REMARK    6  A    between atoms: S_10  and  C_13
REMARK                            x       y       z     vdW  Elec       q    Type
REMARK                         _______ _______ _______ _____ _____    ______ ____
ROOT
ATOM      1  C   UNL     1      -2.445  -0.326   2.531  0.00  0.00    +0.081 A 
ATOM      2  C   UNL     1      -2.895  -0.241   3.814  0.00  0.00    +0.073 A 
ATOM      3  C   UNL     1      -3.593   1.042   3.935  0.00  0.00    +0.106 A 
ATOM      4  N   UNL     1      -3.518   1.629   2.766  0.00  0.00    -0.149 NA
ATOM      5  N   UNL     1      -2.809   0.801   1.889  0.00  0.00    -0.132 N 
ATOM      6  C   UNL     1      -4.098   1.151   5.326  0.00  0.00    +0.014 A 
ATOM      7  C   UNL     1      -4.819   2.150   5.970  0.00  0.00    +0.011 A 
ATOM      8  C   UNL     1      -5.171   2.004   7.300  0.00  0.00    +0.001 A 
ATOM      9  C   UNL     1      -4.812   0.866   7.997  0.00  0.00    +0.001 A 
ATOM     10  C   UNL     1      -4.096  -0.138   7.373  0.00  0.00    +0.012 A 
ATOM     11  C   UNL     1      -3.732  -0.005   6.034  0.00  0.00    +0.032 A 
ATOM     12  C   UNL     1      -2.979  -0.903   5.129  0.00  0.00    +0.198 C 
ATOM     13  O   UNL     1      -2.514  -1.988   5.417  0.00  0.00    -0.286 OA
ENDROOT
BRANCH   1  15
ATOM     14  C   UNL     1      -0.631  -0.934   0.952  0.00  0.00    +0.017 C 
ATOM     15  C   UNL     1      -1.671  -1.474   1.936  0.00  0.00    +0.007 C 
ATOM     16  C   UNL     1      -0.965  -2.246   3.052  0.00  0.00    +0.017 C 
ATOM     17  C   UNL     1      -2.633  -2.409   1.198  0.00  0.00    +0.017 C 
ENDBRANCH   1  15
BRANCH   5  18
ATOM     18  S   UNL     1      -2.477   1.149   0.304  0.00  0.00    +0.099 S 
ATOM     19  O   UNL     1      -3.034   0.095  -0.469  0.00  0.00    -0.146 OA
ATOM     20  O   UNL     1      -1.099   1.493   0.244  0.00  0.00    -0.146 OA
BRANCH  18  21
ATOM     21  C   UNL     1      -3.378   2.606  -0.109  0.00  0.00    +0.112 A 
ATOM     22  C   UNL     1      -2.843   3.851   0.166  0.00  0.00    +0.029 A 
ATOM     23  C   UNL     1      -3.548   4.994  -0.163  0.00  0.00    +0.002 A 
ATOM     24  C   UNL     1      -4.789   4.892  -0.763  0.00  0.00    +0.000 A 
ATOM     25  C   UNL     1      -5.326   3.647  -1.034  0.00  0.00    +0.002 A 
ATOM     26  C   UNL     1      -4.621   2.505  -0.704  0.00  0.00    +0.029 A 
ENDBRANCH  18  21
ENDBRANCH   5  18
TORSDOF 3
