REMARK  Name = ZINC63706831
REMARK  8 active torsions:
REMARK  status: ('A' for Active; 'I' for Inactive)
REMARK    1  A    between atoms: N_9  and  C_11
REMARK    2  A    between atoms: C_11  and  C_13
REMARK    3  A    between atoms: C_11  and  C_31
REMARK    4  A    between atoms: C_13  and  N_14
REMARK    5  A    between atoms: C_15  and  C_17
REMARK    6  A    between atoms: N_19  and  C_20
REMARK    7  A    between atoms: C_20  and  C_21
REMARK    8  A    between atoms: C_21  and  C_22
REMARK                            x       y       z     vdW  Elec       q    Type
REMARK                         _______ _______ _______ _____ _____    ______ ____
ROOT
ATOM      1  N   UNL     1       5.578  -0.550   0.879  0.00  0.00    -0.306 N 
ATOM      2  C   UNL     1       6.064   0.400   1.702  0.00  0.00    +0.299 C 
ATOM      3  O   UNL     1       6.498   0.094   2.794  0.00  0.00    -0.265 OA
ATOM      4  H   UNL     1       5.232  -0.306   0.007  0.00  0.00    +0.149 HD
ENDROOT
BRANCH   2   5
ATOM      5  C   UNL     1       6.070   1.831   1.271  0.00  0.00    +0.299 C 
ATOM      6  O   UNL     1       5.636   2.137   0.179  0.00  0.00    -0.265 OA
ATOM      7  N   UNL     1       6.556   2.781   2.094  0.00  0.00    -0.307 N 
ATOM      8  H   UNL     1       6.903   2.536   2.966  0.00  0.00    +0.149 HD
BRANCH   7   9
ATOM      9  C   UNL     1       6.562   4.183   1.670  0.00  0.00    +0.109 C 
BRANCH   9  10
ATOM     10  C   UNL     1       7.162   5.049   2.780  0.00  0.00    +0.052 C 
BRANCH  10  11
ATOM     11  C   UNL     1       7.167   6.491   2.345  0.00  0.00    -0.040 C 
ATOM     12  C   UNL     1       6.232   7.428   2.623  0.00  0.00    -0.001 A 
ATOM     13  C   UNL     1       4.978   7.386   3.384  0.00  0.00    +0.010 A 
ATOM     14  C   UNL     1       4.236   8.512   3.490  0.00  0.00    +0.001 A 
ATOM     15  C   UNL     1       4.634   9.715   2.891  0.00  0.00    +0.002 A 
ATOM     16  C   UNL     1       5.773   9.833   2.177  0.00  0.00    +0.026 A 
ATOM     17  C   UNL     1       6.630   8.711   2.002  0.00  0.00    +0.043 A 
ATOM     18  N   UNL     1       7.768   8.573   1.364  0.00  0.00    -0.380 N 
ATOM     19  C   UNL     1       8.223   7.186   1.515  0.00  0.00    +0.144 C 
ATOM     20  H   UNL     1       8.232   9.272   0.878  0.00  0.00    +0.160 HD
ENDBRANCH  10  11
ENDBRANCH   9  10
ENDBRANCH   7   9
ENDBRANCH   2   5
BRANCH   1  21
ATOM     21  C   UNL     1       5.573  -1.953   1.303  0.00  0.00    +0.128 C 
BRANCH  21  22
ATOM     22  C   UNL     1       4.872  -2.803   0.241  0.00  0.00    +0.111 C 
BRANCH  22  31
ATOM     23  C   UNL     1      -1.122  -1.593  -1.739  0.00  0.00    +0.000 A 
ATOM     24  C   UNL     1      -0.465  -2.311  -2.721  0.00  0.00    +0.000 A 
ATOM     25  C   UNL     1       0.826  -2.748  -2.505  0.00  0.00    +0.005 A 
ATOM     26  C   UNL     1       1.470  -2.470  -1.308  0.00  0.00    -0.030 A 
ATOM     27  C   UNL     1       0.815  -1.751  -0.331  0.00  0.00    -0.042 A 
ATOM     28  C   UNL     1      -0.483  -1.315  -0.547  0.00  0.00    +0.004 A 
ATOM     29  C   UNL     1       1.477  -1.415   0.981  0.00  0.00    +0.051 C 
ATOM     30  C   UNL     1       2.699  -2.310   1.194  0.00  0.00    +0.090 C 
ATOM     31  N   UNL     1       3.533  -2.257  -0.018  0.00  0.00    -0.289 NA
ATOM     32  C   UNL     1       2.877  -2.973  -1.117  0.00  0.00    +0.120 C 
ENDBRANCH  22  31
BRANCH  22  33
ATOM     33  C   UNL     1       4.749  -4.222   0.735  0.00  0.00    +0.008 A 
ATOM     34  C   UNL     1       5.314  -5.350   0.239  0.00  0.00    +0.013 A 
ATOM     35  C   UNL     1       5.059  -6.557   0.862  0.00  0.00    +0.008 A 
ATOM     36  C   UNL     1       4.251  -6.577   1.950  0.00  0.00    +0.045 A 
ATOM     37  S   UNL     1       3.827  -4.852   2.128  0.00  0.00    -0.100 S 
ENDBRANCH  22  33
ENDBRANCH  21  22
ENDBRANCH   1  21
TORSDOF 8
