REMARK  Name = ZINC04189777
REMARK  3 active torsions:
REMARK  status: ('A' for Active; 'I' for Inactive)
REMARK    1  A    between atoms: C_1  and  O_2
REMARK    2  A    between atoms: O_2  and  C_3
REMARK    3  A    between atoms: C_6  and  C_9
REMARK                            x       y       z     vdW  Elec       q    Type
REMARK                         _______ _______ _______ _____ _____    ______ ____
ROOT
ATOM      1  C   UNL     1       1.304  -0.751  -0.008  0.00  0.00    +0.086 C 
ATOM      2  C   UNL     1       0.002  -0.004   0.002  0.00  0.00    -0.005 A 
ATOM      3  C   UNL     1      -1.213  -0.709   0.004  0.00  0.00    +0.006 A 
ATOM      4  C   UNL     1      -1.239  -2.117  -0.002  0.00  0.00    +0.012 A 
ATOM      5  C   UNL     1      -2.455  -2.739  -0.002  0.00  0.00    +0.020 A 
ATOM      6  C   UNL     1      -3.623  -1.980   0.005  0.00  0.00    +0.111 A 
ATOM      7  N   UNL     1      -3.595  -0.670   0.013  0.00  0.00    -0.255 NA
ATOM      8  C   UNL     1      -2.439   0.001   0.014  0.00  0.00    +0.071 A 
ATOM      9  C   UNL     1      -2.419   1.407   0.025  0.00  0.00    +0.030 A 
ATOM     10  C   UNL     1      -1.232   2.069   0.019  0.00  0.00    +0.025 A 
ATOM     11  C   UNL     1      -0.017   1.373   0.010  0.00  0.00    +0.036 A 
ATOM     12  N   UNL     1       1.188   2.077   0.002  0.00  0.00    -0.317 N 
ATOM     13  C   UNL     1       2.338   1.476  -0.425  0.00  0.00    +0.016 C 
ATOM     14  C   UNL     1       2.441   0.130  -0.461  0.00  0.00    +0.024 C 
ATOM     15  C   UNL     1       3.611  -0.493  -0.924  0.00  0.00    +0.162 C 
ATOM     16  O   UNL     1       3.673  -1.707  -0.942  0.00  0.00    -0.292 OA
ATOM     17  C   UNL     1       4.789   0.312  -1.399  0.00  0.00    +0.080 C 
ATOM     18  C   UNL     1       4.288   1.650  -1.953  0.00  0.00    +0.014 C 
ATOM     19  C   UNL     1       3.484   2.356  -0.859  0.00  0.00    +0.051 C 
ATOM     20  H   UNL     1       1.209   2.999   0.301  0.00  0.00    +0.152 HD
ENDROOT
BRANCH   1  24
ATOM     21  C   UNL     1       2.128  -2.179   3.934  0.00  0.00    +0.120 A 
ATOM     22  C   UNL     1       1.997  -3.076   2.884  0.00  0.00    +0.046 A 
ATOM     23  C   UNL     1       1.731  -2.612   1.610  0.00  0.00    +0.008 A 
ATOM     24  C   UNL     1       1.595  -1.255   1.382  0.00  0.00    -0.035 A 
ATOM     25  C   UNL     1       1.730  -0.359   2.427  0.00  0.00    +0.008 A 
ATOM     26  C   UNL     1       1.990  -0.819   3.703  0.00  0.00    +0.046 A 
BRANCH  21  28
ATOM     27  C   UNL     1       2.511  -1.654   6.221  0.00  0.00    +0.277 C 
ATOM     28  O   UNL     1       2.390  -2.634   5.188  0.00  0.00    -0.495 OA
ENDBRANCH  21  28
ENDBRANCH   1  24
TORSDOF 2
