REMARK  Name = ZINC20572886
REMARK  9 active torsions:
REMARK  status: ('A' for Active; 'I' for Inactive)
REMARK    1  A    between atoms: C_1  and  C_2
REMARK    2  A    between atoms: C_2  and  C_3
REMARK    3  A    between atoms: C_3  and  C_5
REMARK    4  A    between atoms: C_3  and  O_18
REMARK    5  A    between atoms: N_7  and  N_8
REMARK    6  A    between atoms: C_9  and  C_10
REMARK    7  A    between atoms: C_13  and  O_17
REMARK    8  A    between atoms: C_15  and  O_16
REMARK    9  A    between atoms: O_18  and  C_19
REMARK                            x       y       z     vdW  Elec       q    Type
REMARK                         _______ _______ _______ _____ _____    ______ ____
ROOT
ATOM      1  C   UNL     1       4.541   8.063   0.502  0.00  0.00    +0.273 C 
ATOM      2  O   UNL     1       5.464   7.379   0.891  0.00  0.00    -0.270 OA
ATOM      3  N   UNL     1       4.605   9.405   0.610  0.00  0.00    -0.204 N 
ATOM      4  H   UNL     1       3.767  10.025   0.258  0.00  0.00    +0.177 HD
ENDROOT
BRANCH   3   5
ATOM      5  N   UNL     1       5.737  10.010   1.170  0.00  0.00    -0.188 NA
ATOM      6  C   UNL     1       5.799  11.303   1.273  0.00  0.00    +0.142 C 
BRANCH   6   7
ATOM      7  C   UNL     1       6.990  11.939   1.862  0.00  0.00    +0.036 A 
ATOM      8  C   UNL     1       7.059  13.330   1.975  0.00  0.00    +0.016 A 
ATOM      9  C   UNL     1       8.174  13.921   2.527  0.00  0.00    +0.046 A 
ATOM     10  C   UNL     1       9.233  13.137   2.972  0.00  0.00    +0.120 A 
ATOM     11  C   UNL     1       9.174  11.756   2.865  0.00  0.00    +0.091 A 
ATOM     12  C   UNL     1       8.056  11.150   2.317  0.00  0.00    +0.129 A 
BRANCH  12  13
ATOM     13  O   UNL     1       7.995   9.797   2.217  0.00  0.00    -0.506 OA
ATOM     14  H   UNL     1       8.833   9.181   2.574  0.00  0.00    +0.292 HD
ENDBRANCH  12  13
BRANCH  10  15
ATOM     15  O   UNL     1      10.329  13.728   3.516  0.00  0.00    -0.507 OA
ATOM     16  H   UNL     1      11.168  13.110   3.869  0.00  0.00    +0.292 HD
ENDBRANCH  10  15
ENDBRANCH   6   7
ENDBRANCH   3   5
BRANCH   1  17
ATOM     17  C   UNL     1       3.322   7.412  -0.100  0.00  0.00    +0.260 C 
BRANCH  17  19
ATOM     18  C   UNL     1       1.906   7.252  -2.152  0.00  0.00    +0.008 C 
ATOM     19  C   UNL     1       3.208   7.810  -1.573  0.00  0.00    +0.051 C 
ENDBRANCH  17  19
BRANCH  17  20
ATOM     20  O   UNL     1       3.441   5.992   0.002  0.00  0.00    -0.478 OA
BRANCH  20  21
ATOM     21  C   UNL     1       2.293   5.289   0.189  0.00  0.00    +0.136 A 
ATOM     22  C   UNL     1       1.080   5.971   0.319  0.00  0.00    +0.047 A 
ATOM     23  C   UNL     1      -0.085   5.295   0.507  0.00  0.00    +0.012 A 
ATOM     24  C   UNL     1      -0.074   3.890   0.573  0.00  0.00    -0.017 A 
ATOM     25  C   UNL     1      -1.260   3.161   0.767  0.00  0.00    +0.008 A 
ATOM     26  C   UNL     1      -1.214   1.802   0.821  0.00  0.00    +0.001 A 
ATOM     27  C   UNL     1      -0.005   1.120   0.698  0.00  0.00    +0.001 A 
ATOM     28  C   UNL     1       1.163   1.792   0.509  0.00  0.00    +0.010 A 
ATOM     29  C   UNL     1       1.154   3.196   0.442  0.00  0.00    -0.000 A 
ATOM     30  C   UNL     1       2.341   3.924   0.248  0.00  0.00    +0.067 A 
ATOM     31 BR   UNL     1       3.993   3.021   0.071  0.00  0.00    -0.046 Br
ENDBRANCH  20  21
ENDBRANCH  17  20
ENDBRANCH   1  17
TORSDOF 8
