REMARK  Name = ZINC33875405
REMARK  9 active torsions:
REMARK  status: ('A' for Active; 'I' for Inactive)
REMARK    1  A    between atoms: C_1  and  C_2
REMARK    2  A    between atoms: C_2  and  C_3
REMARK    3  A    between atoms: C_2  and  C_4
REMARK    4  A    between atoms: C_2  and  C_5
REMARK    5  A    between atoms: C_12  and  N_24
REMARK    6  A    between atoms: C_13  and  C_14
REMARK    7  A    between atoms: N_16  and  C_17
REMARK    8  A    between atoms: C_25  and  C_27
REMARK    9  A    between atoms: C_27  and  C_28
REMARK                            x       y       z     vdW  Elec       q    Type
REMARK                         _______ _______ _______ _____ _____    ______ ____
ROOT
ATOM      1  C   UNL     1       0.760  -0.488  -1.249  0.00  0.00    -0.000 C 
ATOM      2  C   UNL     1       0.017   0.023  -2.486  0.00  0.00    +0.009 C 
ATOM      3  C   UNL     1       0.561  -0.663  -3.741  0.00  0.00    +0.037 C 
ATOM      4  C   UNL     1       2.075  -0.512  -3.761  0.00  0.00    -0.023 A 
ATOM      5  C   UNL     1       2.764  -0.195  -2.643  0.00  0.00    -0.004 A 
ATOM      6  S   UNL     1       4.454  -0.135  -3.159  0.00  0.00    -0.077 S 
ATOM      7  C   UNL     1       4.271  -0.513  -4.785  0.00  0.00    +0.084 A 
ATOM      8  C   UNL     1       2.905  -0.688  -4.940  0.00  0.00    +0.069 A 
ATOM      9  C   UNL     1       2.200   0.044  -1.276  0.00  0.00    +0.046 C 
ENDROOT
BRANCH   1  11
ATOM     10  C   UNL     1       0.036   1.538   0.021  0.00  0.00    +0.011 C 
ATOM     11  C   UNL     1       0.054   0.008   0.015  0.00  0.00    -0.035 C 
ATOM     12  C   UNL     1       0.802  -0.499   1.249  0.00  0.00    +0.011 C 
ATOM     13  C   UNL     1      -1.382  -0.519   0.036  0.00  0.00    +0.011 C 
ENDBRANCH   1  11
BRANCH   8  14
ATOM     14  C   UNL     1       2.322  -1.035  -6.239  0.00  0.00    +0.251 C 
ATOM     15  O   UNL     1       1.974  -0.156  -7.006  0.00  0.00    -0.270 OA
ATOM     16  N   UNL     1       2.171  -2.329  -6.586  0.00  0.00    -0.280 N 
ATOM     17  H   UNL     1       2.507  -3.029  -6.005  0.00  0.00    +0.155 HD
BRANCH  16  18
ATOM     18  C   UNL     1       1.529  -2.662  -7.783  0.00  0.00    +0.048 A 
ATOM     19  C   UNL     1       1.677  -1.852  -8.901  0.00  0.00    +0.024 A 
ATOM     20  C   UNL     1       1.043  -2.183 -10.082  0.00  0.00    +0.002 A 
ATOM     21  C   UNL     1       0.260  -3.321 -10.153  0.00  0.00    +0.001 A 
ATOM     22  C   UNL     1       0.109  -4.130  -9.042  0.00  0.00    +0.017 A 
ATOM     23  C   UNL     1       0.747  -3.808  -7.859  0.00  0.00    +0.039 A 
ATOM     24 BR   UNL     1       0.547  -4.920  -6.342  0.00  0.00    -0.048 Br
ENDBRANCH  16  18
ENDBRANCH   8  14
BRANCH   7  25
ATOM     25  N   UNL     1       5.260  -0.624  -5.751  0.00  0.00    -0.279 N 
ATOM     26  C   UNL     1       6.551  -0.419  -5.421  0.00  0.00    +0.222 C 
ATOM     27  O   UNL     1       6.847  -0.136  -4.280  0.00  0.00    -0.275 OA
ATOM     28  H   UNL     1       5.023  -0.850  -6.664  0.00  0.00    +0.155 HD
BRANCH  26  29
ATOM     29  C   UNL     1       7.625  -0.540  -6.471  0.00  0.00    +0.131 C 
BRANCH  29  30
ATOM     30  C   UNL     1       8.969  -0.264  -5.848  0.00  0.00    -0.039 A 
ATOM     31  C   UNL     1       9.463   1.027  -5.814  0.00  0.00    +0.004 A 
ATOM     32  C   UNL     1      10.696   1.280  -5.243  0.00  0.00    +0.000 A 
ATOM     33  C   UNL     1      11.435   0.243  -4.705  0.00  0.00    +0.000 A 
ATOM     34  C   UNL     1      10.941  -1.048  -4.738  0.00  0.00    +0.000 A 
ATOM     35  C   UNL     1       9.706  -1.300  -5.306  0.00  0.00    +0.004 A 
ENDBRANCH  29  30
ENDBRANCH  26  29
ENDBRANCH   7  25
TORSDOF 6
