REMARK  Name = ZINC19299255
REMARK  7 active torsions:
REMARK  status: ('A' for Active; 'I' for Inactive)
REMARK    1  A    between atoms: C_6  and  C_7
REMARK    2  A    between atoms: C_16  and  S_18
REMARK    3  A    between atoms: S_18  and  C_19
REMARK    4  A    between atoms: C_19  and  C_20
REMARK    5  A    between atoms: N_22  and  N_23
REMARK    6  A    between atoms: C_24  and  C_26
REMARK    7  A    between atoms: C_29  and  N_32
REMARK                            x       y       z     vdW  Elec       q    Type
REMARK                         _______ _______ _______ _____ _____    ______ ____
ROOT
ATOM      1  S   UNL     1       5.380  -6.943  -0.085  0.00  0.00    -0.078 S 
ENDROOT
BRANCH   1  11
ATOM      2  C   UNL     1       4.298 -12.805  -0.104  0.00  0.00    +0.004 A 
ATOM      3  C   UNL     1       2.975 -13.087  -0.092  0.00  0.00    +0.056 A 
ATOM      4  S   UNL     1       2.208 -11.478  -0.077  0.00  0.00    -0.076 S 
ATOM      5  C   UNL     1       3.670 -10.471  -0.086  0.00  0.00    +0.117 A 
ATOM      6  C   UNL     1       4.719 -11.407  -0.101  0.00  0.00    +0.080 A 
ATOM      7  C   UNL     1       6.040 -10.862  -0.111  0.00  0.00    +0.261 A 
ATOM      8  O   UNL     1       7.011 -11.599  -0.124  0.00  0.00    -0.267 OA
ATOM      9  N   UNL     1       6.198  -9.526  -0.106  0.00  0.00    -0.301 N 
ATOM     10  H   UNL     1       7.209  -9.092  -0.114  0.00  0.00    +0.171 HD
ATOM     11  C   UNL     1       5.123  -8.686  -0.091  0.00  0.00    +0.170 A 
ATOM     12  N   UNL     1       3.894  -9.162  -0.076  0.00  0.00    -0.216 NA
BRANCH   2  18
ATOM     13  C   UNL     1       6.334 -13.883  -1.057  0.00  0.00    +0.011 A 
ATOM     14  C   UNL     1       7.269 -14.897  -1.064  0.00  0.00    +0.039 A 
ATOM     15  C   UNL     1       7.178 -15.933  -0.148  0.00  0.00    +0.123 A 
ATOM     16  C   UNL     1       6.152 -15.952   0.783  0.00  0.00    +0.039 A 
ATOM     17  C   UNL     1       5.215 -14.939   0.801  0.00  0.00    +0.011 A 
ATOM     18  C   UNL     1       5.303 -13.895  -0.119  0.00  0.00    -0.016 A 
ATOM     19  F   UNL     1       8.093 -16.927  -0.162  0.00  0.00    -0.205 F 
ENDBRANCH   2  18
ENDBRANCH   1  11
BRANCH   1  20
ATOM     20  C   UNL     1       3.663  -6.372  -0.066  0.00  0.00    +0.174 C 
BRANCH  20  21
ATOM     21  C   UNL     1       3.635  -4.865  -0.058  0.00  0.00    +0.239 C 
ATOM     22  O   UNL     1       4.673  -4.239  -0.065  0.00  0.00    -0.273 OA
ATOM     23  N   UNL     1       2.455  -4.213  -0.043  0.00  0.00    -0.233 N 
ATOM     24  H   UNL     1       1.513  -4.781  -0.037  0.00  0.00    +0.173 HD
BRANCH  23  25
ATOM     25  N   UNL     1       2.429  -2.812  -0.036  0.00  0.00    -0.230 N 
ATOM     26  C   UNL     1       1.250  -2.160  -0.021  0.00  0.00    +0.260 C 
ATOM     27  O   UNL     1       0.208  -2.788  -0.014  0.00  0.00    -0.269 OA
ATOM     28  H   UNL     1       3.371  -2.245  -0.042  0.00  0.00    +0.173 HD
BRANCH  26  29
ATOM     29  C   UNL     1       1.222  -0.682  -0.013  0.00  0.00    +0.038 A 
ATOM     30  C   UNL     1       0.002  -0.004   0.002  0.00  0.00    +0.015 A 
ATOM     31  C   UNL     1      -0.017   1.375   0.010  0.00  0.00    +0.033 A 
ATOM     32  C   UNL     1       1.170   2.086   0.002  0.00  0.00    +0.126 A 
ATOM     33  C   UNL     1       2.383   1.420  -0.013  0.00  0.00    +0.033 A 
ATOM     34  C   UNL     1       2.416   0.041  -0.021  0.00  0.00    +0.015 A 
BRANCH  32  35
ATOM     35  N   UNL     1       1.143   3.566   0.010  0.00  0.00    +0.056 N 
ATOM     36  O   UNL     1       0.077   4.155   0.024  0.00  0.00    -0.126 OA
ATOM     37  O   UNL     1       2.186   4.195   0.004  0.00  0.00    -0.126 OA
ENDBRANCH  32  35
ENDBRANCH  26  29
ENDBRANCH  23  25
ENDBRANCH  20  21
ENDBRANCH   1  20
TORSDOF 7
