REMARK  Name = ZINC04503769
REMARK  4 active torsions:
REMARK  status: ('A' for Active; 'I' for Inactive)
REMARK    1  A    between atoms: C_1  and  C_2
REMARK    2  A    between atoms: C_9  and  S_13
REMARK    3  A    between atoms: S_13  and  C_14
REMARK    4  A    between atoms: C_14  and  C_15
REMARK                            x       y       z     vdW  Elec       q    Type
REMARK                         _______ _______ _______ _____ _____    ______ ____
ROOT
ATOM      1  S   UNL     1       0.116  -5.047   3.742  0.00  0.00    -0.076 S 
ENDROOT
BRANCH   1  10
ATOM      2  C   UNL     1       0.111   1.497  -0.005  0.00  0.00    +0.044 C 
ATOM      3  C   UNL     1       0.127  -0.010  -0.011  0.00  0.00    -0.046 A 
ATOM      4  C   UNL     1       0.157  -0.711  -1.225  0.00  0.00    +0.021 A 
ATOM      5  C   UNL     1       0.172  -2.063  -1.231  0.00  0.00    +0.098 A 
ATOM      6  N   UNL     1       0.158  -2.763  -0.063  0.00  0.00    -0.252 N 
ATOM      7  C   UNL     1       0.129  -2.105   1.137  0.00  0.00    +0.144 A 
ATOM      8  C   UNL     1       0.118  -0.701   1.165  0.00  0.00    +0.050 A 
ATOM      9  N   UNL     1       0.117  -2.804   2.272  0.00  0.00    -0.204 NA
ATOM     10  C   UNL     1       0.132  -4.134   2.236  0.00  0.00    +0.195 A 
ATOM     11  N   UNL     1       0.160  -4.782   1.073  0.00  0.00    -0.167 NA
ATOM     12  C   UNL     1       0.173  -4.111  -0.077  0.00  0.00    +0.356 A 
ATOM     13  O   UNL     1       0.198  -4.713  -1.137  0.00  0.00    -0.244 OA
ENDBRANCH   1  10
BRANCH   1  14
ATOM     14  C   UNL     1       0.144  -6.780   3.205  0.00  0.00    +0.173 C 
BRANCH  14  15
ATOM     15  C   UNL     1       0.133  -7.680   4.413  0.00  0.00    +0.230 C 
ATOM     16  O   UNL     1       0.200  -7.203   5.526  0.00  0.00    -0.274 OA
ATOM     17  N   UNL     1       0.049  -9.016   4.257  0.00  0.00    -0.270 N 
ATOM     18  C   UNL     1       0.055  -9.613   2.915  0.00  0.00    +0.114 C 
ATOM     19  C   UNL     1      -1.044 -10.683   2.873  0.00  0.00    +0.024 C 
ATOM     20  C   UNL     1      -0.701 -11.784   3.877  0.00  0.00    +0.038 C 
ATOM     21  C   UNL     1      -0.404 -11.191   5.229  0.00  0.00    -0.026 A 
ATOM     22  C   UNL     1      -0.039  -9.860   5.373  0.00  0.00    +0.039 A 
ATOM     23  C   UNL     1       0.239  -9.346   6.634  0.00  0.00    +0.024 A 
ATOM     24  C   UNL     1       0.155 -10.160   7.747  0.00  0.00    +0.002 A 
ATOM     25  C   UNL     1      -0.206 -11.487   7.604  0.00  0.00    +0.000 A 
ATOM     26  C   UNL     1      -0.493 -11.999   6.349  0.00  0.00    +0.005 A 
ENDBRANCH  14  15
ENDBRANCH   1  14
TORSDOF 3
