REMARK  Name = ZINC65298098
REMARK  6 active torsions:
REMARK  status: ('A' for Active; 'I' for Inactive)
REMARK    1  A    between atoms: C_1  and  N_2
REMARK    2  A    between atoms: C_9  and  C_22
REMARK    3  A    between atoms: C_12  and  C_14
REMARK    4  A    between atoms: C_17  and  O_20
REMARK    5  A    between atoms: O_20  and  C_21
REMARK    6  A    between atoms: C_27  and  O_28
REMARK                            x       y       z     vdW  Elec       q    Type
REMARK                         _______ _______ _______ _____ _____    ______ ____
ROOT
ATOM      1  C   UNL     1      -0.018   1.465   0.010  0.00  0.00    -0.096 C 
ATOM      2  N   UNL     1       0.002  -0.004   0.002  0.00  0.00    +0.378 N 
ATOM      3  C   UNL     1      -1.375  -0.510   0.003  0.00  0.00    -0.076 C 
ATOM      4  C   UNL     1      -1.362  -2.038  -0.085  0.00  0.00    +0.027 C 
ATOM      5  C   UNL     1      -0.609  -2.606   1.123  0.00  0.00    +0.109 C 
ATOM      6  C   UNL     1       0.805  -2.015   1.149  0.00  0.00    +0.027 C 
ATOM      7  C   UNL     1       0.712  -0.489   1.192  0.00  0.00    -0.076 C 
ATOM      8  N   UNL     1      -0.521  -4.066   0.996  0.00  0.00    -0.286 NA
ATOM      9  C   UNL     1       0.027  -4.652   2.232  0.00  0.00    +0.095 C 
ATOM     10  C   UNL     1      -1.000  -4.456   3.351  0.00  0.00    +0.079 C 
ATOM     11  C   UNL     1      -1.489  -3.034   3.338  0.00  0.00    +0.047 C 
ATOM     12  N   UNL     1      -1.311  -2.241   2.349  0.00  0.00    -0.266 NA
ATOM     13  H   UNL     1      -1.422  -4.465   0.776  0.00  0.00    +0.125 HD
ATOM     14  H   UNL     1       0.477  -0.328  -0.827  0.00  0.00    -0.082 HD
ENDROOT
BRANCH   9  15
ATOM     15  C   UNL     1       0.284  -6.122   2.027  0.00  0.00    +0.012 A 
ATOM     16  C   UNL     1      -0.350  -6.799   1.002  0.00  0.00    +0.024 A 
ATOM     17  C   UNL     1      -0.115  -8.149   0.814  0.00  0.00    +0.018 A 
ATOM     18  C   UNL     1       0.755  -8.825   1.651  0.00  0.00    +0.019 A 
ATOM     19  C   UNL     1       1.391  -8.152   2.677  0.00  0.00    +0.047 A 
ATOM     20  C   UNL     1       1.160  -6.797   2.864  0.00  0.00    +0.122 A 
ATOM     21 BR   UNL     1      -0.983  -9.072  -0.589  0.00  0.00    -0.050 Br
BRANCH  20  22
ATOM     22  O   UNL     1       1.788  -6.132   3.869  0.00  0.00    -0.506 OA
ATOM     23  H   UNL     1       1.302  -6.133   4.705  0.00  0.00    +0.292 HD
ENDBRANCH  20  22
ENDBRANCH   9  15
BRANCH  11  24
ATOM     24  C   UNL     1      -2.209  -2.529   4.522  0.00  0.00    -0.004 A 
ATOM     25  C   UNL     1      -2.417  -3.363   5.624  0.00  0.00    +0.013 A 
ATOM     26  C   UNL     1      -3.090  -2.887   6.728  0.00  0.00    +0.046 A 
ATOM     27  C   UNL     1      -3.561  -1.580   6.747  0.00  0.00    +0.120 A 
ATOM     28  C   UNL     1      -3.355  -0.747   5.654  0.00  0.00    +0.046 A 
ATOM     29  C   UNL     1      -2.678  -1.213   4.548  0.00  0.00    +0.013 A 
BRANCH  27  30
ATOM     30  O   UNL     1      -4.223  -1.115   7.837  0.00  0.00    -0.495 OA
ATOM     31  C   UNL     1      -4.679   0.238   7.790  0.00  0.00    +0.277 C 
ENDBRANCH  27  30
ENDBRANCH  11  24
TORSDOF 4
