REMARK  Name = ZINC15085789
REMARK  6 active torsions:
REMARK  status: ('A' for Active; 'I' for Inactive)
REMARK    1  A    between atoms: C_1  and  C_2
REMARK    2  A    between atoms: C_5  and  N_9
REMARK    3  A    between atoms: C_10  and  C_12
REMARK    4  A    between atoms: C_12  and  N_13
REMARK    5  A    between atoms: N_13  and  C_14
REMARK    6  A    between atoms: C_18  and  N_20
REMARK                            x       y       z     vdW  Elec       q    Type
REMARK                         _______ _______ _______ _____ _____    ______ ____
ROOT
ATOM      1  N   UNL     1       0.057  -4.171  -0.023  0.00  0.00    -0.283 N 
ATOM      2  C   UNL     1      -0.042  -4.839  -1.189  0.00  0.00    +0.234 C 
ATOM      3  O   UNL     1      -0.055  -4.230  -2.238  0.00  0.00    -0.274 OA
ATOM      4  H   UNL     1       0.149  -4.660   0.810  0.00  0.00    +0.155 HD
ENDROOT
BRANCH   1   9
ATOM      5  C   UNL     1      -0.063   1.502   0.016  0.00  0.00    +0.044 C 
ATOM      6  C   UNL     1      -0.031  -0.005   0.006  0.00  0.00    -0.049 A 
ATOM      7  C   UNL     1      -0.622  -0.701  -1.033  0.00  0.00    +0.005 A 
ATOM      8  C   UNL     1      -0.594  -2.081  -1.045  0.00  0.00    +0.024 A 
ATOM      9  C   UNL     1       0.028  -2.771  -0.013  0.00  0.00    +0.048 A 
ATOM     10  C   UNL     1       0.621  -2.070   1.029  0.00  0.00    +0.039 A 
ATOM     11  C   UNL     1       0.595  -0.688   1.032  0.00  0.00    +0.020 A 
ATOM     12 BR   UNL     1       1.470  -3.004   2.437  0.00  0.00    -0.048 Br
ENDBRANCH   1   9
BRANCH   2  13
ATOM     13  C   UNL     1      -0.136  -6.343  -1.190  0.00  0.00    +0.198 C 
BRANCH  13  14
ATOM     14  N   UNL     1      -0.234  -6.825  -2.570  0.00  0.00    -0.335 N 
ATOM     15  H   UNL     1      -0.231  -6.194  -3.306  0.00  0.00    +0.147 HD
BRANCH  14  16
ATOM     16  C   UNL     1      -0.332  -8.195  -2.825  0.00  0.00    +0.030 A 
ATOM     17  C   UNL     1      -0.343  -9.101  -1.772  0.00  0.00    +0.023 A 
ATOM     18  C   UNL     1      -0.441 -10.454  -2.029  0.00  0.00    +0.004 A 
ATOM     19  C   UNL     1      -0.528 -10.908  -3.332  0.00  0.00    +0.033 A 
ATOM     20  C   UNL     1      -0.517 -10.009  -4.383  0.00  0.00    +0.128 A 
ATOM     21  C   UNL     1      -0.425  -8.654  -4.133  0.00  0.00    +0.055 A 
BRANCH  20  22
ATOM     22  N   UNL     1      -0.609 -10.500  -5.776  0.00  0.00    +0.056 N 
ATOM     23  O   UNL     1      -0.694 -11.686  -5.995  0.00  0.00    -0.126 OA
ATOM     24  O   UNL     1      -0.600  -9.714  -6.695  0.00  0.00    -0.126 OA
ENDBRANCH  20  22
ENDBRANCH  14  16
ENDBRANCH  13  14
ENDBRANCH   2  13
TORSDOF 5
