REMARK  Name = ZINC18186586
REMARK  11 active torsions:
REMARK  status: ('A' for Active; 'I' for Inactive)
REMARK    1  A    between atoms: C_1  and  C_2
REMARK    2  A    between atoms: C_2  and  C_3
REMARK    3  A    between atoms: C_3  and  C_4
REMARK    4  A    between atoms: C_4  and  N_5
REMARK    5  A    between atoms: C_6  and  N_35
REMARK    6  A    between atoms: C_7  and  N_14
REMARK    7  A    between atoms: N_14  and  C_15
REMARK    8  A    between atoms: C_15  and  C_16
REMARK    9  A    between atoms: C_22  and  C_24
REMARK   10  A    between atoms: C_24  and  S_25
REMARK   11  A    between atoms: S_25  and  C_26
REMARK                            x       y       z     vdW  Elec       q    Type
REMARK                         _______ _______ _______ _____ _____    ______ ____
ROOT
ATOM      1  N   UNL     1       1.140   3.418  -0.066  0.00  0.00    -0.259 N 
ATOM      2  C   UNL     1       2.279   4.071  -0.380  0.00  0.00    +0.231 C 
ATOM      3  O   UNL     1       3.351   3.518  -0.250  0.00  0.00    -0.274 OA
ENDROOT
BRANCH   1   6
ATOM      4  N   UNL     1       0.691  -0.229  -0.111  0.00  0.00    -0.280 N 
ATOM      5  C   UNL     1       0.630   1.089  -0.502  0.00  0.00    +0.127 A 
ATOM      6  C   UNL     1       1.187   2.058   0.307  0.00  0.00    +0.140 A 
ATOM      7  C   UNL     1       1.801   1.667   1.512  0.00  0.00    +0.277 A 
ATOM      8  O   UNL     1       2.296   2.503   2.248  0.00  0.00    -0.266 OA
ATOM      9  N   UNL     1       1.833   0.363   1.848  0.00  0.00    -0.273 N 
ATOM     10  H   UNL     1       2.270   0.084   2.704  0.00  0.00    +0.173 HD
ATOM     11  C   UNL     1       1.286  -0.568   1.047  0.00  0.00    +0.331 A 
ATOM     12  O   UNL     1       1.329  -1.738   1.375  0.00  0.00    -0.246 OA
BRANCH   5  13
ATOM     13  N   UNL     1       0.023   1.436  -1.685  0.00  0.00    -0.343 N 
ATOM     14  H   UNL     1      -0.315   0.746  -2.277  0.00  0.00    +0.144 HD
ATOM     15  H   UNL     1      -0.067   2.370  -1.928  0.00  0.00    +0.144 HD
ENDBRANCH   5  13
BRANCH   4  16
ATOM     16  C   UNL     1       0.105  -1.268  -0.961  0.00  0.00    +0.128 C 
BRANCH  16  17
ATOM     17  C   UNL     1      -1.358  -1.483  -0.568  0.00  0.00    +0.021 C 
BRANCH  17  19
ATOM     18  C   UNL     1      -3.433  -2.784  -1.062  0.00  0.00    +0.004 C 
ATOM     19  C   UNL     1      -1.970  -2.569  -1.455  0.00  0.00    -0.002 C 
ENDBRANCH  17  19
ENDBRANCH  16  17
ENDBRANCH   4  16
ENDBRANCH   1   6
BRANCH   1  20
ATOM     20  C   UNL     1      -0.144   4.121  -0.113  0.00  0.00    +0.149 C 
BRANCH  20  21
ATOM     21  C   UNL     1      -0.494   4.620   1.266  0.00  0.00    -0.030 A 
ATOM     22  C   UNL     1      -1.156   3.791   2.153  0.00  0.00    +0.005 A 
ATOM     23  C   UNL     1      -1.473   4.247   3.419  0.00  0.00    +0.000 A 
ATOM     24  C   UNL     1      -1.137   5.534   3.795  0.00  0.00    +0.000 A 
ATOM     25  C   UNL     1      -0.480   6.364   2.906  0.00  0.00    +0.000 A 
ATOM     26  C   UNL     1      -0.159   5.907   1.642  0.00  0.00    +0.005 A 
ENDBRANCH  20  21
ENDBRANCH   1  20
BRANCH   2  27
ATOM     27  C   UNL     1       2.218   5.487  -0.892  0.00  0.00    +0.172 C 
BRANCH  27  28
ATOM     28  S   UNL     1       3.873   6.016  -1.398  0.00  0.00    -0.089 S 
BRANCH  28  29
ATOM     29  C   UNL     1       3.519   7.656  -1.938  0.00  0.00    +0.136 A 
ATOM     30  N   UNL     1       4.340   8.559  -2.426  0.00  0.00    -0.233 NA
ATOM     31  C   UNL     1       3.924   9.788  -2.803  0.00  0.00    +0.079 A 
ATOM     32  C   UNL     1       4.697  10.844  -3.338  0.00  0.00    +0.029 A 
ATOM     33  C   UNL     1       4.114  12.039  -3.672  0.00  0.00    +0.002 A 
ATOM     34  C   UNL     1       2.755  12.256  -3.498  0.00  0.00    +0.001 A 
ATOM     35  C   UNL     1       1.969  11.245  -2.975  0.00  0.00    +0.017 A 
ATOM     36  C   UNL     1       2.544  10.045  -2.639  0.00  0.00    +0.040 A 
ATOM     37  S   UNL     1       1.950   8.511  -1.968  0.00  0.00    -0.061 S 
ENDBRANCH  28  29
ENDBRANCH  27  28
ENDBRANCH   2  27
TORSDOF 10
