REMARK  Name = ZINC65598255
REMARK  11 active torsions:
REMARK  status: ('A' for Active; 'I' for Inactive)
REMARK    1  A    between atoms: C_1  and  C_2
REMARK    2  A    between atoms: C_2  and  O_3
REMARK    3  A    between atoms: O_3  and  C_4
REMARK    4  A    between atoms: C_4  and  C_5
REMARK    5  A    between atoms: C_5  and  C_6
REMARK    6  A    between atoms: C_6  and  N_7
REMARK    7  A    between atoms: C_8  and  C_10
REMARK    8  A    between atoms: C_10  and  C_11
REMARK    9  A    between atoms: C_10  and  N_12
REMARK   10  A    between atoms: C_15  and  N_18
REMARK   11  A    between atoms: N_21  and  C_22
REMARK                            x       y       z     vdW  Elec       q    Type
REMARK                         _______ _______ _______ _____ _____    ______ ____
ROOT
ATOM      1  N   UNL     1       3.249  -7.339   5.533  0.00  0.00    +0.387 N 
ATOM      2  C   UNL     1       3.878  -7.705   6.808  0.00  0.00    -0.076 C 
ATOM      3  C   UNL     1       3.928  -9.229   6.937  0.00  0.00    +0.004 C 
ATOM      4  C   UNL     1       2.503  -9.787   6.890  0.00  0.00    +0.071 C 
ATOM      5  C   UNL     1       1.831  -9.336   5.590  0.00  0.00    +0.004 C 
ATOM      6  C   UNL     1       1.859  -7.809   5.511  0.00  0.00    -0.076 C 
ATOM      7  H   UNL     1       3.759  -7.765   4.774  0.00  0.00    -0.081 HD
ENDROOT
BRANCH   4   8
ATOM      8  N   UNL     1       2.548 -11.251   6.937  0.00  0.00    -0.297 N 
ATOM      9  C   UNL     1       1.490 -11.943   7.405  0.00  0.00    +0.300 C 
ATOM     10  O   UNL     1       0.499 -11.353   7.788  0.00  0.00    -0.253 OA
ATOM     11  N   UNL     1       1.532 -13.289   7.447  0.00  0.00    -0.297 N 
ATOM     12  H   UNL     1       3.339 -11.722   6.631  0.00  0.00    +0.151 HD
ATOM     13  H   UNL     1       2.323 -13.760   7.141  0.00  0.00    +0.151 HD
BRANCH  11  14
ATOM     14  C   UNL     1       0.382 -14.042   7.956  0.00  0.00    +0.074 C 
ATOM     15  C   UNL     1       0.469 -14.137   9.481  0.00  0.00    +0.022 C 
ATOM     16  C   UNL     1      -0.731 -14.923  10.012  0.00  0.00    +0.002 C 
ATOM     17  C   UNL     1      -0.726 -16.330   9.412  0.00  0.00    +0.000 C 
ATOM     18  C   UNL     1      -0.813 -16.235   7.887  0.00  0.00    +0.002 C 
ATOM     19  C   UNL     1       0.388 -15.449   7.356  0.00  0.00    +0.022 C 
ENDBRANCH  11  14
ENDBRANCH   4   8
BRANCH   1  20
ATOM     20  C   UNL     1       3.274  -5.878   5.379  0.00  0.00    +0.016 C 
ATOM     21  C   UNL     1       4.723  -5.388   5.392  0.00  0.00    -0.004 C 
BRANCH  20  23
ATOM     22  N   UNL     1       2.017  -4.306   3.941  0.00  0.00    -0.317 N 
ATOM     23  C   UNL     1       2.628  -5.500   4.071  0.00  0.00    +0.199 C 
ATOM     24  O   UNL     1       2.658  -6.271   3.135  0.00  0.00    -0.278 OA
ATOM     25  H   UNL     1       1.994  -3.690   4.689  0.00  0.00    +0.149 HD
BRANCH  22  26
ATOM     26  C   UNL     1       1.390  -3.939   2.669  0.00  0.00    +0.106 C 
BRANCH  26  27
ATOM     27  C   UNL     1       0.773  -2.544   2.789  0.00  0.00    +0.047 C 
BRANCH  27  28
ATOM     28  C   UNL     1       0.118  -2.160   1.461  0.00  0.00    +0.161 C 
BRANCH  28  29
ATOM     29  O   UNL     1      -0.458  -0.857   1.573  0.00  0.00    -0.380 OA
BRANCH  29  31
ATOM     30  C   UNL     1      -1.676   0.997   0.614  0.00  0.00    +0.034 C 
ATOM     31  C   UNL     1      -1.100  -0.401   0.380  0.00  0.00    +0.156 C 
ENDBRANCH  29  31
ENDBRANCH  28  29
ENDBRANCH  27  28
ENDBRANCH  26  27
ENDBRANCH  22  26
ENDBRANCH  20  23
ENDBRANCH   1  20
TORSDOF 9
