REMARK  Name = ZINC04288923
REMARK  9 active torsions:
REMARK  status: ('A' for Active; 'I' for Inactive)
REMARK    1  A    between atoms: C_1  and  C_2
REMARK    2  A    between atoms: C_5  and  C_9
REMARK    3  A    between atoms: C_7  and  C_8
REMARK    4  A    between atoms: C_9  and  C_11
REMARK    5  A    between atoms: C_9  and  N_12
REMARK    6  A    between atoms: C_13  and  C_15
REMARK    7  A    between atoms: C_15  and  N_16
REMARK    8  A    between atoms: C_19  and  C_23
REMARK    9  A    between atoms: C_19  and  C_24
REMARK                            x       y       z     vdW  Elec       q    Type
REMARK                         _______ _______ _______ _____ _____    ______ ____
ROOT
ATOM      1  C   UNL     1       0.002  -0.004   0.002  0.00  0.00    +0.213 C 
ENDROOT
BRANCH   1   2
ATOM      2  N   UNL     1      -0.018   1.461   0.010  0.00  0.00    -0.215 N 
ATOM      3  C   UNL     1       1.087   2.233   0.004  0.00  0.00    +0.251 C 
ATOM      4  O   UNL     1       2.240   1.861  -0.008  0.00  0.00    -0.272 OA
ATOM      5  C   UNL     1       0.587   3.664   0.015  0.00  0.00    +0.135 C 
ATOM      6  N   UNL     1      -0.879   3.518   0.028  0.00  0.00    -0.281 N 
ATOM      7  C   UNL     1      -1.135   2.197   0.019  0.00  0.00    +0.310 C 
ATOM      8  O   UNL     1      -2.255   1.726   0.022  0.00  0.00    -0.252 OA
ATOM      9  C   UNL     1       1.069   4.393   1.271  0.00  0.00    +0.047 C 
ATOM     10  H   UNL     1      -1.533   4.235   0.038  0.00  0.00    +0.152 HD
BRANCH   5  11
ATOM     11  C   UNL     1       1.036   4.393  -1.225  0.00  0.00    -0.016 A 
ATOM     12  C   UNL     1       2.226   4.046  -1.837  0.00  0.00    +0.006 A 
ATOM     13  C   UNL     1       2.636   4.711  -2.978  0.00  0.00    +0.000 A 
ATOM     14  C   UNL     1       1.861   5.730  -3.500  0.00  0.00    +0.000 A 
ATOM     15  C   UNL     1       0.674   6.081  -2.884  0.00  0.00    +0.000 A 
ATOM     16  C   UNL     1       0.261   5.412  -1.747  0.00  0.00    +0.006 A 
ENDBRANCH   5  11
ENDBRANCH   1   2
BRANCH   1  18
ATOM     17  N   UNL     1       0.043  -1.840   1.659  0.00  0.00    -0.307 N 
ATOM     18  C   UNL     1       0.022  -0.514   1.420  0.00  0.00    +0.231 C 
ATOM     19  O   UNL     1       0.021   0.269   2.346  0.00  0.00    -0.274 OA
ATOM     20  H   UNL     1       0.044  -2.466   0.918  0.00  0.00    +0.149 HD
BRANCH  17  21
ATOM     21  C   UNL     1       0.063  -2.336   3.037  0.00  0.00    +0.100 C 
ATOM     22  C   UNL     1       1.505  -2.371   3.546  0.00  0.00    +0.033 C 
BRANCH  21  27
ATOM     23  C   UNL     1      -2.165  -7.665   3.201  0.00  0.00    +0.044 C 
ATOM     24  C   UNL     1      -1.584  -6.276   3.158  0.00  0.00    -0.048 A 
ATOM     25  C   UNL     1      -0.756  -5.904   2.115  0.00  0.00    +0.004 A 
ATOM     26  C   UNL     1      -0.223  -4.630   2.076  0.00  0.00    +0.006 A 
ATOM     27  C   UNL     1      -0.519  -3.726   3.080  0.00  0.00    -0.027 A 
ATOM     28  C   UNL     1      -1.343  -4.098   4.125  0.00  0.00    +0.009 A 
ATOM     29  C   UNL     1      -1.879  -5.372   4.162  0.00  0.00    -0.047 A 
ATOM     30  C   UNL     1      -2.782  -5.777   5.299  0.00  0.00    +0.044 C 
ENDBRANCH  21  27
ENDBRANCH  17  21
ENDBRANCH   1  18
TORSDOF 5
