REMARK  Name = ZINC03019797
REMARK  10 active torsions:
REMARK  status: ('A' for Active; 'I' for Inactive)
REMARK    1  A    between atoms: C_1  and  C_2
REMARK    2  A    between atoms: C_4  and  C_32
REMARK    3  A    between atoms: C_13  and  S_16
REMARK    4  A    between atoms: S_16  and  C_17
REMARK    5  A    between atoms: C_17  and  C_18
REMARK    6  A    between atoms: N_20  and  C_21
REMARK    7  A    between atoms: C_24  and  O_29
REMARK    8  A    between atoms: C_26  and  O_27
REMARK    9  A    between atoms: O_27  and  C_28
REMARK   10  A    between atoms: O_29  and  C_30
REMARK                            x       y       z     vdW  Elec       q    Type
REMARK                         _______ _______ _______ _____ _____    ______ ____
ROOT
ATOM      1  S   UNL     1      -3.018   9.360   4.487  0.00  0.00    -0.075 S 
ENDROOT
BRANCH   1  14
ATOM      2  C   UNL     1      -5.870  17.846   7.714  0.00  0.00    +0.044 C 
ATOM      3  C   UNL     1      -5.370  16.554   7.119  0.00  0.00    -0.048 A 
ATOM      4  C   UNL     1      -5.659  15.351   7.747  0.00  0.00    +0.007 A 
ATOM      5  C   UNL     1      -5.208  14.164   7.214  0.00  0.00    -0.039 A 
ATOM      6  C   UNL     1      -4.457  14.173   6.039  0.00  0.00    +0.030 A 
ATOM      7  C   UNL     1      -4.164  15.390   5.402  0.00  0.00    +0.051 A 
ATOM      8  C   UNL     1      -4.630  16.578   5.958  0.00  0.00    +0.029 A 
ATOM      9  N   UNL     1      -3.416  15.123   4.270  0.00  0.00    -0.336 N 
ATOM     10  H   UNL     1      -3.085  15.794   3.654  0.00  0.00    +0.167 HD
ATOM     11  C   UNL     1      -3.208  13.764   4.143  0.00  0.00    +0.180 A 
ATOM     12  C   UNL     1      -3.838  13.117   5.224  0.00  0.00    +0.120 A 
ATOM     13  N   UNL     1      -3.772  11.793   5.313  0.00  0.00    -0.217 NA
ATOM     14  C   UNL     1      -3.114  11.117   4.381  0.00  0.00    +0.210 A 
ATOM     15  N   UNL     1      -2.522  11.745   3.372  0.00  0.00    -0.120 NA
ATOM     16  N   UNL     1      -2.567  13.025   3.247  0.00  0.00    -0.127 NA
ATOM     17  C   UNL     1      -5.524  12.860   7.898  0.00  0.00    +0.044 C 
ENDBRANCH   1  14
BRANCH   1  18
ATOM     18  C   UNL     1      -2.039   9.009   3.005  0.00  0.00    +0.173 C 
BRANCH  18  19
ATOM     19  C   UNL     1      -1.825   7.522   2.886  0.00  0.00    +0.228 C 
ATOM     20  O   UNL     1      -2.288   6.774   3.720  0.00  0.00    -0.275 OA
ATOM     21  N   UNL     1      -1.118   7.024   1.852  0.00  0.00    -0.282 N 
ATOM     22  H   UNL     1      -0.680   7.625   1.229  0.00  0.00    +0.155 HD
BRANCH  21  23
ATOM     23  C   UNL     1      -1.016   5.636   1.676  0.00  0.00    +0.077 A 
ATOM     24  C   UNL     1      -1.995   4.797   2.189  0.00  0.00    +0.050 A 
ATOM     25  C   UNL     1      -1.897   3.430   2.011  0.00  0.00    +0.084 A 
ATOM     26  C   UNL     1      -0.815   2.893   1.327  0.00  0.00    +0.142 A 
ATOM     27  C   UNL     1       0.165   3.728   0.812  0.00  0.00    +0.094 A 
ATOM     28  C   UNL     1       0.067   5.099   0.985  0.00  0.00    +0.145 A 
ATOM     29 CL   UNL     1      -3.126   2.382   2.648  0.00  0.00    -0.080 Cl
BRANCH  28  30
ATOM     30  O   UNL     1       1.027   5.919   0.480  0.00  0.00    -0.493 OA
ATOM     31  C   UNL     1       2.109   5.299  -0.217  0.00  0.00    +0.277 C 
ENDBRANCH  28  30
BRANCH  26  32
ATOM     32  O   UNL     1      -0.718   1.547   1.157  0.00  0.00    -0.494 OA
ATOM     33  C   UNL     1       0.418   1.064   0.439  0.00  0.00    +0.277 C 
ENDBRANCH  26  32
ENDBRANCH  21  23
ENDBRANCH  18  19
ENDBRANCH   1  18
TORSDOF 6
