REMARK  Name = ZINC07326001
REMARK  8 active torsions:
REMARK  status: ('A' for Active; 'I' for Inactive)
REMARK    1  A    between atoms: C_4  and  O_27
REMARK    2  A    between atoms: C_5  and  C_7
REMARK    3  A    between atoms: C_7  and  N_8
REMARK    4  A    between atoms: N_8  and  C_9
REMARK    5  A    between atoms: N_8  and  C_16
REMARK    6  A    between atoms: C_9  and  C_10
REMARK    7  A    between atoms: C_16  and  N_18
REMARK    8  A    between atoms: N_18  and  C_19
REMARK                            x       y       z     vdW  Elec       q    Type
REMARK                         _______ _______ _______ _____ _____    ______ ____
ROOT
ATOM      1  N   UNL     1       1.391  -2.877   1.307  0.00  0.00    -0.306 N 
ENDROOT
BRANCH   1   2
ATOM      2  C   UNL     1       2.608  -2.984   1.876  0.00  0.00    +0.137 C 
ATOM      3  S   UNL     1       4.017  -2.892   0.908  0.00  0.00    -0.018 S 
BRANCH   2   4
ATOM      4  N   UNL     1       2.716  -3.165   3.207  0.00  0.00    -0.297 N 
ATOM      5  H   UNL     1       1.919  -3.280   3.747  0.00  0.00    +0.154 HD
BRANCH   4   6
ATOM      6  C   UNL     1       3.978  -3.185   3.810  0.00  0.00    +0.035 A 
ATOM      7  C   UNL     1       4.204  -2.465   4.976  0.00  0.00    +0.043 A 
ATOM      8  C   UNL     1       5.452  -2.487   5.570  0.00  0.00    +0.044 A 
ATOM      9  C   UNL     1       6.476  -3.225   5.004  0.00  0.00    +0.040 A 
ATOM     10  C   UNL     1       6.254  -3.943   3.841  0.00  0.00    +0.044 A 
ATOM     11  C   UNL     1       5.006  -3.929   3.247  0.00  0.00    +0.043 A 
ATOM     12 CL   UNL     1       7.542  -4.867   3.134  0.00  0.00    -0.083 Cl
ATOM     13 CL   UNL     1       5.734  -1.587   7.028  0.00  0.00    -0.083 Cl
ENDBRANCH   4   6
ENDBRANCH   2   4
ENDBRANCH   1   2
BRANCH   1  14
ATOM     14  C   UNL     1       1.275  -2.570  -0.121  0.00  0.00    +0.145 C 
BRANCH  14  19
ATOM     15  C   UNL     1       2.527   0.907  -0.893  0.00  0.00    +0.001 A 
ATOM     16  C   UNL     1       1.391   1.666  -0.683  0.00  0.00    +0.004 A 
ATOM     17  C   UNL     1       0.215   1.057  -0.290  0.00  0.00    +0.046 A 
ATOM     18  C   UNL     1       0.174  -0.318  -0.107  0.00  0.00    +0.122 A 
ATOM     19  C   UNL     1       1.315  -1.077  -0.319  0.00  0.00    +0.011 A 
ATOM     20  C   UNL     1       2.489  -0.463  -0.712  0.00  0.00    +0.009 A 
BRANCH  18  21
ATOM     21  O   UNL     1      -0.981  -0.919   0.280  0.00  0.00    -0.506 OA
ATOM     22  H   UNL     1      -1.579  -1.130  -0.450  0.00  0.00    +0.292 HD
ENDBRANCH  18  21
ENDBRANCH  14  19
ENDBRANCH   1  14
BRANCH   1  23
ATOM     23  C   UNL     1       0.185  -3.067   2.116  0.00  0.00    +0.138 C 
BRANCH  23  24
ATOM     24  C   UNL     1      -0.217  -4.543   2.094  0.00  0.00    +0.136 C 
ATOM     25  C   UNL     1      -1.554  -4.733   2.843  0.00  0.00    +0.035 C 
ATOM     26  C   UNL     1      -1.322  -6.071   3.596  0.00  0.00    +0.031 C 
ATOM     27  C   UNL     1       0.192  -5.972   3.913  0.00  0.00    +0.160 C 
ATOM     28  O   UNL     1       0.774  -5.327   2.767  0.00  0.00    -0.375 OA
ENDBRANCH  23  24
ENDBRANCH   1  23
TORSDOF 8
