REMARK  Name = ZINC10013461
REMARK  15 active torsions:
REMARK  status: ('A' for Active; 'I' for Inactive)
REMARK    1  A    between atoms: C_1  and  C_2
REMARK    2  A    between atoms: C_2  and  O_3
REMARK    3  A    between atoms: O_3  and  C_4
REMARK    4  A    between atoms: C_6  and  C_12
REMARK    5  A    between atoms: C_9  and  O_10
REMARK    6  A    between atoms: C_17  and  C_21
REMARK    7  A    between atoms: C_17  and  C_22
REMARK    8  A    between atoms: C_24  and  C_34
REMARK    9  A    between atoms: C_25  and  C_26
REMARK   10  A    between atoms: C_26  and  O_28
REMARK   11  A    between atoms: O_28  and  C_29
REMARK   12  A    between atoms: C_29  and  C_30
REMARK   13  A    between atoms: C_30  and  S_31
REMARK   14  A    between atoms: S_31  and  C_32
REMARK   15  A    between atoms: C_32  and  C_33
REMARK                            x       y       z     vdW  Elec       q    Type
REMARK                         _______ _______ _______ _____ _____    ______ ____
ROOT
ATOM      1  C   UNL     1      -1.928   2.551   3.519  0.00  0.00    +0.092 C 
ATOM      2  C   UNL     1      -2.164   3.203   4.858  0.00  0.00    +0.024 C 
ATOM      3  C   UNL     1      -1.627   2.683   5.982  0.00  0.00    +0.016 C 
ATOM      4  C   UNL     1      -1.854   3.333   7.324  0.00  0.00    +0.058 C 
ATOM      5  C   UNL     1      -3.220   4.024   7.337  0.00  0.00    -0.023 C 
ATOM      6  C   UNL     1      -3.252   5.056   6.204  0.00  0.00    +0.086 C 
ATOM      7  C   UNL     1      -2.958   4.362   4.902  0.00  0.00    +0.162 C 
ATOM      8  O   UNL     1      -3.415   4.812   3.870  0.00  0.00    -0.292 OA
ATOM      9  C   UNL     1      -4.323   2.986   7.119  0.00  0.00    +0.011 C 
ATOM     10  C   UNL     1      -3.430   4.723   8.681  0.00  0.00    +0.011 C 
ATOM     11  N   UNL     1      -0.859   1.551   5.926  0.00  0.00    -0.321 N 
ATOM     12  C   UNL     1      -0.290   1.151   4.749  0.00  0.00    +0.016 C 
ATOM     13  C   UNL     1      -0.760   1.610   3.576  0.00  0.00    +0.065 C 
ATOM     14  C   UNL     1       0.875   0.196   4.766  0.00  0.00    +0.061 C 
ATOM     15  H   UNL     1      -0.694   0.953   6.834  0.00  0.00    +0.152 HD
ENDROOT
BRANCH   1  18
ATOM     16  C   UNL     1      -4.980   1.425   1.597  0.00  0.00    +0.163 A 
ATOM     17  C   UNL     1      -3.845   2.129   1.968  0.00  0.00    +0.054 A 
ATOM     18  C   UNL     1      -3.162   1.784   3.118  0.00  0.00    -0.030 A 
ATOM     19  C   UNL     1      -3.604   0.733   3.900  0.00  0.00    +0.028 A 
ATOM     20  C   UNL     1      -4.739   0.029   3.539  0.00  0.00    +0.086 A 
ATOM     21  C   UNL     1      -5.429   0.370   2.386  0.00  0.00    +0.177 A 
ATOM     22 CL   UNL     1      -5.295  -1.287   4.526  0.00  0.00    -0.080 Cl
BRANCH  21  23
ATOM     23  O   UNL     1      -6.542  -0.324   2.027  0.00  0.00    -0.502 OA
ATOM     24  H   UNL     1      -6.896  -1.157   2.651  0.00  0.00    +0.292 HD
ENDBRANCH  21  23
BRANCH  16  25
ATOM     25  O   UNL     1      -5.653   1.763   0.465  0.00  0.00    -0.489 OA
BRANCH  25  27
ATOM     26  C   UNL     1      -6.017   3.087  -1.524  0.00  0.00    +0.048 C 
ATOM     27  C   UNL     1      -5.134   2.856  -0.296  0.00  0.00    +0.226 C 
ENDBRANCH  25  27
ENDBRANCH  16  25
ENDBRANCH   1  18
BRANCH  13  28
ATOM     28  C   UNL     1      -0.145   1.194   2.372  0.00  0.00    +0.338 C 
ATOM     29  O   UNL     1       0.863   0.512   2.407  0.00  0.00    -0.245 OA
BRANCH  28  30
ATOM     30  O   UNL     1      -0.677   1.551   1.184  0.00  0.00    -0.460 OA
BRANCH  30  31
ATOM     31  C   UNL     1      -0.004   1.095   0.009  0.00  0.00    +0.243 C 
BRANCH  31  32
ATOM     32  C   UNL     1      -0.747   1.597  -1.231  0.00  0.00    +0.110 C 
BRANCH  32  33
ATOM     33  S   UNL     1       0.107   1.018  -2.723  0.00  0.00    -0.158 S 
BRANCH  33  34
ATOM     34  C   UNL     1      -0.886   1.688  -4.085  0.00  0.00    +0.066 C 
ATOM     35  C   UNL     1      -0.269   1.269  -5.421  0.00  0.00    +0.015 C 
ENDBRANCH  33  34
ENDBRANCH  32  33
ENDBRANCH  31  32
ENDBRANCH  30  31
ENDBRANCH  28  30
ENDBRANCH  13  28
TORSDOF 10
