REMARK  Name = ZINC40012565
REMARK  9 active torsions:
REMARK  status: ('A' for Active; 'I' for Inactive)
REMARK    1  A    between atoms: C_1  and  C_2
REMARK    2  A    between atoms: C_2  and  C_3
REMARK    3  A    between atoms: C_2  and  O_4
REMARK    4  A    between atoms: O_4  and  C_5
REMARK    5  A    between atoms: C_5  and  C_7
REMARK    6  A    between atoms: C_9  and  N_18
REMARK    7  A    between atoms: C_19  and  C_21
REMARK    8  A    between atoms: C_21  and  S_22
REMARK    9  A    between atoms: S_22  and  C_23
REMARK                            x       y       z     vdW  Elec       q    Type
REMARK                         _______ _______ _______ _____ _____    ______ ____
ROOT
ATOM      1  C   UNL     1       0.618  -1.196   3.521  0.00  0.00    +0.155 C 
ATOM      2  C   UNL     1       1.295  -2.557   3.230  0.00  0.00    +0.153 C 
ATOM      3  S   UNL     1      -0.052  -3.670   3.813  0.00  0.00    -0.106 S 
ATOM      4  C   UNL     1      -0.889  -2.524   4.884  0.00  0.00    -0.013 C 
ATOM      5  C   UNL     1      -0.421  -1.315   4.607  0.00  0.00    -0.044 C 
ATOM      6  C   UNL     1      -0.921  -0.088   5.367  0.00  0.00    +0.032 C 
ATOM      7  C   UNL     1      -2.255  -0.421   6.034  0.00  0.00    +0.005 C 
ATOM      8  C   UNL     1      -2.107  -1.701   6.863  0.00  0.00    +0.005 C 
ATOM      9  C   UNL     1      -1.931  -2.878   5.908  0.00  0.00    +0.042 C 
ENDROOT
BRANCH   2  10
ATOM     10  N   UNL     1       2.516  -2.730   4.021  0.00  0.00    -0.301 N 
ATOM     11  C   UNL     1       2.754  -3.900   4.647  0.00  0.00    +0.224 C 
ATOM     12  O   UNL     1       1.956  -4.809   4.556  0.00  0.00    -0.275 OA
ATOM     13  H   UNL     1       3.154  -2.003   4.094  0.00  0.00    +0.150 HD
BRANCH  11  14
ATOM     14  C   UNL     1       4.010  -4.077   5.461  0.00  0.00    +0.173 C 
BRANCH  14  15
ATOM     15  S   UNL     1       4.039  -5.746   6.172  0.00  0.00    -0.075 S 
BRANCH  15  16
ATOM     16  C   UNL     1       5.547  -5.796   7.081  0.00  0.00    +0.210 A 
ATOM     17  N   UNL     1       6.407  -4.811   7.185  0.00  0.00    -0.144 NA
ATOM     18  H   UNL     1       8.250  -4.773   8.256  0.00  0.00    +0.192 HD
ATOM     19  N   UNL     1       7.460  -5.270   7.993  0.00  0.00    -0.246 N 
ATOM     20  C   UNL     1       7.155  -6.540   8.334  0.00  0.00    +0.209 A 
ATOM     21  N   UNL     1       5.999  -6.842   7.782  0.00  0.00    -0.188 NA
ATOM     22  N   UNL     1       7.920  -7.375   9.127  0.00  0.00    -0.328 N 
ATOM     23  H   UNL     1       8.761  -7.059   9.493  0.00  0.00    +0.145 HD
ATOM     24  H   UNL     1       7.616  -8.276   9.317  0.00  0.00    +0.145 HD
ENDBRANCH  15  16
ENDBRANCH  14  15
ENDBRANCH  11  14
ENDBRANCH   2  10
BRANCH   1  25
ATOM     25  C   UNL     1      -0.042  -0.697   2.261  0.00  0.00    +0.317 C 
ATOM     26  O   UNL     1      -1.233  -0.493   2.243  0.00  0.00    -0.250 OA
BRANCH  25  27
ATOM     27  O   UNL     1       0.693  -0.477   1.160  0.00  0.00    -0.461 OA
BRANCH  27  29
ATOM     28  C   UNL     1      -0.019   1.526   0.010  0.00  0.00    +0.052 C 
ATOM     29  C   UNL     1       0.002  -0.004   0.002  0.00  0.00    +0.170 C 
ATOM     30  C   UNL     1       0.718  -0.497  -1.257  0.00  0.00    +0.052 C 
ENDBRANCH  27  29
ENDBRANCH  25  27
ENDBRANCH   1  25
TORSDOF 7
