REMARK  Name = ZINC13364583
REMARK  7 active torsions:
REMARK  status: ('A' for Active; 'I' for Inactive)
REMARK    1  A    between atoms: C_1  and  C_2
REMARK    2  A    between atoms: N_13  and  C_29
REMARK    3  A    between atoms: C_14  and  S_16
REMARK    4  A    between atoms: S_16  and  C_17
REMARK    5  A    between atoms: C_17  and  C_18
REMARK    6  A    between atoms: N_20  and  C_21
REMARK    7  A    between atoms: C_24  and  C_27
REMARK                            x       y       z     vdW  Elec       q    Type
REMARK                         _______ _______ _______ _____ _____    ______ ____
ROOT
ATOM      1  C   UNL     1       1.031  16.097   1.103  0.00  0.00    +0.008 C 
ATOM      2  C   UNL     1       1.650  14.759   0.693  0.00  0.00    -0.009 C 
ATOM      3  C   UNL     1       2.882  14.477   1.558  0.00  0.00    +0.008 C 
ATOM      4  C   UNL     1       3.646  13.276   0.998  0.00  0.00    +0.037 C 
ATOM      5  C   UNL     1       2.676  12.110   0.830  0.00  0.00    -0.023 A 
ATOM      6  C   UNL     1       1.344  12.320   0.797  0.00  0.00    -0.004 A 
ATOM      7  S   UNL     1       0.629  10.711   0.592  0.00  0.00    -0.073 S 
ATOM      8  C   UNL     1       2.125   9.757   0.551  0.00  0.00    +0.117 A 
ATOM      9  C   UNL     1       3.133  10.725   0.700  0.00  0.00    +0.076 A 
ATOM     10  C   UNL     1       4.476  10.230   0.705  0.00  0.00    +0.263 A 
ATOM     11  O   UNL     1       5.416  10.996   0.829  0.00  0.00    -0.267 OA
ATOM     12  N   UNL     1       4.686   8.908   0.570  0.00  0.00    -0.284 N 
ATOM     13  C   UNL     1       3.646   8.035   0.430  0.00  0.00    +0.173 A 
ATOM     14  N   UNL     1       2.400   8.465   0.418  0.00  0.00    -0.216 NA
ATOM     15  C   UNL     1       0.629  13.632   0.907  0.00  0.00    +0.046 C 
ENDROOT
BRANCH  12  16
ATOM     16  C   UNL     1       6.058   8.394   0.574  0.00  0.00    +0.093 C 
ATOM     17  C   UNL     1       6.746   8.736   1.912  0.00  0.00    +0.025 C 
ATOM     18  C   UNL     1       8.209   9.059   1.514  0.00  0.00    +0.002 C 
ATOM     19  C   UNL     1       8.040   9.814   0.172  0.00  0.00    +0.002 C 
ATOM     20  C   UNL     1       6.880   9.079  -0.532  0.00  0.00    +0.025 C 
ENDBRANCH  12  16
BRANCH  13  21
ATOM     21  S   UNL     1       3.973   6.313   0.256  0.00  0.00    -0.078 S 
BRANCH  21  22
ATOM     22  C   UNL     1       2.281   5.684   0.114  0.00  0.00    +0.173 C 
BRANCH  22  23
ATOM     23  C   UNL     1       2.314   4.187  -0.048  0.00  0.00    +0.227 C 
ATOM     24  O   UNL     1       3.376   3.602  -0.067  0.00  0.00    -0.275 OA
ATOM     25  N   UNL     1       1.162   3.497  -0.173  0.00  0.00    -0.285 N 
ATOM     26  H   UNL     1       0.318   3.970  -0.233  0.00  0.00    +0.155 HD
BRANCH  25  27
ATOM     27  C   UNL     1       1.185   2.104  -0.216  0.00  0.00    +0.033 A 
ATOM     28  C   UNL     1       0.252   1.418  -0.986  0.00  0.00    +0.024 A 
ATOM     29  C   UNL     1       0.271   0.042  -1.031  0.00  0.00    +0.017 A 
ATOM     30  C   UNL     1       1.231  -0.666  -0.300  0.00  0.00    +0.063 A 
ATOM     31  C   UNL     1       2.167   0.027   0.473  0.00  0.00    +0.017 A 
ATOM     32  C   UNL     1       2.142   1.403   0.512  0.00  0.00    +0.024 A 
BRANCH  30  33
ATOM     33  C   UNL     1       1.254  -2.139  -0.345  0.00  0.00    +0.387 C 
ATOM     34  O   UNL     1       0.440  -2.740  -1.017  0.00  0.00    -0.241 OA
ATOM     35  O   UNL     1       2.180  -2.820   0.359  0.00  0.00    -0.241 OA
ENDBRANCH  30  33
ENDBRANCH  25  27
ENDBRANCH  22  23
ENDBRANCH  21  22
ENDBRANCH  13  21
TORSDOF 6
