REMARK  Name = ZINC36207615
REMARK  15 active torsions:
REMARK  status: ('A' for Active; 'I' for Inactive)
REMARK    1  A    between atoms: C_1  and  C_2
REMARK    2  A    between atoms: C_7  and  O_8
REMARK    3  A    between atoms: O_8  and  C_9
REMARK    4  A    between atoms: C_9  and  C_10
REMARK    5  A    between atoms: C_10  and  C_12
REMARK    6  A    between atoms: C_10  and  O_37
REMARK    7  A    between atoms: C_12  and  N_13
REMARK    8  A    between atoms: N_13  and  C_14
REMARK    9  A    between atoms: N_13  and  C_19
REMARK   10  A    between atoms: C_14  and  C_15
REMARK   11  A    between atoms: C_15  and  C_16
REMARK   12  A    between atoms: C_16  and  O_17
REMARK   13  A    between atoms: O_17  and  C_18
REMARK   14  A    between atoms: C_19  and  C_20
REMARK   15  A    between atoms: C_26  and  C_31
REMARK                            x       y       z     vdW  Elec       q    Type
REMARK                         _______ _______ _______ _____ _____    ______ ____
ROOT
ATOM      1  N   UNL     1      -0.036   0.196   6.880  0.00  0.00    +0.386 N 
ATOM      2  H   UNL     1       0.631   0.938   6.730  0.00  0.00    -0.081 HD
ENDROOT
BRANCH   1   3
ATOM      3  C   UNL     1       0.186  -0.870   5.894  0.00  0.00    -0.043 C 
BRANCH   3   4
ATOM      4  C   UNL     1       0.135  -0.279   4.484  0.00  0.00    +0.135 C 
BRANCH   4   5
ATOM      5  O   UNL     1       1.223   0.632   4.309  0.00  0.00    -0.390 OA
ATOM      6  H   UNL     1       2.095   0.228   4.418  0.00  0.00    +0.210 HD
ENDBRANCH   4   5
BRANCH   4   7
ATOM      7  C   UNL     1       0.242  -1.405   3.454  0.00  0.00    +0.258 C 
BRANCH   7   8
ATOM      8  O   UNL     1       0.078  -0.867   2.140  0.00  0.00    -0.489 OA
BRANCH   8  15
ATOM      9  C   UNL     1      -0.246   0.176  -0.465  0.00  0.00    +0.047 C 
ATOM     10  C   UNL     1      -0.005  -1.288  -0.199  0.00  0.00    -0.009 A 
ATOM     11  C   UNL     1       0.071  -2.178  -1.253  0.00  0.00    +0.007 A 
ATOM     12  C   UNL     1       0.291  -3.521  -1.011  0.00  0.00    +0.000 A 
ATOM     13  C   UNL     1       0.436  -3.977   0.287  0.00  0.00    +0.004 A 
ATOM     14  C   UNL     1       0.362  -3.091   1.344  0.00  0.00    +0.046 A 
ATOM     15  C   UNL     1       0.146  -1.742   1.103  0.00  0.00    +0.124 A 
ENDBRANCH   8  15
ENDBRANCH   7   8
ENDBRANCH   4   7
ENDBRANCH   3   4
ENDBRANCH   1   3
BRANCH   1  16
ATOM     16  C   UNL     1      -1.399   0.725   6.730  0.00  0.00    -0.076 C 
BRANCH  16  17
ATOM     17  C   UNL     1      -1.588   1.919   7.668  0.00  0.00    +0.009 C 
BRANCH  17  18
ATOM     18  C   UNL     1      -2.957   2.554   7.414  0.00  0.00    +0.157 C 
BRANCH  18  19
ATOM     19  O   UNL     1      -3.134   3.670   8.290  0.00  0.00    -0.383 OA
ATOM     20  C   UNL     1      -4.387   4.338   8.134  0.00  0.00    +0.193 C 
ENDBRANCH  18  19
ENDBRANCH  17  18
ENDBRANCH  16  17
ENDBRANCH   1  16
BRANCH   1  21
ATOM     21  C   UNL     1       0.131  -0.348   8.235  0.00  0.00    -0.003 C 
BRANCH  21  22
ATOM     22  C   UNL     1       1.572  -0.735   8.446  0.00  0.00    +0.094 A 
ATOM     23  N   UNL     1       1.930  -1.378   9.586  0.00  0.00    -0.312 N 
ATOM     24  H   UNL     1       1.253  -1.580  10.251  0.00  0.00    +0.170 HD
ATOM     25  C   UNL     1       3.206  -1.742   9.813  0.00  0.00    +0.260 A 
ATOM     26  O   UNL     1       3.511  -2.320  10.843  0.00  0.00    -0.267 OA
ATOM     27  C   UNL     1       4.199  -1.440   8.828  0.00  0.00    +0.080 A 
ATOM     28  C   UNL     1       5.628  -1.727   8.841  0.00  0.00    +0.004 A 
ATOM     29  C   UNL     1       6.380  -1.342   7.781  0.00  0.00    +0.056 A 
ATOM     30  S   UNL     1       5.197  -0.565   6.697  0.00  0.00    -0.076 S 
ATOM     31  C   UNL     1       3.736  -0.774   7.682  0.00  0.00    +0.116 A 
ATOM     32  N   UNL     1       2.454  -0.451   7.526  0.00  0.00    -0.229 NA
BRANCH  28  33
ATOM     33  C   UNL     1       6.248  -2.427   9.991  0.00  0.00    -0.017 A 
ATOM     34  C   UNL     1       6.004  -1.987  11.291  0.00  0.00    +0.008 A 
ATOM     35  C   UNL     1       6.583  -2.642  12.359  0.00  0.00    +0.001 A 
ATOM     36  C   UNL     1       7.405  -3.733  12.140  0.00  0.00    +0.000 A 
ATOM     37  C   UNL     1       7.651  -4.175  10.852  0.00  0.00    +0.001 A 
ATOM     38  C   UNL     1       7.073  -3.530   9.778  0.00  0.00    +0.008 A 
ENDBRANCH  28  33
ENDBRANCH  21  22
ENDBRANCH   1  21
TORSDOF 13
