REMARK  Name = ZINC08820195
REMARK  10 active torsions:
REMARK  status: ('A' for Active; 'I' for Inactive)
REMARK    1  A    between atoms: C_4  and  O_33
REMARK    2  A    between atoms: C_5  and  C_7
REMARK    3  A    between atoms: N_9  and  N_10
REMARK    4  A    between atoms: C_11  and  C_13
REMARK    5  A    between atoms: C_13  and  C_14
REMARK    6  A    between atoms: C_14  and  C_15
REMARK    7  A    between atoms: C_15  and  C_16
REMARK    8  A    between atoms: C_16  and  C_17
REMARK    9  A    between atoms: C_17  and  N_18
REMARK   10  A    between atoms: C_22  and  C_23
REMARK                            x       y       z     vdW  Elec       q    Type
REMARK                         _______ _______ _______ _____ _____    ______ ____
ROOT
ATOM      1  C   UNL     1      -0.660   0.426   0.413  0.00  0.00    +0.009 C 
ENDROOT
BRANCH   1   2
ATOM      2  C   UNL     1      -1.341   0.788   1.734  0.00  0.00    +0.097 C 
BRANCH   2   4
ATOM      3  N   UNL     1      -2.345   2.790   2.784  0.00  0.00    -0.234 N 
ATOM      4  C   UNL     1      -1.727   2.245   1.718  0.00  0.00    +0.229 C 
ATOM      5  O   UNL     1      -1.480   2.926   0.746  0.00  0.00    -0.274 OA
ATOM      6  H   UNL     1      -2.542   2.245   3.562  0.00  0.00    +0.173 HD
BRANCH   3   9
ATOM      7  C   UNL     1      -3.321   4.690   3.835  0.00  0.00    +0.264 C 
ATOM      8  O   UNL     1      -3.568   4.007   4.810  0.00  0.00    -0.269 OA
ATOM      9  N   UNL     1      -2.703   4.145   2.769  0.00  0.00    -0.230 N 
ATOM     10  H   UNL     1      -2.506   4.690   1.991  0.00  0.00    +0.173 HD
BRANCH   7  15
ATOM     11  C   UNL     1      -3.771   8.237   2.693  0.00  0.00    +0.001 A 
ATOM     12  C   UNL     1      -4.407   8.798   3.788  0.00  0.00    +0.004 A 
ATOM     13  C   UNL     1      -4.692   8.030   4.899  0.00  0.00    +0.046 A 
ATOM     14  C   UNL     1      -4.342   6.688   4.926  0.00  0.00    +0.129 A 
ATOM     15  C   UNL     1      -3.699   6.116   3.819  0.00  0.00    +0.079 A 
ATOM     16  C   UNL     1      -3.412   6.907   2.703  0.00  0.00    +0.017 A 
BRANCH  14  17
ATOM     17  O   UNL     1      -4.620   5.932   6.017  0.00  0.00    -0.506 OA
ATOM     18  H   UNL     1      -3.916   5.924   6.680  0.00  0.00    +0.292 HD
ENDBRANCH  14  17
ENDBRANCH   7  15
ENDBRANCH   3   9
ENDBRANCH   2   4
ENDBRANCH   1   2
BRANCH   1  19
ATOM     19  C   UNL     1      -0.269  -1.053   0.430  0.00  0.00    +0.002 C 
BRANCH  19  20
ATOM     20  C   UNL     1       0.413  -1.415  -0.891  0.00  0.00    +0.019 C 
BRANCH  20  21
ATOM     21  C   UNL     1       0.804  -2.894  -0.875  0.00  0.00    +0.115 C 
BRANCH  21  22
ATOM     22  N   UNL     1       1.457  -3.241  -2.140  0.00  0.00    -0.255 N 
ATOM     23  C   UNL     1       2.769  -3.118  -2.245  0.00  0.00    +0.258 C 
ATOM     24  O   UNL     1       3.451  -2.723  -1.317  0.00  0.00    -0.269 OA
ATOM     25  C   UNL     1       3.366  -3.484  -3.546  0.00  0.00    +0.077 C 
ATOM     26  C   UNL     1       4.664  -3.461  -3.940  0.00  0.00    +0.028 C 
ATOM     27  S   UNL     1       1.907  -3.968  -4.459  0.00  0.00    -0.061 S 
ATOM     28  C   UNL     1       0.706  -3.684  -3.169  0.00  0.00    +0.121 C 
ATOM     29  S   UNL     1      -0.990  -3.915  -3.225  0.00  0.00    -0.027 S 
BRANCH  26  30
ATOM     30  C   UNL     1       5.048  -4.031  -5.239  0.00  0.00    -0.024 A 
ATOM     31  C   UNL     1       4.119  -4.759  -5.990  0.00  0.00    +0.009 A 
ATOM     32  C   UNL     1       4.485  -5.285  -7.210  0.00  0.00    +0.020 A 
ATOM     33  C   UNL     1       5.773  -5.106  -7.687  0.00  0.00    +0.041 A 
ATOM     34  C   UNL     1       6.701  -4.391  -6.946  0.00  0.00    +0.020 A 
ATOM     35  C   UNL     1       6.348  -3.854  -5.728  0.00  0.00    +0.009 A 
ATOM     36 CL   UNL     1       6.227  -5.779  -9.222  0.00  0.00    -0.084 Cl
ENDBRANCH  26  30
ENDBRANCH  21  22
ENDBRANCH  20  21
ENDBRANCH  19  20
ENDBRANCH   1  19
TORSDOF 10
