REMARK  Name = ZINC11884915
REMARK  7 active torsions:
REMARK  status: ('A' for Active; 'I' for Inactive)
REMARK    1  A    between atoms: C_1  and  N_28
REMARK    2  A    between atoms: C_2  and  N_28
REMARK    3  A    between atoms: C_3  and  C_4
REMARK    4  A    between atoms: C_3  and  N_28
REMARK    5  A    between atoms: C_4  and  O_5
REMARK    6  A    between atoms: O_5  and  C_6
REMARK    7  A    between atoms: C_7  and  C_14
REMARK                            x       y       z     vdW  Elec       q    Type
REMARK                         _______ _______ _______ _____ _____    ______ ____
ROOT
ATOM      1  C   UNL     1      -1.333   2.250  -0.017  0.00  0.00    +0.152 A 
ATOM      2  C   UNL     1      -0.104   1.589  -0.145  0.00  0.00    +0.096 A 
ATOM      3  C   UNL     1       1.080   2.330  -0.168  0.00  0.00    +0.042 A 
ATOM      4  C   UNL     1       1.034   3.704  -0.057  0.00  0.00    +0.043 A 
ATOM      5  C   UNL     1      -0.183   4.354   0.075  0.00  0.00    +0.039 A 
ATOM      6  C   UNL     1      -1.362   3.632   0.099  0.00  0.00    +0.062 A 
ATOM      7 BR   UNL     1      -3.016   4.530   0.280  0.00  0.00    -0.046 Br
ATOM      8 CL   UNL     1       2.506   4.624  -0.085  0.00  0.00    -0.083 Cl
ENDROOT
BRANCH   2   9
ATOM      9  C   UNL     1      -0.063   0.162  -0.260  0.00  0.00    +0.103 C 
ATOM     10  N   UNL     1      -0.030  -0.970  -0.351  0.00  0.00    -0.191 NA
ENDBRANCH   2   9
BRANCH   1  11
ATOM     11  O   UNL     1      -2.490   1.541   0.000  0.00  0.00    -0.491 OA
BRANCH  11  12
ATOM     12  C   UNL     1      -2.964   1.103   1.275  0.00  0.00    +0.211 C 
BRANCH  12  13
ATOM     13  C   UNL     1      -4.270   0.326   1.094  0.00  0.00    -0.038 C 
BRANCH  13  16
ATOM     14  C   UNL     1      -3.357  -1.915   1.185  0.00  0.00    -0.096 C 
ATOM     15  C   UNL     1      -5.241  -1.433  -0.256  0.00  0.00    -0.096 C 
ATOM     16  N   UNL     1      -3.988  -0.899   0.317  0.00  0.00    +0.378 N 
ATOM     17  H   UNL     1      -3.344  -0.668  -0.448  0.00  0.00    -0.082 HD
ENDBRANCH  13  16
ENDBRANCH  12  13
ENDBRANCH  11  12
ENDBRANCH   1  11
TORSDOF 5
