REMARK  Name = ZINC54627903
REMARK  3 active torsions:
REMARK  status: ('A' for Active; 'I' for Inactive)
REMARK    1  A    between atoms: C_1  and  N_2
REMARK    2  A    between atoms: N_2  and  C_3
REMARK    3  A    between atoms: N_12  and  C_13
REMARK                            x       y       z     vdW  Elec       q    Type
REMARK                         _______ _______ _______ _____ _____    ______ ____
ROOT
ATOM      1  C   UNL     1      -1.376  -0.512   0.012  0.00  0.00    -0.069 C 
ATOM      2  C   UNL     1      -2.118  -0.000  -1.226  0.00  0.00    +0.007 C 
ATOM      3  C   UNL     1      -1.483  -0.624  -2.479  0.00  0.00    +0.072 C 
ATOM      4  C   UNL     1       0.049  -0.449  -2.371  0.00  0.00    +0.024 C 
ATOM      5  C   UNL     1       0.535  -1.700  -1.609  0.00  0.00    +0.024 C 
ATOM      6  C   UNL     1      -0.750  -2.514  -1.329  0.00  0.00    +0.072 C 
ATOM      7  C   UNL     1      -1.354  -2.044   0.004  0.00  0.00    +0.007 C 
ATOM      8  N   UNL     1      -1.704  -2.088  -2.402  0.00  0.00    -0.324 N 
ENDROOT
BRANCH   8   9
ATOM      9  C   UNL     1      -2.582  -2.870  -3.157  0.00  0.00    +0.030 A 
ATOM     10  C   UNL     1      -3.381  -2.280  -4.128  0.00  0.00    +0.024 A 
ATOM     11  C   UNL     1      -4.248  -3.055  -4.872  0.00  0.00    +0.016 A 
ATOM     12  C   UNL     1      -4.320  -4.419  -4.652  0.00  0.00    +0.013 A 
ATOM     13  C   UNL     1      -3.525  -5.010  -3.687  0.00  0.00    +0.016 A 
ATOM     14  C   UNL     1      -2.652  -4.241  -2.943  0.00  0.00    +0.024 A 
ATOM     15  I   UNL     1      -5.637  -5.592  -5.783  0.00  0.00    -0.044 I 
ENDBRANCH   8   9
BRANCH   1  17
ATOM     16  C   UNL     1      -0.017   1.464   0.064  0.00  0.00    -0.100 C 
ATOM     17  N   UNL     1       0.002  -0.004   0.002  0.00  0.00    +0.379 N 
ATOM     18  H   UNL     1       0.463  -0.299  -0.846  0.00  0.00    -0.086 HD
ATOM     19  H   UNL     1       0.501  -0.368   0.800  0.00  0.00    -0.086 HD
ENDBRANCH   1  17
TORSDOF 2
