REMARK  Name = ZINC39591032
REMARK  5 active torsions:
REMARK  status: ('A' for Active; 'I' for Inactive)
REMARK    1  A    between atoms: C_1  and  C_2
REMARK    2  A    between atoms: C_4  and  C_8
REMARK    3  A    between atoms: C_12  and  S_24
REMARK    4  A    between atoms: N_14  and  N_15
REMARK    5  A    between atoms: C_16  and  C_17
REMARK                            x       y       z     vdW  Elec       q    Type
REMARK                         _______ _______ _______ _____ _____    ______ ____
ROOT
ATOM      1  C   UNL     1      -0.964  -2.951   1.248  0.00  0.00    +0.263 C 
ATOM      2  N   UNL     1      -0.428  -2.296   2.442  0.00  0.00    -0.163 NA
ATOM      3  N   UNL     1       0.316  -3.041   3.076  0.00  0.00    -0.155 NA
ATOM      4  C   UNL     1       0.439  -4.355   2.444  0.00  0.00    +0.288 C 
ATOM      5  N   UNL     1      -0.402  -4.313   1.233  0.00  0.00    -0.192 N 
ENDROOT
BRANCH   1   9
ATOM      6  C   UNL     1      -0.018   1.503   0.010  0.00  0.00    +0.067 C 
ATOM      7  C   UNL     1       0.002  -0.004   0.002  0.00  0.00    +0.058 C 
ATOM      8  C   UNL     1      -1.086  -0.777   0.003  0.00  0.00    +0.030 C 
ATOM      9  C   UNL     1      -0.531  -2.190  -0.007  0.00  0.00    +0.198 C 
ATOM     10  N   UNL     1       0.926  -1.973  -0.013  0.00  0.00    -0.176 NA
ATOM     11  N   UNL     1       1.125  -0.756  -0.013  0.00  0.00    -0.159 NA
ENDBRANCH   1   9
BRANCH   5  12
ATOM     12  N   UNL     1      -0.616  -5.327   0.291  0.00  0.00    -0.187 NA
ATOM     13  C   UNL     1      -0.036  -6.479   0.434  0.00  0.00    +0.138 C 
BRANCH  13  14
ATOM     14  C   UNL     1      -0.261  -7.547  -0.558  0.00  0.00    -0.004 A 
ATOM     15  C   UNL     1      -1.095  -7.320  -1.656  0.00  0.00    +0.009 A 
ATOM     16  C   UNL     1      -1.301  -8.323  -2.580  0.00  0.00    +0.002 A 
ATOM     17  C   UNL     1      -0.685  -9.552  -2.422  0.00  0.00    +0.015 A 
ATOM     18  C   UNL     1       0.142  -9.784  -1.337  0.00  0.00    +0.018 A 
ATOM     19  C   UNL     1       0.362  -8.787  -0.407  0.00  0.00    +0.024 A 
ATOM     20 BR   UNL     1       0.978 -11.467  -1.131  0.00  0.00    -0.050 Br
ENDBRANCH  13  14
ENDBRANCH   5  12
BRANCH   4  21
ATOM     21  S   UNL     1       2.168  -4.670   1.993  0.00  0.00    -0.130 S 
ATOM     22  H   UNL     1       2.820  -4.648   3.169  0.00  0.00    +0.105 HD
ENDBRANCH   4  21
TORSDOF 4
