REMARK  Name = ZINC12446478
REMARK  6 active torsions:
REMARK  status: ('A' for Active; 'I' for Inactive)
REMARK    1  A    between atoms: C_3  and  N_10
REMARK    2  A    between atoms: C_5  and  C_6
REMARK    3  A    between atoms: C_14  and  N_17
REMARK    4  A    between atoms: C_18  and  C_20
REMARK    5  A    between atoms: C_20  and  C_21
REMARK    6  A    between atoms: C_21  and  C_22
REMARK                            x       y       z     vdW  Elec       q    Type
REMARK                         _______ _______ _______ _____ _____    ______ ____
ROOT
ATOM      1  N   UNL     1       4.798   1.364   0.552  0.00  0.00    -0.315 N 
ATOM      2  C   UNL     1       5.199   1.060  -0.827  0.00  0.00    +0.106 C 
ATOM      3  C   UNL     1       4.160   0.141  -1.472  0.00  0.00    +0.021 C 
ATOM      4  C   UNL     1       2.794   0.833  -1.458  0.00  0.00    +0.025 C 
ATOM      5  C   UNL     1       2.422   1.183  -0.015  0.00  0.00    +0.090 C 
ATOM      6  C   UNL     1       3.512   2.072   0.588  0.00  0.00    +0.128 C 
ENDROOT
BRANCH   1   9
ATOM      7  C   UNL     1       8.050   2.315   1.944  0.00  0.00    +0.017 A 
ATOM      8  C   UNL     1       7.077   1.580   1.291  0.00  0.00    +0.042 A 
ATOM      9  C   UNL     1       5.785   2.090   1.210  0.00  0.00    +0.099 A 
ATOM     10  C   UNL     1       6.392   3.977   2.392  0.00  0.00    +0.096 A 
ATOM     11  C   UNL     1       7.694   3.534   2.506  0.00  0.00    +0.071 A 
ATOM     12  N   UNL     1       5.411   3.284   1.753  0.00  0.00    -0.349 N 
ATOM     13  H   UNL     1       4.450   3.638   1.684  0.00  0.00    +0.167 HD
BRANCH  11  14
ATOM     14  C   UNL     1       8.720   4.365   3.232  0.00  0.00    +0.419 C 
ATOM     15  F   UNL     1       8.121   5.538   3.704  0.00  0.00    -0.166 F 
ATOM     16  F   UNL     1       9.231   3.636   4.312  0.00  0.00    -0.166 F 
ATOM     17  F   UNL     1       9.761   4.692   2.356  0.00  0.00    -0.166 F 
ENDBRANCH  11  14
ENDBRANCH   1   9
BRANCH   5  18
ATOM     18  N   UNL     1       1.143   1.898   0.001  0.00  0.00    -0.311 N 
ATOM     19  C   UNL     1      -0.014   1.209   0.009  0.00  0.00    +0.214 C 
ATOM     20  O   UNL     1       0.002  -0.004   0.002  0.00  0.00    -0.276 OA
ATOM     21  H   UNL     1       1.130   2.868   0.007  0.00  0.00    +0.149 HD
BRANCH  19  22
ATOM     22  C   UNL     1      -1.330   1.944   0.019  0.00  0.00    +0.102 C 
BRANCH  22  23
ATOM     23  C   UNL     1      -2.479   0.934   0.019  0.00  0.00    +0.064 C 
BRANCH  23  24
ATOM     24  C   UNL     1      -3.794   1.670   0.029  0.00  0.00    +0.040 A 
ATOM     25  C   UNL     1      -4.446   2.146  -1.047  0.00  0.00    -0.004 A 
ATOM     26  C   UNL     1      -5.628   2.762  -0.602  0.00  0.00    +0.066 A 
ATOM     27  N   UNL     1      -5.680   2.656   0.694  0.00  0.00    -0.178 NA
ATOM     28  N   UNL     1      -4.535   1.966   1.121  0.00  0.00    -0.281 N 
ATOM     29  H   UNL     1      -4.307   1.734   2.066  0.00  0.00    +0.189 HD
ATOM     30  C   UNL     1      -6.624   3.420  -1.527  0.00  0.00    +0.057 C 
ATOM     31  C   UNL     1      -5.938   3.659  -2.878  0.00  0.00    +0.007 C 
ATOM     32  C   UNL     1      -5.276   2.365  -3.358  0.00  0.00    +0.005 C 
ATOM     33  C   UNL     1      -4.041   2.066  -2.498  0.00  0.00    +0.039 C 
ENDBRANCH  23  24
ENDBRANCH  22  23
ENDBRANCH  19  22
ENDBRANCH   5  18
TORSDOF 6
