REMARK  Name = ZINC06301867
REMARK  7 active torsions:
REMARK  status: ('A' for Active; 'I' for Inactive)
REMARK    1  A    between atoms: C_1  and  C_2
REMARK    2  A    between atoms: C_4  and  C_38
REMARK    3  A    between atoms: C_7  and  C_14
REMARK    4  A    between atoms: C_14  and  C_16
REMARK    5  A    between atoms: C_14  and  N_74
REMARK    6  A    between atoms: N_20  and  C_21
REMARK    7  A    between atoms: C_21  and  C_22
REMARK                            x       y       z     vdW  Elec       q    Type
REMARK                         _______ _______ _______ _____ _____    ______ ____
ROOT
ATOM      1  C   UNL     1      -2.518   4.282   0.047  0.00  0.00    +0.039 C 
ENDROOT
BRANCH   1   8
ATOM      2  C   UNL     1       3.922  -0.407  -0.339  0.00  0.00    +0.044 C 
ATOM      3  C   UNL     1       2.583   0.281  -0.285  0.00  0.00    -0.048 A 
ATOM      4  C   UNL     1       1.419  -0.473  -0.365  0.00  0.00    +0.007 A 
ATOM      5  C   UNL     1       0.195   0.131  -0.318  0.00  0.00    -0.041 A 
ATOM      6  C   UNL     1       0.112   1.522  -0.189  0.00  0.00    +0.002 A 
ATOM      7  C   UNL     1      -1.183   2.201  -0.129  0.00  0.00    +0.018 A 
ATOM      8  C   UNL     1      -1.202   3.551  -0.010  0.00  0.00    +0.011 A 
ATOM      9  C   UNL     1       0.008   4.275   0.067  0.00  0.00    +0.251 A 
ATOM     10  O   UNL     1      -0.031   5.488   0.180  0.00  0.00    -0.268 OA
ATOM     11  N   UNL     1       1.202   3.659   0.019  0.00  0.00    -0.322 N 
ATOM     12  H   UNL     1       2.014   4.187   0.075  0.00  0.00    +0.169 HD
ATOM     13  C   UNL     1       1.289   2.289  -0.108  0.00  0.00    +0.050 A 
ATOM     14  C   UNL     1       2.525   1.652  -0.157  0.00  0.00    +0.029 A 
ATOM     15  C   UNL     1      -1.061  -0.697  -0.405  0.00  0.00    +0.044 C 
ENDBRANCH   1   8
BRANCH   1  26
ATOM     16  C   UNL     1      -3.749   5.984   1.251  0.00  0.00    -0.077 C 
ATOM     17  C   UNL     1      -3.686   6.946   2.440  0.00  0.00    -0.018 C 
ATOM     18  C   UNL     1      -3.618   6.138   3.739  0.00  0.00    +0.003 C 
ATOM     19  C   UNL     1      -2.398   5.214   3.693  0.00  0.00    -0.044 C 
ATOM     20  C   UNL     1      -2.498   4.303   2.468  0.00  0.00    -0.071 C 
ATOM     21  C   UNL     1      -1.125   6.057   3.600  0.00  0.00    +0.005 C 
ATOM     22  C   UNL     1       0.096   5.135   3.557  0.00  0.00    +0.000 C 
ATOM     23  C   UNL     1       0.138   4.285   4.828  0.00  0.00    +0.000 C 
ATOM     24  C   UNL     1      -1.135   3.441   4.919  0.00  0.00    +0.000 C 
ATOM     25  C   UNL     1      -2.356   4.362   4.963  0.00  0.00    +0.005 C 
ATOM     26  N   UNL     1      -2.535   5.141   1.250  0.00  0.00    +0.390 N 
ATOM     27  H   UNL     1      -1.708   5.748   1.238  0.00  0.00    -0.080 HD
ENDBRANCH   1  26
BRANCH   1  28
ATOM     28  C   UNL     1      -2.665   5.149  -1.177  0.00  0.00    +0.143 A 
ATOM     29  N   UNL     1      -2.055   6.286  -1.408  0.00  0.00    -0.115 NA
ATOM     30  N   UNL     1      -2.442   6.718  -2.558  0.00  0.00    -0.023 NA
ATOM     31  N   UNL     1      -3.288   5.890  -3.064  0.00  0.00    -0.044 NA
ATOM     32  N   UNL     1      -3.453   4.910  -2.241  0.00  0.00    -0.228 N 
BRANCH  32  33
ATOM     33  C   UNL     1      -4.331   3.753  -2.432  0.00  0.00    +0.178 C 
BRANCH  33  34
ATOM     34  C   UNL     1      -5.716   4.064  -1.861  0.00  0.00    +0.140 C 
ATOM     35  C   UNL     1      -6.614   2.812  -1.952  0.00  0.00    +0.035 C 
ATOM     36  C   UNL     1      -7.987   3.420  -2.348  0.00  0.00    +0.031 C 
ATOM     37  C   UNL     1      -7.539   4.603  -3.241  0.00  0.00    +0.160 C 
ATOM     38  O   UNL     1      -6.337   5.100  -2.631  0.00  0.00    -0.375 OA
ENDBRANCH  33  34
ENDBRANCH  32  33
ENDBRANCH   1  28
TORSDOF 5
