REMARK  Name = ZINC39699905
REMARK  6 active torsions:
REMARK  status: ('A' for Active; 'I' for Inactive)
REMARK    1  A    between atoms: C_1  and  C_2
REMARK    2  A    between atoms: N_16  and  N_17
REMARK    3  A    between atoms: C_18  and  C_19
REMARK    4  A    between atoms: C_22  and  O_27
REMARK    5  A    between atoms: C_23  and  O_25
REMARK    6  A    between atoms: O_25  and  C_26
REMARK                            x       y       z     vdW  Elec       q    Type
REMARK                         _______ _______ _______ _____ _____    ______ ____
ROOT
ATOM      1  C   UNL     1      -0.018   1.503   0.010  0.00  0.00    +0.044 C 
ATOM      2  C   UNL     1       0.002  -0.004   0.002  0.00  0.00    -0.050 A 
ATOM      3  C   UNL     1       0.005  -0.672  -1.230  0.00  0.00    +0.005 A 
ATOM      4  C   UNL     1       0.029  -2.022  -1.308  0.00  0.00    +0.026 A 
ATOM      5  C   UNL     1       0.053  -2.812  -0.071  0.00  0.00    +0.046 A 
ATOM      6  N   UNL     1       0.046  -4.107   0.140  0.00  0.00    -0.358 N 
ATOM      7  C   UNL     1       0.204  -4.351   1.563  0.00  0.00    +0.253 C 
ATOM      8  C   UNL     1       0.043  -2.999   2.235  0.00  0.00    +0.115 C 
ATOM      9  C   UNL     1       0.037  -2.075   1.218  0.00  0.00    +0.025 A 
ATOM     10  C   UNL     1       0.022  -0.662   1.184  0.00  0.00    +0.015 A 
ATOM     11  N   UNL     1      -0.184  -2.888   3.546  0.00  0.00    -0.171 NA
ATOM     12  N   UNL     1      -0.780  -3.902   4.097  0.00  0.00    -0.247 N 
ATOM     13  C   UNL     1      -1.202  -4.969   3.376  0.00  0.00    +0.227 C 
ATOM     14  N   UNL     1      -0.804  -5.231   2.152  0.00  0.00    -0.220 NA
ATOM     15  N   UNL     1      -2.100  -5.837   3.965  0.00  0.00    -0.206 N 
ATOM     16  H   UNL     1      -2.410  -5.673   4.869  0.00  0.00    +0.177 HD
ATOM     17  H   UNL     1      -0.928  -3.896   5.056  0.00  0.00    +0.192 HD
ATOM     18  H   UNL     1      -0.049  -4.789  -0.543  0.00  0.00    +0.162 HD
ENDROOT
BRANCH  15  19
ATOM     19  N   UNL     1      -2.562  -6.953   3.256  0.00  0.00    -0.188 NA
ATOM     20  C   UNL     1      -3.407  -7.769   3.810  0.00  0.00    +0.138 C 
BRANCH  20  21
ATOM     21  C   UNL     1      -3.894  -8.944   3.064  0.00  0.00    -0.002 A 
ATOM     22  C   UNL     1      -3.443  -9.184   1.763  0.00  0.00    +0.013 A 
ATOM     23  C   UNL     1      -3.900 -10.284   1.068  0.00  0.00    +0.050 A 
ATOM     24  C   UNL     1      -4.807 -11.153   1.656  0.00  0.00    +0.158 A 
ATOM     25  C   UNL     1      -5.261 -10.920   2.952  0.00  0.00    +0.162 A 
ATOM     26  C   UNL     1      -4.803  -9.823   3.658  0.00  0.00    +0.058 A 
BRANCH  25  27
ATOM     27  O   UNL     1      -6.150 -11.774   3.526  0.00  0.00    -0.491 OA
ATOM     28  C   UNL     1      -6.572 -11.474   4.857  0.00  0.00    +0.277 C 
ENDBRANCH  25  27
BRANCH  24  29
ATOM     29  O   UNL     1      -5.254 -12.235   0.966  0.00  0.00    -0.503 OA
ATOM     30  H   UNL     1      -4.715 -13.029   1.086  0.00  0.00    +0.292 HD
ENDBRANCH  24  29
ENDBRANCH  20  21
ENDBRANCH  15  19
TORSDOF 4
