REMARK  Name = ZINC01773954
REMARK  9 active torsions:
REMARK  status: ('A' for Active; 'I' for Inactive)
REMARK    1  A    between atoms: C_1  and  N_2
REMARK    2  A    between atoms: N_2  and  C_3
REMARK    3  A    between atoms: N_2  and  C_4
REMARK    4  A    between atoms: C_7  and  C_10
REMARK    5  A    between atoms: C_19  and  C_26
REMARK    6  A    between atoms: C_21  and  C_22
REMARK    7  A    between atoms: C_21  and  N_57
REMARK    8  A    between atoms: C_22  and  O_24
REMARK    9  A    between atoms: O_24  and  C_25
REMARK                            x       y       z     vdW  Elec       q    Type
REMARK                         _______ _______ _______ _____ _____    ______ ____
ROOT
ATOM      1  C   UNL     1      -2.627   0.195   1.202  0.00  0.00    +0.049 C 
ATOM      2  N   UNL     1      -3.738  -0.751   1.011  0.00  0.00    -0.353 N 
ATOM      3  C   UNL     1      -4.943  -0.260   0.493  0.00  0.00    +0.028 A 
ATOM      4  C   UNL     1      -6.089  -1.042   0.547  0.00  0.00    +0.024 A 
ATOM      5  C   UNL     1      -7.276  -0.558   0.032  0.00  0.00    +0.017 A 
ATOM      6  C   UNL     1      -7.320   0.703  -0.535  0.00  0.00    +0.018 A 
ATOM      7  C   UNL     1      -6.180   1.483  -0.588  0.00  0.00    +0.019 A 
ATOM      8  C   UNL     1      -4.987   1.006  -0.074  0.00  0.00    -0.035 A 
ATOM      9  C   UNL     1      -3.754   1.868  -0.134  0.00  0.00    -0.001 C 
ATOM     10 BR   UNL     1      -8.946   1.363  -1.240  0.00  0.00    -0.050 Br
ATOM     11  H   UNL     1      -3.638  -1.689   1.239  0.00  0.00    +0.145 HD
ATOM     12  N   UNL     1      -2.545   1.029  -0.019  0.00  0.00    +0.409 N 
ATOM     13  H   UNL     1      -2.485   0.416  -0.840  0.00  0.00    -0.076 HD
ENDROOT
BRANCH   1  17
ATOM     14  C   UNL     1       1.035  -1.952   1.699  0.00  0.00    +0.029 A 
ATOM     15  C   UNL     1       0.547  -1.160   2.730  0.00  0.00    +0.023 A 
ATOM     16  C   UNL     1      -0.637  -0.468   2.566  0.00  0.00    +0.005 A 
ATOM     17  C   UNL     1      -1.336  -0.562   1.377  0.00  0.00    -0.044 A 
ATOM     18  C   UNL     1      -0.856  -1.354   0.350  0.00  0.00    +0.005 A 
ATOM     19  C   UNL     1       0.330  -2.045   0.505  0.00  0.00    +0.023 A 
BRANCH  14  21
ATOM     20  C   UNL     1       2.973  -2.555   3.121  0.00  0.00    +0.129 C 
ATOM     21  N   UNL     1       2.232  -2.654   1.862  0.00  0.00    -0.336 N 
ATOM     22  C   UNL     1       2.745  -3.489   0.773  0.00  0.00    +0.129 C 
ENDBRANCH  14  21
ENDBRANCH   1  17
BRANCH   9  23
ATOM     23  C   UNL     1      -3.717   2.593  -1.455  0.00  0.00    -0.057 A 
ATOM     24  C   UNL     1      -3.251   1.947  -2.585  0.00  0.00    +0.002 A 
ATOM     25  C   UNL     1      -3.220   2.610  -3.797  0.00  0.00    +0.000 A 
ATOM     26  C   UNL     1      -3.648   3.922  -3.878  0.00  0.00    +0.000 A 
ATOM     27  C   UNL     1      -4.109   4.570  -2.748  0.00  0.00    +0.000 A 
ATOM     28  C   UNL     1      -4.144   3.905  -1.536  0.00  0.00    +0.002 A 
ENDBRANCH   9  23
BRANCH  12  29
ATOM     29  C   UNL     1      -1.340   1.883   0.032  0.00  0.00    +0.048 C 
BRANCH  29  30
ATOM     30  C   UNL     1      -1.406   2.819   1.212  0.00  0.00    +0.290 C 
ATOM     31  O   UNL     1      -2.310   2.723   2.009  0.00  0.00    -0.253 OA
BRANCH  30  32
ATOM     32  O   UNL     1      -0.459   3.754   1.381  0.00  0.00    -0.469 OA
ATOM     33  C   UNL     1      -0.643   4.689   2.476  0.00  0.00    +0.280 C 
ENDBRANCH  30  32
ENDBRANCH  29  30
ENDBRANCH  12  29
TORSDOF 6
