REMARK  Name = ZINC16973726
REMARK  5 active torsions:
REMARK  status: ('A' for Active; 'I' for Inactive)
REMARK    1  A    between atoms: C_1  and  C_2
REMARK    2  A    between atoms: C_7  and  N_8
REMARK    3  A    between atoms: N_12  and  N_13
REMARK    4  A    between atoms: N_13  and  C_14
REMARK    5  A    between atoms: N_22  and  C_25
REMARK                            x       y       z     vdW  Elec       q    Type
REMARK                         _______ _______ _______ _____ _____    ______ ____
ROOT
ATOM      1  N   UNL     1       1.473  -1.750   0.157  0.00  0.00    -0.215 N 
ATOM      2  C   UNL     1       1.140  -2.383  -0.986  0.00  0.00    +0.282 C 
ATOM      3  O   UNL     1       1.302  -1.849  -2.067  0.00  0.00    -0.267 OA
ATOM      4  C   UNL     1       0.573  -3.743  -0.890  0.00  0.00    +0.206 C 
ATOM      5  N   UNL     1       0.224  -4.422  -1.966  0.00  0.00    -0.172 NA
ATOM      6  C   UNL     1       0.413  -4.309   0.465  0.00  0.00    +0.282 C 
ATOM      7  O   UNL     1      -0.047  -5.423   0.626  0.00  0.00    -0.267 OA
ATOM      8  N   UNL     1       0.791  -3.555   1.518  0.00  0.00    -0.216 N 
ATOM      9  C   UNL     1       1.304  -2.328   1.354  0.00  0.00    +0.158 C 
ATOM     10  S   UNL     1       1.762  -1.449   2.750  0.00  0.00    -0.017 S 
ENDROOT
BRANCH   1  17
ATOM     11  C   UNL     1       4.299  -1.482  -0.039  0.00  0.00    +0.045 C 
ATOM     12  C   UNL     1       3.387  -0.284  -0.004  0.00  0.00    -0.029 A 
ATOM     13  C   UNL     1       3.916   0.991  -0.068  0.00  0.00    +0.005 A 
ATOM     14  C   UNL     1       3.080   2.091  -0.037  0.00  0.00    +0.000 A 
ATOM     15  C   UNL     1       1.711   1.920   0.058  0.00  0.00    +0.002 A 
ATOM     16  C   UNL     1       1.175   0.649   0.122  0.00  0.00    +0.024 A 
ATOM     17  C   UNL     1       2.013  -0.459   0.091  0.00  0.00    +0.046 A 
ENDBRANCH   1  17
BRANCH   8  18
ATOM     18  C   UNL     1       0.649  -4.070   2.813  0.00  0.00    +0.043 A 
ATOM     19  C   UNL     1       1.700  -4.755   3.409  0.00  0.00    +0.024 A 
ATOM     20  C   UNL     1       1.558  -5.257   4.688  0.00  0.00    +0.002 A 
ATOM     21  C   UNL     1       0.368  -5.088   5.371  0.00  0.00    +0.000 A 
ATOM     22  C   UNL     1      -0.682  -4.411   4.778  0.00  0.00    +0.002 A 
ATOM     23  C   UNL     1      -0.545  -3.902   3.502  0.00  0.00    +0.024 A 
ENDBRANCH   8  18
BRANCH   5  24
ATOM     24  N   UNL     1      -0.181  -5.642  -1.855  0.00  0.00    -0.237 N 
ATOM     25  H   UNL     1      -0.142  -6.090  -0.996  0.00  0.00    +0.174 HD
BRANCH  24  26
ATOM     26  C   UNL     1      -0.675  -6.317  -2.972  0.00  0.00    +0.048 A 
ATOM     27  C   UNL     1      -0.736  -5.675  -4.204  0.00  0.00    +0.025 A 
ATOM     28  C   UNL     1      -1.220  -6.347  -5.308  0.00  0.00    +0.002 A 
ATOM     29  C   UNL     1      -1.654  -7.655  -5.188  0.00  0.00    +0.000 A 
ATOM     30  C   UNL     1      -1.600  -8.296  -3.963  0.00  0.00    +0.002 A 
ATOM     31  C   UNL     1      -1.112  -7.631  -2.855  0.00  0.00    +0.025 A 
ENDBRANCH  24  26
ENDBRANCH   5  24
TORSDOF 4
