REMARK  Name = ZINC25052726
REMARK  11 active torsions:
REMARK  status: ('A' for Active; 'I' for Inactive)
REMARK    1  A    between atoms: C_1  and  C_2
REMARK    2  A    between atoms: C_2  and  N_3
REMARK    3  A    between atoms: N_3  and  C_4
REMARK    4  A    between atoms: C_12  and  C_14
REMARK    5  A    between atoms: C_14  and  C_16
REMARK    6  A    between atoms: C_14  and  O_17
REMARK    7  A    between atoms: O_17  and  C_18
REMARK    8  A    between atoms: C_18  and  C_20
REMARK    9  A    between atoms: C_23  and  S_26
REMARK   10  A    between atoms: S_26  and  N_29
REMARK   11  A    between atoms: N_29  and  C_30
REMARK                            x       y       z     vdW  Elec       q    Type
REMARK                         _______ _______ _______ _____ _____    ______ ____
ROOT
ATOM      1  C   UNL     1       6.871   5.596   1.791  0.00  0.00    +0.340 C 
ATOM      2  O   UNL     1       7.790   5.983   2.485  0.00  0.00    -0.245 OA
ENDROOT
BRANCH   1   3
ATOM      3  C   UNL     1       6.746   4.161   1.465  0.00  0.00    +0.059 A 
ATOM      4  C   UNL     1       7.682   3.246   1.953  0.00  0.00    +0.017 A 
ATOM      5  C   UNL     1       7.559   1.907   1.644  0.00  0.00    +0.029 A 
ATOM      6  C   UNL     1       6.511   1.470   0.853  0.00  0.00    +0.109 A 
ATOM      7  C   UNL     1       5.584   2.371   0.361  0.00  0.00    +0.029 A 
ATOM      8  C   UNL     1       5.691   3.712   0.667  0.00  0.00    +0.017 A 
BRANCH   6   9
ATOM      9  S   UNL     1       6.362  -0.242   0.463  0.00  0.00    +0.072 S 
ATOM     10  O   UNL     1       7.634  -0.827   0.708  0.00  0.00    -0.150 OA
ATOM     11  O   UNL     1       5.721  -0.316  -0.803  0.00  0.00    -0.150 OA
BRANCH   9  12
ATOM     12  N   UNL     1       5.317  -0.905   1.563  0.00  0.00    -0.216 N 
ATOM     13  H   UNL     1       4.375  -1.361   1.222  0.00  0.00    +0.174 HD
BRANCH  12  14
ATOM     14  C   UNL     1       5.630  -0.886   2.924  0.00  0.00    +0.048 A 
ATOM     15  C   UNL     1       4.673  -0.501   3.854  0.00  0.00    +0.024 A 
ATOM     16  C   UNL     1       4.986  -0.483   5.199  0.00  0.00    +0.002 A 
ATOM     17  C   UNL     1       6.252  -0.847   5.620  0.00  0.00    +0.000 A 
ATOM     18  C   UNL     1       7.208  -1.231   4.697  0.00  0.00    +0.002 A 
ATOM     19  C   UNL     1       6.901  -1.251   3.351  0.00  0.00    +0.024 A 
ENDBRANCH  12  14
ENDBRANCH   9  12
ENDBRANCH   6   9
ENDBRANCH   1   3
BRANCH   1  20
ATOM     20  O   UNL     1       5.967   6.476   1.319  0.00  0.00    -0.449 OA
BRANCH  20  21
ATOM     21  C   UNL     1       6.153   7.870   1.679  0.00  0.00    +0.259 C 
ATOM     22  C   UNL     1       7.025   8.557   0.627  0.00  0.00    +0.062 C 
BRANCH  21  24
ATOM     23  N   UNL     1       4.707   9.779   2.299  0.00  0.00    -0.294 N 
ATOM     24  C   UNL     1       4.812   8.555   1.745  0.00  0.00    +0.256 C 
ATOM     25  O   UNL     1       3.827   8.004   1.299  0.00  0.00    -0.272 OA
BRANCH  23  26
ATOM     26  C   UNL     1       3.388  10.392   2.476  0.00  0.00    +0.099 C 
ATOM     27  C   UNL     1       2.711  10.553   1.105  0.00  0.00    +0.046 C 
ATOM     28  C   UNL     1       1.215  10.905   1.342  0.00  0.00    +0.168 C 
ATOM     29  S   UNL     1       0.823   9.781   2.748  0.00  0.00    -0.029 S 
ATOM     30  O   UNL     1       0.308   8.560   2.234  0.00  0.00    -0.174 OA
ATOM     31  O   UNL     1       0.077  10.500   3.721  0.00  0.00    -0.174 OA
ATOM     32  C   UNL     1       2.522   9.491   3.389  0.00  0.00    +0.188 C 
ENDBRANCH  23  26
BRANCH  23  34
ATOM     33  C   UNL     1       6.327  11.485   1.631  0.00  0.00    +0.024 C 
ATOM     34  C   UNL     1       5.911  10.497   2.723  0.00  0.00    +0.105 C 
ENDBRANCH  23  34
ENDBRANCH  21  24
ENDBRANCH  20  21
ENDBRANCH   1  20
TORSDOF 9
