REMARK  Name = ZINC41222864
REMARK  10 active torsions:
REMARK  status: ('A' for Active; 'I' for Inactive)
REMARK    1  A    between atoms: C_1  and  C_2
REMARK    2  A    between atoms: C_3  and  N_11
REMARK    3  A    between atoms: C_7  and  N_8
REMARK    4  A    between atoms: C_12  and  C_14
REMARK    5  A    between atoms: N_16  and  C_17
REMARK    6  A    between atoms: C_17  and  C_19
REMARK    7  A    between atoms: C_17  and  C_20
REMARK    8  A    between atoms: C_20  and  C_21
REMARK    9  A    between atoms: C_21  and  C_22
REMARK   10  A    between atoms: C_25  and  O_28
REMARK                            x       y       z     vdW  Elec       q    Type
REMARK                         _______ _______ _______ _____ _____    ______ ____
ROOT
ATOM      1  C   UNL     1      -1.038   0.241  -4.858  0.00  0.00    +0.300 C 
ATOM      2  O   UNL     1      -1.069   1.454  -4.860  0.00  0.00    -0.265 OA
ATOM      3  N   UNL     1      -1.321  -0.442  -5.985  0.00  0.00    -0.305 N 
ATOM      4  H   UNL     1      -1.296  -1.412  -5.984  0.00  0.00    +0.149 HD
ENDROOT
BRANCH   1   6
ATOM      5  N   UNL     1      -0.405   0.187  -2.480  0.00  0.00    -0.277 N 
ATOM      6  C   UNL     1      -0.688  -0.495  -3.607  0.00  0.00    +0.303 C 
ATOM      7  O   UNL     1      -0.657  -1.709  -3.605  0.00  0.00    -0.265 OA
ATOM      8  H   UNL     1      -0.377   1.157  -2.494  0.00  0.00    +0.155 HD
BRANCH   5  11
ATOM      9  C   UNL     1      -1.254   1.372  -0.036  0.00  0.00    +0.048 C 
ATOM     10  C   UNL     1      -0.550   0.041  -0.074  0.00  0.00    +0.001 A 
ATOM     11  C   UNL     1      -0.152  -0.501  -1.290  0.00  0.00    +0.039 A 
ATOM     12  C   UNL     1       0.496  -1.729  -1.321  0.00  0.00    +0.024 A 
ATOM     13  C   UNL     1       0.744  -2.407  -0.144  0.00  0.00    +0.004 A 
ATOM     14  C   UNL     1       0.347  -1.865   1.065  0.00  0.00    +0.033 A 
ATOM     15  C   UNL     1      -0.294  -0.640   1.099  0.00  0.00    +0.131 A 
BRANCH  15  16
ATOM     16  N   UNL     1      -0.711  -0.061   2.396  0.00  0.00    +0.057 N 
ATOM     17  O   UNL     1      -0.807   1.138   2.520  0.00  0.00    -0.126 OA
ATOM     18  O   UNL     1      -0.957  -0.786   3.332  0.00  0.00    -0.126 OA
ENDBRANCH  15  16
ENDBRANCH   5  11
ENDBRANCH   1   6
BRANCH   3  19
ATOM     19  C   UNL     1      -1.664   0.280  -7.213  0.00  0.00    +0.071 C 
ATOM     20  C   UNL     1      -3.159   0.606  -7.210  0.00  0.00    +0.028 C 
BRANCH  19  21
ATOM     21  C   UNL     1      -1.334  -0.591  -8.426  0.00  0.00    +0.026 C 
BRANCH  21  22
ATOM     22  C   UNL     1       0.178  -0.814  -8.498  0.00  0.00    +0.037 C 
BRANCH  22  23
ATOM     23  C   UNL     1       0.503  -1.672  -9.693  0.00  0.00    -0.047 A 
ATOM     24  C   UNL     1       0.533  -3.049  -9.567  0.00  0.00    +0.007 A 
ATOM     25  C   UNL     1       0.832  -3.837 -10.662  0.00  0.00    +0.045 A 
ATOM     26  C   UNL     1       1.100  -3.247 -11.888  0.00  0.00    +0.117 A 
ATOM     27  C   UNL     1       1.069  -1.865 -12.012  0.00  0.00    +0.045 A 
ATOM     28  C   UNL     1       0.765  -1.081 -10.916  0.00  0.00    +0.007 A 
BRANCH  26  29
ATOM     29  O   UNL     1       1.395  -4.021 -12.966  0.00  0.00    -0.507 OA
ATOM     30  H   UNL     1       0.622  -4.283 -13.484  0.00  0.00    +0.292 HD
ENDBRANCH  26  29
ENDBRANCH  22  23
ENDBRANCH  21  22
ENDBRANCH  19  21
ENDBRANCH   3  19
TORSDOF 8
