REMARK  Name = ZINC17282895
REMARK  5 active torsions:
REMARK  status: ('A' for Active; 'I' for Inactive)
REMARK    1  A    between atoms: C_3  and  N_19
REMARK    2  A    between atoms: C_4  and  N_16
REMARK    3  A    between atoms: C_6  and  S_7
REMARK    4  A    between atoms: S_7  and  N_10
REMARK    5  A    between atoms: C_24  and  N_57
REMARK                            x       y       z     vdW  Elec       q    Type
REMARK                         _______ _______ _______ _____ _____    ______ ____
ROOT
ATOM      1  C   UNL     1      -8.118   4.646  -4.603  0.00  0.00    +0.030 A 
ATOM      2  C   UNL     1      -6.976   4.363  -3.879  0.00  0.00    +0.027 A 
ATOM      3  C   UNL     1      -6.008   5.343  -3.701  0.00  0.00    +0.060 A 
ATOM      4  C   UNL     1      -6.187   6.602  -4.262  0.00  0.00    +0.149 A 
ATOM      5  C   UNL     1      -7.329   6.876  -4.989  0.00  0.00    +0.063 A 
ATOM      6  C   UNL     1      -8.293   5.899  -5.160  0.00  0.00    +0.108 A 
ENDROOT
BRANCH   3   7
ATOM      7  N   UNL     1      -4.855   5.063  -2.965  0.00  0.00    -0.332 N 
ATOM      8  C   UNL     1      -5.191   4.683  -1.585  0.00  0.00    +0.086 C 
ATOM      9  C   UNL     1      -3.901   4.462  -0.792  0.00  0.00    -0.059 C 
ATOM     10  C   UNL     1      -2.766   3.794  -2.823  0.00  0.00    -0.059 C 
ATOM     11  C   UNL     1      -4.056   4.016  -3.617  0.00  0.00    +0.086 C 
ATOM     12  N   UNL     1      -3.117   3.392  -1.445  0.00  0.00    +0.385 N 
ATOM     13  H   UNL     1      -3.685   2.537  -1.482  0.00  0.00    -0.081 HD
BRANCH  12  14
ATOM     14  C   UNL     1      -1.888   3.120  -0.669  0.00  0.00    -0.046 C 
ATOM     15  C   UNL     1      -2.276   2.604   0.726  0.00  0.00    +0.009 C 
ATOM     16  C   UNL     1      -1.037   1.994   1.427  0.00  0.00    +0.164 C 
ATOM     17  S   UNL     1      -0.017   1.417   0.010  0.00  0.00    -0.033 S 
ATOM     18  O   UNL     1       0.002  -0.004   0.002  0.00  0.00    -0.174 OA
ATOM     19  O   UNL     1       1.210   2.133   0.002  0.00  0.00    -0.174 OA
ATOM     20  C   UNL     1      -1.066   2.010  -1.384  0.00  0.00    +0.151 C 
ENDBRANCH  12  14
ENDBRANCH   3   7
BRANCH   6  21
ATOM     21  S   UNL     1      -9.748   6.254  -6.088  0.00  0.00    +0.061 S 
ATOM     22  O   UNL     1     -10.746   5.346  -5.642  0.00  0.00    -0.153 OA
ATOM     23  O   UNL     1      -9.926   7.663  -6.043  0.00  0.00    -0.153 OA
BRANCH  21  24
ATOM     24  N   UNL     1      -9.428   5.867  -7.666  0.00  0.00    -0.172 NA
ATOM     25  C   UNL     1      -8.873   6.866  -8.593  0.00  0.00    +0.137 C 
ATOM     26  C   UNL     1      -7.649   6.246  -9.287  0.00  0.00    +0.177 C 
ATOM     27  O   UNL     1      -8.019   4.989  -9.857  0.00  0.00    -0.377 OA
ATOM     28  C   UNL     1      -8.438   4.013  -8.900  0.00  0.00    +0.177 C 
ATOM     29  C   UNL     1      -9.698   4.516  -8.185  0.00  0.00    +0.137 C 
ENDBRANCH  21  24
ENDBRANCH   6  21
BRANCH   4  30
ATOM     30  N   UNL     1      -5.155   7.647  -4.081  0.00  0.00    +0.058 N 
ATOM     31  O   UNL     1      -5.313   8.750  -4.573  0.00  0.00    -0.126 OA
ATOM     32  O   UNL     1      -4.149   7.404  -3.440  0.00  0.00    -0.126 OA
ENDBRANCH   4  30
TORSDOF 5
