REMARK  Name = ZINC41192116
REMARK  5 active torsions:
REMARK  status: ('A' for Active; 'I' for Inactive)
REMARK    1  A    between atoms: C_1  and  C_2
REMARK    2  A    between atoms: C_2  and  N_3
REMARK    3  A    between atoms: N_3  and  C_4
REMARK    4  A    between atoms: C_4  and  C_6
REMARK    5  A    between atoms: C_4  and  C_14
REMARK                            x       y       z     vdW  Elec       q    Type
REMARK                         _______ _______ _______ _____ _____    ______ ____
ROOT
ATOM      1  C   UNL     1       0.800  -1.955   1.108  0.00  0.00    +0.140 C 
ENDROOT
BRANCH   1   2
ATOM      2  C   UNL     1      -0.587  -2.536   1.013  0.00  0.00    -0.021 A 
ATOM      3  C   UNL     1      -0.932  -3.629   1.785  0.00  0.00    +0.025 A 
ATOM      4  C   UNL     1      -2.206  -4.164   1.697  0.00  0.00    +0.043 A 
ATOM      5  C   UNL     1      -3.133  -3.604   0.837  0.00  0.00    +0.040 A 
ATOM      6  C   UNL     1      -2.787  -2.510   0.065  0.00  0.00    +0.043 A 
ATOM      7  C   UNL     1      -1.515  -1.973   0.157  0.00  0.00    +0.025 A 
ATOM      8 CL   UNL     1      -3.950  -1.807  -1.016  0.00  0.00    -0.083 Cl
ATOM      9 CL   UNL     1      -2.639  -5.537   2.667  0.00  0.00    -0.083 Cl
ENDBRANCH   1   2
BRANCH   1  10
ATOM     10  C   UNL     1       1.587  -2.328  -0.121  0.00  0.00    +0.100 A 
ATOM     11  N   UNL     1       1.492  -1.836  -1.326  0.00  0.00    -0.247 NA
ATOM     12  C   UNL     1       2.261  -2.263  -2.335  0.00  0.00    +0.052 A 
ATOM     13  C   UNL     1       3.136  -3.243  -2.004  0.00  0.00    +0.013 A 
ATOM     14  S   UNL     1       2.808  -3.477  -0.274  0.00  0.00    -0.075 S 
ATOM     15  C   UNL     1       3.961  -3.682  -3.175  0.00  0.00    +0.044 C 
ATOM     16  C   UNL     1       3.204  -3.143  -4.410  0.00  0.00    +0.011 C 
ATOM     17  C   UNL     1       2.441  -1.942  -3.816  0.00  0.00    +0.056 C 
ENDBRANCH   1  10
BRANCH   1  18
ATOM     18  N   UNL     1       0.712  -0.492   1.207  0.00  0.00    -0.304 NA
ATOM     19  H   UNL     1      -0.133  -0.212   1.682  0.00  0.00    +0.123 HD
BRANCH  18  21
ATOM     20  C   UNL     1       1.831   1.591   1.843  0.00  0.00    +0.020 C 
ATOM     21  C   UNL     1       1.898   0.063   1.873  0.00  0.00    +0.078 C 
ENDBRANCH  18  21
ENDBRANCH   1  18
TORSDOF 4
