REMARK  Name = ZINC26464963
REMARK  7 active torsions:
REMARK  status: ('A' for Active; 'I' for Inactive)
REMARK    1  A    between atoms: C_1  and  O_2
REMARK    2  A    between atoms: O_2  and  C_3
REMARK    3  A    between atoms: C_6  and  C_10
REMARK    4  A    between atoms: N_11  and  N_12
REMARK    5  A    between atoms: C_17  and  C_20
REMARK    6  A    between atoms: C_20  and  C_21
REMARK    7  A    between atoms: N_23  and  C_24
REMARK                            x       y       z     vdW  Elec       q    Type
REMARK                         _______ _______ _______ _____ _____    ______ ____
ROOT
ATOM      1  N   UNL     1      -0.265   9.012   2.637  0.00  0.00    -0.127 NA
ATOM      2  C   UNL     1       0.671   9.679   3.280  0.00  0.00    +0.183 C 
ATOM      3  N   UNL     1       1.820   9.187   3.861  0.00  0.00    -0.263 N 
ATOM      4  C   UNL     1       2.691   9.967   4.478  0.00  0.00    +0.233 C 
ATOM      5  O   UNL     1       3.703   9.530   4.984  0.00  0.00    -0.274 OA
ATOM      6  C   UNL     1       2.340  11.445   4.521  0.00  0.00    +0.149 C 
ATOM      7  S   UNL     1       0.746  11.433   3.610  0.00  0.00    -0.075 S 
ATOM      8  H   UNL     1       2.039   8.109   3.821  0.00  0.00    +0.157 HD
ENDROOT
BRANCH   1  10
ATOM      9  C   UNL     1      -1.087   7.074   1.850  0.00  0.00    +0.143 C 
ATOM     10  N   UNL     1      -0.160   7.735   2.487  0.00  0.00    -0.155 NA
BRANCH   9  14
ATOM     11  C   UNL     1      -0.741   2.872   1.358  0.00  0.00    +0.157 A 
ATOM     12  C   UNL     1       0.245   3.573   2.042  0.00  0.00    +0.085 A 
ATOM     13  C   UNL     1       0.140   4.939   2.199  0.00  0.00    +0.033 A 
ATOM     14  C   UNL     1      -0.968   5.617   1.680  0.00  0.00    -0.002 A 
ATOM     15  C   UNL     1      -1.960   4.907   0.997  0.00  0.00    +0.033 A 
ATOM     16  C   UNL     1      -1.843   3.542   0.840  0.00  0.00    +0.085 A 
ATOM     17 CL   UNL     1      -3.075   2.658  -0.007  0.00  0.00    -0.080 Cl
ATOM     18 CL   UNL     1       1.614   2.729   2.694  0.00  0.00    -0.080 Cl
BRANCH  11  20
ATOM     19  C   UNL     1       0.047   1.064   0.031  0.00  0.00    +0.277 C 
ATOM     20  O   UNL     1      -0.631   1.527   1.201  0.00  0.00    -0.492 OA
ENDBRANCH  11  20
ENDBRANCH   9  14
ENDBRANCH   1  10
BRANCH   6  21
ATOM     21  C   UNL     1       3.390  12.285   3.790  0.00  0.00    +0.120 C 
BRANCH  21  22
ATOM     22  C   UNL     1       2.972  13.733   3.801  0.00  0.00    +0.219 C 
ATOM     23  O   UNL     1       1.937  14.061   4.341  0.00  0.00    -0.275 OA
ATOM     24  N   UNL     1       3.749  14.663   3.212  0.00  0.00    -0.285 N 
ATOM     25  H   UNL     1       4.723  14.378   2.789  0.00  0.00    +0.155 HD
BRANCH  24  26
ATOM     26  C   UNL     1       3.315  15.992   3.138  0.00  0.00    +0.033 A 
ATOM     27  C   UNL     1       3.633  16.766   2.030  0.00  0.00    +0.023 A 
ATOM     28  C   UNL     1       3.199  18.075   1.957  0.00  0.00    +0.002 A 
ATOM     29  C   UNL     1       2.459  18.618   2.991  0.00  0.00    +0.000 A 
ATOM     30  C   UNL     1       2.146  17.852   4.098  0.00  0.00    +0.002 A 
ATOM     31  C   UNL     1       2.572  16.540   4.174  0.00  0.00    +0.023 A 
ENDBRANCH  24  26
ENDBRANCH  21  22
ENDBRANCH   6  21
TORSDOF 6
