REMARK  Name = ZINC12498026
REMARK  9 active torsions:
REMARK  status: ('A' for Active; 'I' for Inactive)
REMARK    1  A    between atoms: C_1  and  N_2
REMARK    2  A    between atoms: N_2  and  C_3
REMARK    3  A    between atoms: N_2  and  C_4
REMARK    4  A    between atoms: C_7  and  C_10
REMARK    5  A    between atoms: N_18  and  C_21
REMARK    6  A    between atoms: C_31  and  C_32
REMARK    7  A    between atoms: C_31  and  C_38
REMARK    8  A    between atoms: C_38  and  O_40
REMARK    9  A    between atoms: O_40  and  C_41
REMARK                            x       y       z     vdW  Elec       q    Type
REMARK                         _______ _______ _______ _____ _____    ______ ____
ROOT
ATOM      1  C   UNL     1       2.452   3.935  -0.000  0.00  0.00    -0.026 C 
ATOM      2  C   UNL     1       2.802   4.412   1.389  0.00  0.00    +0.078 C 
ATOM      3  C   UNL     1       3.878   5.494   0.981  0.00  0.00    +0.090 C 
ATOM      4  C   UNL     1       4.409   5.815   2.307  0.00  0.00    +0.229 C 
ATOM      5  O   UNL     1       4.786   6.898   2.701  0.00  0.00    -0.275 OA
ATOM      6  N   UNL     1       4.373   4.636   3.008  0.00  0.00    -0.210 N 
ATOM      7  C   UNL     1       3.610   3.680   2.391  0.00  0.00    +0.229 C 
ATOM      8  O   UNL     1       3.598   2.489   2.617  0.00  0.00    -0.275 OA
ATOM      9  C   UNL     1       3.139   6.255  -0.059  0.00  0.00    +0.070 C 
ATOM     10  N   UNL     1       2.311   5.222  -0.745  0.00  0.00    +0.398 N 
ATOM     11  H   UNL     1       1.327   5.514  -0.750  0.00  0.00    -0.083 HD
ATOM     12  H   UNL     1       2.637   5.102  -1.711  0.00  0.00    -0.083 HD
ENDROOT
BRANCH   6  13
ATOM     13  C   UNL     1       5.045   4.431   4.223  0.00  0.00    +0.048 A 
ATOM     14  C   UNL     1       5.799   5.455   4.780  0.00  0.00    +0.028 A 
ATOM     15  C   UNL     1       6.462   5.254   5.975  0.00  0.00    +0.051 A 
ATOM     16  C   UNL     1       6.376   4.030   6.622  0.00  0.00    +0.162 A 
ATOM     17  C   UNL     1       5.620   3.004   6.068  0.00  0.00    +0.164 A 
ATOM     18  C   UNL     1       4.952   3.208   4.870  0.00  0.00    +0.073 A 
ATOM     19  O   UNL     1       5.521   1.797   6.690  0.00  0.00    -0.485 OA
ATOM     20  C   UNL     1       6.500   1.508   7.694  0.00  0.00    +0.270 C 
ATOM     21  C   UNL     1       6.632   2.738   8.603  0.00  0.00    +0.270 C 
ATOM     22  O   UNL     1       7.040   3.849   7.797  0.00  0.00    -0.485 OA
ENDBRANCH   6  13
BRANCH   1  26
ATOM     23  C   UNL     1      -1.224   1.755   0.017  0.00  0.00    +0.029 A 
ATOM     24  C   UNL     1      -0.013   1.076   0.008  0.00  0.00    +0.023 A 
ATOM     25  C   UNL     1       1.173   1.783   0.000  0.00  0.00    +0.004 A 
ATOM     26  C   UNL     1       1.156   3.166   0.008  0.00  0.00    -0.060 A 
ATOM     27  C   UNL     1      -0.049   3.845   0.024  0.00  0.00    +0.004 A 
ATOM     28  C   UNL     1      -1.239   3.144   0.031  0.00  0.00    +0.023 A 
BRANCH  23  30
ATOM     29  C   UNL     1      -2.409  -0.422   0.011  0.00  0.00    +0.129 C 
ATOM     30  N   UNL     1      -2.426   1.042   0.019  0.00  0.00    -0.336 N 
ATOM     31  C   UNL     1      -3.703   1.760   0.029  0.00  0.00    +0.129 C 
ENDBRANCH  23  30
ENDBRANCH   1  26
BRANCH   9  32
ATOM     32  C   UNL     1       4.102   6.894  -1.026  0.00  0.00    -0.047 A 
ATOM     33  C   UNL     1       5.359   7.279  -0.598  0.00  0.00    +0.003 A 
ATOM     34  C   UNL     1       6.243   7.861  -1.486  0.00  0.00    +0.000 A 
ATOM     35  C   UNL     1       5.868   8.066  -2.801  0.00  0.00    +0.000 A 
ATOM     36  C   UNL     1       4.609   7.686  -3.228  0.00  0.00    +0.000 A 
ATOM     37  C   UNL     1       3.726   7.100  -2.340  0.00  0.00    +0.003 A 
ENDBRANCH   9  32
BRANCH   9  38
ATOM     38  C   UNL     1       2.261   7.301   0.579  0.00  0.00    +0.301 C 
ATOM     39  O   UNL     1       2.539   7.738   1.671  0.00  0.00    -0.252 OA
BRANCH  38  40
ATOM     40  O   UNL     1       1.171   7.746  -0.065  0.00  0.00    -0.469 OA
ATOM     41  C   UNL     1       0.372   8.753   0.609  0.00  0.00    +0.280 C 
ENDBRANCH  38  40
ENDBRANCH   9  38
TORSDOF 6
