REMARK  Name = ZINC07977425
REMARK  11 active torsions:
REMARK  status: ('A' for Active; 'I' for Inactive)
REMARK    1  A    between atoms: C_1  and  C_2
REMARK    2  A    between atoms: C_8  and  N_10
REMARK    3  A    between atoms: C_11  and  C_13
REMARK    4  A    between atoms: C_13  and  C_15
REMARK    5  A    between atoms: C_13  and  N_16
REMARK    6  A    between atoms: N_16  and  C_17
REMARK    7  A    between atoms: N_16  and  C_18
REMARK    8  A    between atoms: C_18  and  C_19
REMARK    9  A    between atoms: N_21  and  C_22
REMARK   10  A    between atoms: C_27  and  S_28
REMARK   11  A    between atoms: S_28  and  C_29
REMARK                            x       y       z     vdW  Elec       q    Type
REMARK                         _______ _______ _______ _____ _____    ______ ____
ROOT
ATOM      1  N   UNL     1       1.097   0.323   5.825  0.00  0.00    +0.391 N 
ATOM      2  C   UNL     1       0.383   0.498   7.097  0.00  0.00    -0.094 C 
ATOM      3  H   UNL     1       1.534  -0.586   5.807  0.00  0.00    -0.080 HD
ENDROOT
BRANCH   1   4
ATOM      4  C   UNL     1       0.145   0.431   4.711  0.00  0.00    +0.016 C 
ATOM      5  C   UNL     1      -0.952  -0.623   4.873  0.00  0.00    -0.004 C 
BRANCH   4   7
ATOM      6  N   UNL     1       0.429   0.800   2.282  0.00  0.00    -0.314 N 
ATOM      7  C   UNL     1       0.869   0.206   3.409  0.00  0.00    +0.199 C 
ATOM      8  O   UNL     1       1.847  -0.510   3.374  0.00  0.00    -0.278 OA
ATOM      9  H   UNL     1      -0.353   1.373   2.309  0.00  0.00    +0.149 HD
BRANCH   6  16
ATOM     10  C   UNL     1       1.392   3.050   0.733  0.00  0.00    +0.009 C 
ATOM     11  C   UNL     1       0.880   1.765   0.080  0.00  0.00    +0.006 C 
ATOM     12  C   UNL     1      -0.622   1.892  -0.186  0.00  0.00    +0.005 C 
ATOM     13  C   UNL     1      -1.134   0.607  -0.839  0.00  0.00    +0.000 C 
ATOM     14  C   UNL     1      -0.881  -0.577   0.096  0.00  0.00    +0.002 C 
ATOM     15  C   UNL     1       0.621  -0.704   0.363  0.00  0.00    +0.022 C 
ATOM     16  C   UNL     1       1.133   0.582   1.016  0.00  0.00    +0.076 C 
ENDBRANCH   6  16
ENDBRANCH   4   7
ENDBRANCH   1   4
BRANCH   1  17
ATOM     17  C   UNL     1       2.125   1.363   5.693  0.00  0.00    +0.020 C 
BRANCH  17  18
ATOM     18  C   UNL     1       3.190   1.153   6.739  0.00  0.00    +0.201 C 
ATOM     19  O   UNL     1       3.100   0.227   7.518  0.00  0.00    -0.278 OA
ATOM     20  N   UNL     1       4.241   1.993   6.809  0.00  0.00    -0.286 N 
ATOM     21  H   UNL     1       4.345   2.696   6.149  0.00  0.00    +0.155 HD
BRANCH  20  22
ATOM     22  C   UNL     1       5.184   1.851   7.836  0.00  0.00    +0.047 A 
ATOM     23  C   UNL     1       5.421   0.605   8.395  0.00  0.00    +0.024 A 
ATOM     24  C   UNL     1       6.352   0.467   9.408  0.00  0.00    +0.002 A 
ATOM     25  C   UNL     1       7.049   1.570   9.867  0.00  0.00    +0.001 A 
ATOM     26  C   UNL     1       6.820   2.816   9.316  0.00  0.00    +0.016 A 
ATOM     27  C   UNL     1       5.891   2.963   8.295  0.00  0.00    +0.029 A 
BRANCH  27  28
ATOM     28  S   UNL     1       5.601   4.549   7.585  0.00  0.00    -0.127 S 
ATOM     29  C   UNL     1       6.728   5.647   8.488  0.00  0.00    +0.090 C 
ENDBRANCH  27  28
ENDBRANCH  20  22
ENDBRANCH  17  18
ENDBRANCH   1  17
TORSDOF 7
