REMARK  Name = ZINC39988324
REMARK  5 active torsions:
REMARK  status: ('A' for Active; 'I' for Inactive)
REMARK    1  A    between atoms: C_1  and  C_2
REMARK    2  A    between atoms: C_7  and  C_8
REMARK    3  A    between atoms: C_13  and  C_14
REMARK    4  A    between atoms: N_16  and  C_17
REMARK    5  A    between atoms: C_22  and  N_23
REMARK                            x       y       z     vdW  Elec       q    Type
REMARK                         _______ _______ _______ _____ _____    ______ ____
ROOT
ATOM      1  C   UNL     1      -0.428   0.696   0.968  0.00  0.00    +0.044 C 
ATOM      2  C   UNL     1      -0.592  -0.732   0.513  0.00  0.00    -0.046 A 
ATOM      3  C   UNL     1      -0.214  -1.096  -0.765  0.00  0.00    +0.028 A 
ATOM      4  C   UNL     1      -0.365  -2.409  -1.181  0.00  0.00    +0.053 A 
ATOM      5  C   UNL     1      -0.899  -3.364  -0.311  0.00  0.00    +0.055 A 
ATOM      6  C   UNL     1      -1.275  -2.986   0.971  0.00  0.00    +0.028 A 
ATOM      7  C   UNL     1      -1.115  -1.676   1.379  0.00  0.00    -0.046 A 
ATOM      8  C   UNL     1      -1.518  -1.272   2.774  0.00  0.00    +0.044 C 
ATOM      9  N   UNL     1      -1.056  -4.687  -0.724  0.00  0.00    -0.279 N 
ATOM     10  C   UNL     1      -0.467  -5.114  -1.864  0.00  0.00    +0.263 C 
ATOM     11  O   UNL     1      -0.586  -6.265  -2.236  0.00  0.00    -0.268 OA
ATOM     12  C   UNL     1       0.333  -4.133  -2.651  0.00  0.00    +0.099 C 
ATOM     13  C   UNL     1       1.319  -4.528  -3.498  0.00  0.00    +0.096 C 
ATOM     14  N   UNL     1       0.015  -2.793  -2.472  0.00  0.00    -0.309 N 
ATOM     15  H   UNL     1      -1.587  -5.301  -0.194  0.00  0.00    +0.155 HD
ATOM     16  H   UNL     1       0.054  -2.157  -3.204  0.00  0.00    +0.152 HD
ENDROOT
BRANCH  13  17
ATOM     17  C   UNL     1       1.875  -5.827  -3.382  0.00  0.00    +0.243 C 
ATOM     18  O   UNL     1       1.563  -6.542  -2.447  0.00  0.00    -0.270 OA
ATOM     19  N   UNL     1       2.749  -6.271  -4.307  0.00  0.00    -0.280 N 
ATOM     20  H   UNL     1       3.040  -5.683  -5.021  0.00  0.00    +0.155 HD
BRANCH  19  21
ATOM     21  C   UNL     1       3.237  -7.580  -4.236  0.00  0.00    +0.064 A 
ATOM     22  C   UNL     1       3.601  -8.121  -3.010  0.00  0.00    +0.027 A 
ATOM     23  C   UNL     1       4.083  -9.414  -2.943  0.00  0.00    +0.022 A 
ATOM     24  C   UNL     1       4.204 -10.169  -4.097  0.00  0.00    +0.043 A 
ATOM     25  C   UNL     1       3.842  -9.632  -5.319  0.00  0.00    +0.054 A 
ATOM     26  C   UNL     1       3.354  -8.342  -5.391  0.00  0.00    +0.149 A 
ATOM     27 CL   UNL     1       4.810 -11.794  -4.009  0.00  0.00    -0.083 Cl
BRANCH  26  28
ATOM     28  N   UNL     1       2.961  -7.770  -6.699  0.00  0.00    +0.058 N 
ATOM     29  O   UNL     1       3.007  -8.453  -7.696  0.00  0.00    -0.126 OA
ATOM     30  O   UNL     1       2.593  -6.621  -6.770  0.00  0.00    -0.126 OA
ENDBRANCH  26  28
ENDBRANCH  19  21
ENDBRANCH  13  17
TORSDOF 3
