REMARK  Name = ZINC62963998
REMARK  8 active torsions:
REMARK  status: ('A' for Active; 'I' for Inactive)
REMARK    1  A    between atoms: C_1  and  C_2
REMARK    2  A    between atoms: C_2  and  C_4
REMARK    3  A    between atoms: C_2  and  N_21
REMARK    4  A    between atoms: C_4  and  C_6
REMARK    5  A    between atoms: C_4  and  N_12
REMARK    6  A    between atoms: C_15  and  N_18
REMARK    7  A    between atoms: N_18  and  C_19
REMARK    8  A    between atoms: N_18  and  C_20
REMARK                            x       y       z     vdW  Elec       q    Type
REMARK                         _______ _______ _______ _____ _____    ______ ____
ROOT
ATOM      1  C   UNL     1       0.877  -0.418   1.632  0.00  0.00    +0.079 C 
ENDROOT
BRANCH   1   2
ATOM      2  C   UNL     1      -0.513  -0.088   1.153  0.00  0.00    +0.006 A 
ATOM      3  C   UNL     1      -1.277   0.996   1.434  0.00  0.00    +0.028 A 
ATOM      4  C   UNL     1      -2.539   1.090   0.875  0.00  0.00    +0.025 A 
ATOM      5  C   UNL     1      -2.974   0.094   0.064  0.00  0.00    +0.060 A 
ATOM      6  S   UNL     1      -1.578  -1.019   0.064  0.00  0.00    -0.099 S 
ATOM      7 BR   UNL     1      -3.641   2.583   1.238  0.00  0.00    -0.050 Br
ENDBRANCH   1   2
BRANCH   1   8
ATOM      8  N   UNL     1       0.923  -1.818   2.075  0.00  0.00    -0.298 NA
ATOM      9  C   UNL     1      -0.255  -2.148   2.918  0.00  0.00    +0.083 C 
ATOM     10  C   UNL     1       0.179  -3.393   3.722  0.00  0.00    +0.001 C 
ATOM     11  C   UNL     1       1.720  -3.332   3.753  0.00  0.00    -0.054 C 
ATOM     12  C   UNL     1       2.088  -2.057   2.965  0.00  0.00    +0.070 C 
BRANCH  11  13
ATOM     13  N   UNL     1       2.199  -3.235   5.138  0.00  0.00    +0.379 N 
ATOM     14  C   UNL     1       1.780  -4.427   5.886  0.00  0.00    -0.096 C 
ATOM     15  C   UNL     1       3.666  -3.144   5.144  0.00  0.00    -0.096 C 
ATOM     16  H   UNL     1       1.809  -2.411   5.572  0.00  0.00    -0.082 HD
ENDBRANCH  11  13
ENDBRANCH   1   8
BRANCH   1  18
ATOM     17  C   UNL     1       1.870   1.259   0.068  0.00  0.00    -0.012 C 
ATOM     18  C   UNL     1       1.872  -0.212   0.488  0.00  0.00    -0.056 C 
BRANCH  18  19
ATOM     19  N   UNL     1       3.219  -0.591   0.936  0.00  0.00    +0.381 N 
ATOM     20  H   UNL     1       3.384  -0.218   1.859  0.00  0.00    -0.090 HD
ATOM     21  H   UNL     1       3.294  -1.597   0.962  0.00  0.00    -0.090 HD
ATOM     22  H   UNL     1       3.904  -0.219   0.296  0.00  0.00    -0.090 HD
ENDBRANCH  18  19
ENDBRANCH   1  18
TORSDOF 5
