REMARK  Name = ZINC01191162
REMARK  4 active torsions:
REMARK  status: ('A' for Active; 'I' for Inactive)
REMARK    1  A    between atoms: C_1  and  C_2
REMARK    2  A    between atoms: C_2  and  S_3
REMARK    3  A    between atoms: S_3  and  C_4
REMARK    4  A    between atoms: C_17  and  C_20
REMARK                            x       y       z     vdW  Elec       q    Type
REMARK                         _______ _______ _______ _____ _____    ______ ____
ROOT
ATOM      1  C   UNL     1       1.100  -6.104   2.094  0.00  0.00    +0.212 A 
ATOM      2  N   UNL     1       0.735  -4.837   1.916  0.00  0.00    -0.184 NA
ATOM      3  C   UNL     1       1.632  -3.958   1.503  0.00  0.00    +0.248 A 
ATOM      4  C   UNL     1       2.953  -4.399   1.259  0.00  0.00    +0.156 A 
ATOM      5  N   UNL     1       3.251  -5.673   1.458  0.00  0.00    -0.141 NA
ATOM      6  N   UNL     1       2.347  -6.496   1.864  0.00  0.00    -0.122 NA
ATOM      7  C   UNL     1       3.968  -3.434   0.787  0.00  0.00    +0.028 A 
ATOM      8  C   UNL     1       5.233  -3.372   1.359  0.00  0.00    +0.012 A 
ATOM      9  C   UNL     1       6.165  -2.478   0.868  0.00  0.00    +0.001 A 
ATOM     10  C   UNL     1       5.846  -1.644  -0.190  0.00  0.00    +0.002 A 
ATOM     11  C   UNL     1       4.589  -1.691  -0.764  0.00  0.00    +0.024 A 
ATOM     12  C   UNL     1       3.644  -2.577  -0.280  0.00  0.00    +0.039 A 
ATOM     13  N   UNL     1       2.358  -2.641  -0.827  0.00  0.00    -0.305 N 
ATOM     14  C   UNL     1       1.229  -2.185  -0.022  0.00  0.00    +0.294 C 
ATOM     15  O   UNL     1       1.311  -2.656   1.319  0.00  0.00    -0.449 OA
ATOM     16  H   UNL     1       2.219  -2.982  -1.724  0.00  0.00    +0.150 HD
ENDROOT
BRANCH  14  17
ATOM     17  C   UNL     1       1.208  -0.678  -0.013  0.00  0.00    +0.012 A 
ATOM     18  C   UNL     1       0.878   0.002   1.145  0.00  0.00    +0.009 A 
ATOM     19  C   UNL     1       0.859   1.384   1.153  0.00  0.00    +0.002 A 
ATOM     20  C   UNL     1       1.171   2.087   0.004  0.00  0.00    +0.015 A 
ATOM     21  C   UNL     1       1.502   1.407  -1.154  0.00  0.00    +0.018 A 
ATOM     22  C   UNL     1       1.520   0.023  -1.162  0.00  0.00    +0.024 A 
ATOM     23 BR   UNL     1       1.936   2.368  -2.723  0.00  0.00    -0.050 Br
ENDBRANCH  14  17
BRANCH   1  24
ATOM     24  S   UNL     1      -0.091  -7.280   2.644  0.00  0.00    -0.085 S 
BRANCH  24  26
ATOM     25  C   UNL     1       0.094  -9.955   3.167  0.00  0.00    +0.016 C 
ATOM     26  C   UNL     1       0.939  -8.767   2.702  0.00  0.00    +0.074 C 
ENDBRANCH  24  26
ENDBRANCH   1  24
TORSDOF 3
