REMARK  Name = ZINC09641437
REMARK  11 active torsions:
REMARK  status: ('A' for Active; 'I' for Inactive)
REMARK    1  A    between atoms: C_1  and  C_2
REMARK    2  A    between atoms: C_5  and  C_34
REMARK    3  A    between atoms: N_8  and  C_10
REMARK    4  A    between atoms: C_12  and  N_27
REMARK    5  A    between atoms: N_27  and  C_28
REMARK    6  A    between atoms: C_28  and  C_29
REMARK    7  A    between atoms: C_29  and  N_65
REMARK    8  A    between atoms: C_30  and  N_65
REMARK    9  A    between atoms: C_31  and  C_32
REMARK   10  A    between atoms: C_31  and  N_65
REMARK   11  A    between atoms: C_32  and  O_33
REMARK                            x       y       z     vdW  Elec       q    Type
REMARK                         _______ _______ _______ _____ _____    ______ ____
ROOT
ATOM      1  C   UNL     1       2.122   8.180   0.021  0.00  0.00    +0.061 A 
ATOM      2  C   UNL     1       3.351   7.552  -0.004  0.00  0.00    +0.049 A 
ATOM      3  C   UNL     1       3.542   6.165  -0.017  0.00  0.00    +0.041 A 
ATOM      4  C   UNL     1       2.432   5.306  -0.002  0.00  0.00    +0.056 A 
ATOM      5  C   UNL     1       1.134   5.925   0.021  0.00  0.00    +0.063 A 
ATOM      6  C   UNL     1       0.901   7.364   0.035  0.00  0.00    +0.136 A 
ATOM      7  N   UNL     1      -0.400   7.443   0.057  0.00  0.00    -0.076 NA
ATOM      8  O   UNL     1      -0.950   6.344   0.057  0.00  0.00    -0.353 OA
ATOM      9  C   UNL     1      -0.095   5.315   0.036  0.00  0.00    +0.176 A 
ATOM     10  C   UNL     1      -0.074   3.853   0.025  0.00  0.00    +0.031 A 
ATOM     11  C   UNL     1      -1.265   3.122   0.032  0.00  0.00    +0.012 A 
ATOM     12  C   UNL     1      -1.229   1.746   0.017  0.00  0.00    +0.001 A 
ATOM     13  C   UNL     1      -0.013   1.076   0.008  0.00  0.00    +0.001 A 
ATOM     14  C   UNL     1       1.173   1.772   0.000  0.00  0.00    +0.012 A 
ATOM     15  C   UNL     1       1.168   3.172   0.007  0.00  0.00    +0.033 A 
ATOM     16  C   UNL     1       2.460   3.893  -0.008  0.00  0.00    +0.196 C 
ATOM     17  O   UNL     1       3.518   3.285  -0.026  0.00  0.00    -0.287 OA
ENDROOT
BRANCH   1  23
ATOM     18  C   UNL     1       0.844  11.920  -1.168  0.00  0.00    +0.009 C 
ATOM     19  C   UNL     1       2.347  11.639  -1.223  0.00  0.00    +0.003 C 
ATOM     20  C   UNL     1       3.030  12.270  -0.006  0.00  0.00    +0.009 C 
ATOM     21  C   UNL     1       2.481  11.625   1.269  0.00  0.00    +0.003 C 
ATOM     22  C   UNL     1       2.715  10.114   1.212  0.00  0.00    +0.108 C 
ATOM     23  N   UNL     1       2.041   9.557   0.032  0.00  0.00    -0.328 N 
ATOM     24  C   UNL     1       2.585  10.127  -1.207  0.00  0.00    +0.108 C 
ATOM     25  C   UNL     1       3.201  12.208   2.487  0.00  0.00    +0.009 C 
ENDBRANCH   1  23
BRANCH   3  26
ATOM     26  N   UNL     1       4.818   5.643  -0.043  0.00  0.00    -0.345 N 
ATOM     27  H   UNL     1       4.949   4.682  -0.052  0.00  0.00    +0.146 HD
BRANCH  26  28
ATOM     28  C   UNL     1       5.976   6.541  -0.059  0.00  0.00    +0.083 C 
BRANCH  28  29
ATOM     29  C   UNL     1       7.263   5.713  -0.088  0.00  0.00    -0.060 C 
BRANCH  29  31
ATOM     30  C   UNL     1       8.476   7.384  -1.352  0.00  0.00    -0.096 C 
ATOM     31  N   UNL     1       8.421   6.631  -0.081  0.00  0.00    +0.380 N 
ATOM     32  H   UNL     1       8.316   7.295   0.695  0.00  0.00    -0.082 HD
BRANCH  31  33
ATOM     33  C   UNL     1       9.671   5.866   0.108  0.00  0.00    -0.051 C 
BRANCH  33  34
ATOM     34  C   UNL     1      10.822   6.849   0.335  0.00  0.00    +0.137 C 
BRANCH  34  35
ATOM     35  O   UNL     1      10.602   7.567   1.550  0.00  0.00    -0.397 OA
ATOM     36  H   UNL     1      11.294   8.210   1.758  0.00  0.00    +0.209 HD
ENDBRANCH  34  35
ENDBRANCH  33  34
ENDBRANCH  31  33
ENDBRANCH  29  31
ENDBRANCH  28  29
ENDBRANCH  26  28
ENDBRANCH   3  26
TORSDOF 8
