REMARK  Name = ZINC04966081
REMARK  5 active torsions:
REMARK  status: ('A' for Active; 'I' for Inactive)
REMARK    1  A    between atoms: C_1  and  C_2
REMARK    2  A    between atoms: C_4  and  C_26
REMARK    3  A    between atoms: C_11  and  C_14
REMARK    4  A    between atoms: N_16  and  C_17
REMARK    5  A    between atoms: C_23  and  C_25
REMARK                            x       y       z     vdW  Elec       q    Type
REMARK                         _______ _______ _______ _____ _____    ______ ____
ROOT
ATOM      1  C   UNL     1      10.103  -2.609  -8.258  0.00  0.00    +0.066 C 
ATOM      2  C   UNL     1       8.993  -3.393  -7.609  0.00  0.00    +0.044 A 
ATOM      3  C   UNL     1       8.690  -4.673  -8.046  0.00  0.00    +0.046 A 
ATOM      4  C   UNL     1       7.661  -5.361  -7.421  0.00  0.00    +0.044 A 
ATOM      5  N   UNL     1       7.003  -4.778  -6.433  0.00  0.00    -0.220 NA
ATOM      6  C   UNL     1       7.317  -3.553  -6.039  0.00  0.00    +0.218 A 
ATOM      7  N   UNL     1       8.292  -2.867  -6.618  0.00  0.00    -0.220 NA
ATOM      8  N   UNL     1       6.608  -2.973  -5.002  0.00  0.00    -0.300 N 
ATOM      9  C   UNL     1       7.104  -1.621  -4.715  0.00  0.00    +0.108 C 
ATOM     10  C   UNL     1       6.398  -1.070  -3.474  0.00  0.00    +0.032 C 
ATOM     11  C   UNL     1       4.888  -1.037  -3.724  0.00  0.00    +0.078 C 
ATOM     12  C   UNL     1       4.404  -2.449  -4.068  0.00  0.00    +0.032 C 
ATOM     13  C   UNL     1       5.168  -2.960  -5.292  0.00  0.00    +0.108 C 
ATOM     14  C   UNL     1       7.296  -6.755  -7.863  0.00  0.00    +0.066 C 
ENDROOT
BRANCH  11  15
ATOM     15  C   UNL     1       4.183  -0.551  -2.485  0.00  0.00    +0.216 C 
ATOM     16  O   UNL     1       4.824  -0.259  -1.497  0.00  0.00    -0.276 OA
ATOM     17  N   UNL     1       2.839  -0.440  -2.473  0.00  0.00    -0.312 N 
ATOM     18  H   UNL     1       2.327  -0.674  -3.263  0.00  0.00    +0.149 HD
BRANCH  17  19
ATOM     19  C   UNL     1       2.154   0.032  -1.268  0.00  0.00    +0.076 C 
ATOM     20  C   UNL     1       2.133   1.562  -1.259  0.00  0.00    +0.022 C 
ATOM     21  C   UNL     1       1.417   2.055  -0.000  0.00  0.00    +0.002 C 
ATOM     22  C   UNL     1      -0.019   1.526   0.010  0.00  0.00    +0.000 C 
ATOM     23  C   UNL     1       0.002  -0.004   0.002  0.00  0.00    +0.005 C 
ATOM     24  C   UNL     1       0.718  -0.497  -1.257  0.00  0.00    +0.006 C 
ATOM     25  C   UNL     1       0.739  -2.027  -1.265  0.00  0.00    +0.009 C 
ENDBRANCH  17  19
ENDBRANCH  11  15
TORSDOF 2
