REMARK  Name = ZINC13950207
REMARK  4 active torsions:
REMARK  status: ('A' for Active; 'I' for Inactive)
REMARK    1  A    between atoms: C_1  and  C_2
REMARK    2  A    between atoms: C_2  and  C_4
REMARK    3  A    between atoms: C_2  and  N_10
REMARK    4  A    between atoms: C_11  and  C_17
REMARK                            x       y       z     vdW  Elec       q    Type
REMARK                         _______ _______ _______ _____ _____    ______ ____
ROOT
ATOM      1  N   UNL     1       1.807   2.267  -0.166  0.00  0.00    -0.296 N 
ATOM      2  C   UNL     1       1.955   3.458   0.516  0.00  0.00    +0.164 A 
ATOM      3  N   UNL     1       2.439   4.348  -0.304  0.00  0.00    -0.153 NA
ATOM      4  N   UNL     1       2.616   3.737  -1.553  0.00  0.00    -0.254 N 
ATOM      5  H   UNL     1       3.014   4.318  -2.398  0.00  0.00    +0.191 HD
ATOM      6  C   UNL     1       2.223   2.452  -1.435  0.00  0.00    +0.176 A 
ATOM      7  S   UNL     1       2.243   1.271  -2.674  0.00  0.00    -0.011 S 
ENDROOT
BRANCH   2   8
ATOM      8  C   UNL     1       1.620   3.685   1.939  0.00  0.00    +0.030 A 
ATOM      9  C   UNL     1       0.470   3.171   2.466  0.00  0.00    +0.057 A 
ATOM     10  S   UNL     1       0.563   3.725   4.162  0.00  0.00    -0.101 S 
ATOM     11  C   UNL     1       2.101   4.600   4.050  0.00  0.00    -0.006 A 
ATOM     12  C   UNL     1       2.480   4.438   2.757  0.00  0.00    -0.026 A 
ATOM     13  C   UNL     1       3.780   5.056   2.252  0.00  0.00    +0.036 C 
ATOM     14  C   UNL     1       4.213   6.157   3.220  0.00  0.00    +0.005 C 
ATOM     15  C   UNL     1       4.261   5.608   4.649  0.00  0.00    +0.005 C 
ATOM     16  C   UNL     1       2.824   5.346   5.124  0.00  0.00    +0.043 C 
ENDBRANCH   2   8
BRANCH   1  18
ATOM     17  C   UNL     1       2.208   0.551   1.530  0.00  0.00    +0.036 C 
ATOM     18  C   UNL     1       1.294   1.015   0.394  0.00  0.00    +0.118 C 
BRANCH  18  19
ATOM     19  C   UNL     1       1.256  -0.040  -0.682  0.00  0.00    -0.025 A 
ATOM     20  C   UNL     1       2.387  -0.786  -0.958  0.00  0.00    +0.005 A 
ATOM     21  C   UNL     1       2.351  -1.756  -1.943  0.00  0.00    +0.000 A 
ATOM     22  C   UNL     1       1.188  -1.973  -2.657  0.00  0.00    +0.000 A 
ATOM     23  C   UNL     1       0.059  -1.223  -2.384  0.00  0.00    +0.000 A 
ATOM     24  C   UNL     1       0.093  -0.256  -1.397  0.00  0.00    +0.005 A 
ENDBRANCH  18  19
ENDBRANCH   1  18
TORSDOF 3
