REMARK  Name = ZINC02305564
REMARK  5 active torsions:
REMARK  status: ('A' for Active; 'I' for Inactive)
REMARK    1  A    between atoms: C_1  and  C_2
REMARK    2  A    between atoms: C_12  and  S_16
REMARK    3  A    between atoms: S_16  and  C_17
REMARK    4  A    between atoms: C_17  and  C_18
REMARK    5  A    between atoms: C_18  and  C_20
REMARK                            x       y       z     vdW  Elec       q    Type
REMARK                         _______ _______ _______ _____ _____    ______ ____
ROOT
ATOM      1  C   UNL     1       1.551   6.522   1.869  0.00  0.00    +0.012 C 
ATOM      2  C   UNL     1       0.870   6.927   0.548  0.00  0.00    +0.017 C 
ATOM      3  C   UNL     1       0.338   8.346   0.739  0.00  0.00    +0.008 C 
ATOM      4  C   UNL     1      -0.800   8.662  -0.231  0.00  0.00    +0.006 C 
ATOM      5  C   UNL     1      -2.007   7.799   0.178  0.00  0.00    +0.043 C 
ATOM      6  C   UNL     1      -1.533   6.377   0.159  0.00  0.00    -0.004 A 
ATOM      7  C   UNL     1      -0.257   5.944   0.250  0.00  0.00    -0.022 A 
ATOM      8  C   UNL     1      -0.042   4.500   0.098  0.00  0.00    +0.051 A 
ATOM      9  C   UNL     1       1.166   3.754   0.017  0.00  0.00    +0.129 A 
ATOM     10  N   UNL     1       1.120   2.430   0.004  0.00  0.00    -0.207 NA
ATOM     11  C   UNL     1      -0.022   1.757   0.012  0.00  0.00    +0.191 A 
ATOM     12  N   UNL     1      -1.182   2.396   0.011  0.00  0.00    -0.215 NA
ATOM     13  C   UNL     1      -1.216   3.715   0.041  0.00  0.00    +0.115 A 
ATOM     14  S   UNL     1      -2.523   4.913   0.047  0.00  0.00    -0.073 S 
ATOM     15  N   UNL     1       2.403   4.365  -0.076  0.00  0.00    -0.343 N 
ATOM     16  H   UNL     1       3.206   3.825  -0.148  0.00  0.00    +0.144 HD
ATOM     17  H   UNL     1       2.468   5.333  -0.070  0.00  0.00    +0.144 HD
ENDROOT
BRANCH  11  18
ATOM     18  S   UNL     1       0.002  -0.004   0.002  0.00  0.00    -0.078 S 
BRANCH  18  19
ATOM     19  C   UNL     1       1.789  -0.294  -0.017  0.00  0.00    +0.157 C 
BRANCH  19  20
ATOM     20  C   UNL     1       2.057  -1.777  -0.027  0.00  0.00    +0.173 C 
ATOM     21  O   UNL     1       1.131  -2.561  -0.022  0.00  0.00    -0.291 OA
BRANCH  20  22
ATOM     22  C   UNL     1       3.441  -2.274  -0.043  0.00  0.00    +0.018 A 
ATOM     23  C   UNL     1       4.511  -1.373  -0.054  0.00  0.00    +0.013 A 
ATOM     24  C   UNL     1       5.806  -1.846  -0.063  0.00  0.00    +0.020 A 
ATOM     25  C   UNL     1       6.048  -3.210  -0.073  0.00  0.00    +0.041 A 
ATOM     26  C   UNL     1       4.993  -4.108  -0.068  0.00  0.00    +0.020 A 
ATOM     27  C   UNL     1       3.694  -3.650  -0.053  0.00  0.00    +0.013 A 
ATOM     28 CL   UNL     1       7.682  -3.797  -0.092  0.00  0.00    -0.084 Cl
ENDBRANCH  20  22
ENDBRANCH  19  20
ENDBRANCH  18  19
ENDBRANCH  11  18
TORSDOF 4
