REMARK  Name = ZINC63920386
REMARK  10 active torsions:
REMARK  status: ('A' for Active; 'I' for Inactive)
REMARK    1  A    between atoms: C_1  and  C_2
REMARK    2  A    between atoms: C_3  and  C_14
REMARK    3  A    between atoms: C_4  and  C_13
REMARK    4  A    between atoms: C_9  and  S_11
REMARK    5  A    between atoms: S_11  and  C_12
REMARK    6  A    between atoms: C_14  and  C_15
REMARK    7  A    between atoms: N_17  and  C_18
REMARK    8  A    between atoms: C_18  and  C_19
REMARK    9  A    between atoms: C_19  and  C_21
REMARK   10  A    between atoms: C_19  and  C_27
REMARK                            x       y       z     vdW  Elec       q    Type
REMARK                         _______ _______ _______ _____ _____    ______ ____
ROOT
ATOM      1  C   UNL     1      -2.893   0.356   1.435  0.00  0.00    +0.217 C 
ATOM      2  O   UNL     1      -2.159   0.039   2.347  0.00  0.00    -0.275 OA
ATOM      3  N   UNL     1      -4.040   1.015   1.690  0.00  0.00    -0.314 N 
ATOM      4  H   UNL     1      -4.626   1.269   0.960  0.00  0.00    +0.149 HD
ENDROOT
BRANCH   1   5
ATOM      5  C   UNL     1      -2.520   0.013   0.015  0.00  0.00    +0.134 C 
BRANCH   5   8
ATOM      6  C   UNL     1      -0.018   1.503   0.010  0.00  0.00    +0.066 C 
ATOM      7  C   UNL     1       0.002  -0.004   0.002  0.00  0.00    +0.047 A 
ATOM      8  C   UNL     1      -1.202  -0.717   0.004  0.00  0.00    +0.004 A 
ATOM      9  C   UNL     1      -1.169  -2.075  -0.004  0.00  0.00    +0.049 A 
ATOM     10  N   UNL     1       0.035  -2.706  -0.014  0.00  0.00    -0.200 N 
ATOM     11  C   UNL     1       1.192  -1.980  -0.015  0.00  0.00    +0.254 A 
ATOM     12  N   UNL     1       1.151  -0.643  -0.012  0.00  0.00    -0.216 NA
ATOM     13  N   UNL     1       2.202  -2.844  -0.025  0.00  0.00    -0.183 NA
ATOM     14  C   UNL     1       1.728  -4.088  -0.030  0.00  0.00    +0.211 A 
ATOM     15  N   UNL     1       0.410  -4.055  -0.023  0.00  0.00    -0.137 NA
ATOM     16  C   UNL     1      -2.449  -2.871  -0.002  0.00  0.00    +0.066 C 
BRANCH  14  17
ATOM     17  S   UNL     1       2.710  -5.551  -0.044  0.00  0.00    -0.088 S 
ATOM     18  C   UNL     1       4.416  -4.935  -0.049  0.00  0.00    +0.093 C 
ENDBRANCH  14  17
ENDBRANCH   5   8
ENDBRANCH   1   5
BRANCH   3  19
ATOM     19  C   UNL     1      -4.402   1.349   3.070  0.00  0.00    +0.116 C 
BRANCH  19  20
ATOM     20  C   UNL     1      -5.740   2.090   3.081  0.00  0.00    +0.064 C 
BRANCH  20  21
ATOM     21  C   UNL     1      -6.172   2.325   4.505  0.00  0.00    -0.033 C 
ATOM     22  C   UNL     1      -7.303   1.876   5.097  0.00  0.00    -0.000 A 
ATOM     23  C   UNL     1      -8.426   1.067   4.609  0.00  0.00    +0.010 A 
ATOM     24  C   UNL     1      -9.439   0.773   5.455  0.00  0.00    +0.001 A 
ATOM     25  C   UNL     1      -9.443   1.221   6.784  0.00  0.00    +0.002 A 
ATOM     26  C   UNL     1      -8.447   1.968   7.304  0.00  0.00    +0.026 A 
ATOM     27  C   UNL     1      -7.331   2.336   6.503  0.00  0.00    +0.043 A 
ATOM     28  N   UNL     1      -6.259   3.042   6.772  0.00  0.00    -0.380 N 
ATOM     29  C   UNL     1      -5.426   3.104   5.565  0.00  0.00    +0.145 C 
ATOM     30  H   UNL     1      -6.050   3.451   7.626  0.00  0.00    +0.160 HD
ENDBRANCH  20  21
BRANCH  20  31
ATOM     31  C   UNL     1      -5.587   3.414   2.378  0.00  0.00    -0.039 A 
ATOM     32  C   UNL     1      -4.680   4.346   2.848  0.00  0.00    +0.004 A 
ATOM     33  C   UNL     1      -4.540   5.560   2.203  0.00  0.00    +0.000 A 
ATOM     34  C   UNL     1      -5.306   5.843   1.088  0.00  0.00    +0.000 A 
ATOM     35  C   UNL     1      -6.212   4.912   0.617  0.00  0.00    +0.000 A 
ATOM     36  C   UNL     1      -6.349   3.695   1.260  0.00  0.00    +0.004 A 
ENDBRANCH  20  31
ENDBRANCH  19  20
ENDBRANCH   3  19
TORSDOF 7
