REMARK  Name = ZINC08714538
REMARK  12 active torsions:
REMARK  status: ('A' for Active; 'I' for Inactive)
REMARK    1  A    between atoms: C_1  and  C_2
REMARK    2  A    between atoms: C_6  and  O_8
REMARK    3  A    between atoms: O_8  and  C_9
REMARK    4  A    between atoms: C_14  and  O_20
REMARK    5  A    between atoms: O_20  and  C_21
REMARK    6  A    between atoms: C_21  and  C_22
REMARK    7  A    between atoms: C_22  and  C_24
REMARK    8  A    between atoms: C_22  and  O_33
REMARK    9  A    between atoms: C_24  and  N_25
REMARK   10  A    between atoms: C_26  and  C_32
REMARK   11  A    between atoms: C_27  and  C_31
REMARK   12  A    between atoms: C_28  and  C_30
REMARK                            x       y       z     vdW  Elec       q    Type
REMARK                         _______ _______ _______ _____ _____    ______ ____
ROOT
ATOM      1  C   UNL     1       1.121   5.855   0.125  0.00  0.00    +0.210 A 
ATOM      2  C   UNL     1       2.279   5.165   0.110  0.00  0.00    +0.245 A 
ATOM      3  O   UNL     1       3.476   5.758   0.202  0.00  0.00    -0.459 OA
ATOM      4  C   UNL     1       3.615   7.094   0.317  0.00  0.00    +0.142 A 
ATOM      5  C   UNL     1       4.872   7.676   0.411  0.00  0.00    +0.092 A 
ATOM      6  C   UNL     1       4.985   9.050   0.530  0.00  0.00    +0.124 A 
ATOM      7  C   UNL     1       3.848   9.856   0.556  0.00  0.00    +0.046 A 
ATOM      8  C   UNL     1       2.604   9.299   0.464  0.00  0.00    +0.019 A 
ATOM      9  C   UNL     1       2.473   7.914   0.344  0.00  0.00    +0.068 A 
ATOM     10  C   UNL     1       1.151   7.275   0.238  0.00  0.00    +0.234 A 
ATOM     11  O   UNL     1       0.124   7.933   0.250  0.00  0.00    -0.283 OA
ENDROOT
BRANCH   1  12
ATOM     12  O   UNL     1      -0.069   5.201   0.029  0.00  0.00    -0.449 OA
BRANCH  12  18
ATOM     13  C   UNL     1       0.719   1.053   2.479  0.00  0.00    +0.044 C 
ATOM     14  C   UNL     1       0.326   1.787   1.222  0.00  0.00    -0.047 A 
ATOM     15  C   UNL     1      -0.020   1.076   0.087  0.00  0.00    +0.003 A 
ATOM     16  C   UNL     1      -0.387   1.746  -1.065  0.00  0.00    +0.004 A 
ATOM     17  C   UNL     1      -0.404   3.127  -1.088  0.00  0.00    +0.046 A 
ATOM     18  C   UNL     1      -0.052   3.842   0.048  0.00  0.00    +0.129 A 
ATOM     19  C   UNL     1       0.315   3.168   1.204  0.00  0.00    +0.049 A 
ENDBRANCH  12  18
ENDBRANCH   1  12
BRANCH   6  20
ATOM     20  O   UNL     1       6.214   9.619   0.621  0.00  0.00    -0.489 OA
BRANCH  20  21
ATOM     21  C   UNL     1       6.264  11.042   0.742  0.00  0.00    +0.262 C 
BRANCH  21  22
ATOM     22  C   UNL     1       7.722  11.495   0.832  0.00  0.00    +0.173 C 
BRANCH  22  23
ATOM     23  O   UNL     1       8.391  11.196  -0.395  0.00  0.00    -0.387 OA
ATOM     24  H   UNL     1       8.005  11.629  -1.169  0.00  0.00    +0.210 HD
ENDBRANCH  22  23
BRANCH  22  25
ATOM     25  C   UNL     1       7.772  13.004   1.086  0.00  0.00    +0.178 C 
BRANCH  25  26
ATOM     26  N   UNL     1       9.162  13.418   1.291  0.00  0.00    -0.265 N 
ATOM     27  C   UNL     1       9.808  13.471   2.475  0.00  0.00    +0.039 A 
ATOM     28  C   UNL     1      11.070  13.898   2.237  0.00  0.00    -0.007 A 
ATOM     29  C   UNL     1      11.197  14.123   0.862  0.00  0.00    +0.063 A 
ATOM     30  N   UNL     1      10.053  13.835   0.294  0.00  0.00    -0.176 NA
ATOM     31  C   UNL     1      12.435  14.612   0.157  0.00  0.00    +0.068 C 
ATOM     32  C   UNL     1      12.147  14.102   3.272  0.00  0.00    +0.047 C 
ATOM     33  C   UNL     1       9.229  13.115   3.820  0.00  0.00    +0.065 C 
ENDBRANCH  25  26
ENDBRANCH  22  25
ENDBRANCH  21  22
ENDBRANCH  20  21
ENDBRANCH   6  20
TORSDOF 8
