REMARK  Name = ZINC04492443
REMARK  6 active torsions:
REMARK  status: ('A' for Active; 'I' for Inactive)
REMARK    1  A    between atoms: C_1  and  C_2
REMARK    2  A    between atoms: C_4  and  C_8
REMARK    3  A    between atoms: C_5  and  C_7
REMARK    4  A    between atoms: N_10  and  C_11
REMARK    5  A    between atoms: C_11  and  C_13
REMARK    6  A    between atoms: C_11  and  C_14
REMARK                            x       y       z     vdW  Elec       q    Type
REMARK                         _______ _______ _______ _____ _____    ______ ____
ROOT
ATOM      1  C   UNL     1      -2.307   6.409   3.968  0.00  0.00    +0.076 C 
ATOM      2  C   UNL     1      -3.763   6.721   3.619  0.00  0.00    +0.028 C 
ENDROOT
BRANCH   1   3
ATOM      3  C   UNL     1      -1.432   7.620   3.636  0.00  0.00    -0.010 C 
ATOM      4  C   UNL     1      -1.543   7.934   2.143  0.00  0.00    +0.012 C 
ATOM      5  C   UNL     1      -0.668   9.145   1.810  0.00  0.00    -0.010 C 
ATOM      6  C   UNL     1      -1.140  10.353   2.623  0.00  0.00    +0.007 C 
ATOM      7  C   UNL     1      -1.030  10.038   4.116  0.00  0.00    -0.010 C 
ATOM      8  C   UNL     1      -1.904   8.827   4.448  0.00  0.00    +0.012 C 
ATOM      9  C   UNL     1       0.427   9.726   4.465  0.00  0.00    +0.007 C 
ATOM     10  C   UNL     1       0.899   8.518   3.653  0.00  0.00    -0.010 C 
ATOM     11  C   UNL     1       0.788   8.833   2.159  0.00  0.00    +0.007 C 
ATOM     12  C   UNL     1       0.024   7.308   3.985  0.00  0.00    +0.012 C 
ENDBRANCH   1   3
BRANCH   1  15
ATOM     13  C   UNL     1      -2.095   4.004   3.639  0.00  0.00    +0.248 C 
ATOM     14  O   UNL     1      -2.685   3.837   4.688  0.00  0.00    -0.270 OA
ATOM     15  N   UNL     1      -1.855   5.252   3.190  0.00  0.00    -0.308 N 
ATOM     16  H   UNL     1      -1.384   5.385   2.353  0.00  0.00    +0.149 HD
BRANCH  13  20
ATOM     17  C   UNL     1      -0.013   1.086   0.008  0.00  0.00    +0.086 C 
ATOM     18  C   UNL     1      -0.718   1.572   1.248  0.00  0.00    +0.103 A 
ATOM     19  C   UNL     1      -0.912   2.857   1.579  0.00  0.00    +0.057 A 
ATOM     20  C   UNL     1      -1.640   2.840   2.856  0.00  0.00    +0.077 A 
ATOM     21  C   UNL     1      -1.802   1.522   3.169  0.00  0.00    +0.114 A 
ATOM     22  O   UNL     1      -1.247   0.788   2.200  0.00  0.00    -0.464 OA
ATOM     23  C   UNL     1      -2.491   0.986   4.397  0.00  0.00    +0.087 C 
ENDBRANCH  13  20
ENDBRANCH   1  15
TORSDOF 3
