REMARK  Name = ZINC38054315
REMARK  3 active torsions:
REMARK  status: ('A' for Active; 'I' for Inactive)
REMARK    1  A    between atoms: C_4  and  N_10
REMARK    2  A    between atoms: C_6  and  C_7
REMARK    3  A    between atoms: C_7  and  N_9
REMARK                            x       y       z     vdW  Elec       q    Type
REMARK                         _______ _______ _______ _____ _____    ______ ____
ROOT
ATOM      1  C   UNL     1      -0.017   1.396   0.010  0.00  0.00    +0.030 A 
ATOM      2  C   UNL     1       1.180   2.084   0.002  0.00  0.00    +0.114 A 
ATOM      3  N   UNL     1       2.332   1.443  -0.013  0.00  0.00    -0.236 NA
ATOM      4  C   UNL     1       2.398   0.121  -0.020  0.00  0.00    +0.155 A 
ATOM      5  C   UNL     1       1.242  -0.648  -0.014  0.00  0.00    +0.058 A 
ATOM      6  C   UNL     1       0.002  -0.004   0.002  0.00  0.00    +0.008 A 
ENDROOT
BRANCH   4   7
ATOM      7  N   UNL     1       3.647  -0.508  -0.035  0.00  0.00    -0.221 N 
ATOM      8  C   UNL     1       4.856   0.113  -0.038  0.00  0.00    +0.131 A 
ATOM      9  C   UNL     1       5.809  -0.848  -0.055  0.00  0.00    +0.056 A 
ATOM     10  C   UNL     1       5.167  -2.092  -0.062  0.00  0.00    +0.150 A 
ATOM     11  N   UNL     1       3.875  -1.890  -0.045  0.00  0.00    -0.172 NA
ATOM     12 BR   UNL     1       7.678  -0.560  -0.066  0.00  0.00    -0.047 Br
ENDBRANCH   4   7
BRANCH   6  13
ATOM     13  C   UNL     1      -1.256  -0.781   0.010  0.00  0.00    +0.077 C 
ATOM     14  S   UNL     1      -1.355  -2.259  -0.847  0.00  0.00    -0.035 S 
BRANCH  13  15
ATOM     15  N   UNL     1      -2.325  -0.325   0.693  0.00  0.00    -0.352 N 
ATOM     16  H   UNL     1      -2.269   0.513   1.179  0.00  0.00    +0.143 HD
ATOM     17  H   UNL     1      -3.151  -0.834   0.698  0.00  0.00    +0.143 HD
ENDBRANCH  13  15
ENDBRANCH   6  13
TORSDOF 3
