REMARK  Name = ZINC10012452
REMARK  10 active torsions:
REMARK  status: ('A' for Active; 'I' for Inactive)
REMARK    1  A    between atoms: C_1  and  C_2
REMARK    2  A    between atoms: C_2  and  C_3
REMARK    3  A    between atoms: C_2  and  C_4
REMARK    4  A    between atoms: C_7  and  C_10
REMARK    5  A    between atoms: N_12  and  C_13
REMARK    6  A    between atoms: C_13  and  N_15
REMARK    7  A    between atoms: N_15  and  C_16
REMARK    8  A    between atoms: C_21  and  O_22
REMARK    9  A    between atoms: O_22  and  C_23
REMARK   10  A    between atoms: C_23  and  C_24
REMARK                            x       y       z     vdW  Elec       q    Type
REMARK                         _______ _______ _______ _____ _____    ______ ____
ROOT
ATOM      1  C   UNL     1       1.148   1.615  -0.246  0.00  0.00    +0.141 C 
ATOM      2  S   UNL     1       1.113   3.296  -0.570  0.00  0.00    -0.018 S 
ENDROOT
BRANCH   1   5
ATOM      3  C   UNL     1      -1.175   1.526  -0.459  0.00  0.00    +0.250 C 
ATOM      4  O   UNL     1      -1.200   2.719  -0.689  0.00  0.00    -0.270 OA
ATOM      5  N   UNL     1      -0.001   0.909  -0.222  0.00  0.00    -0.264 N 
ATOM      6  H   UNL     1       0.019  -0.043  -0.039  0.00  0.00    +0.157 HD
BRANCH   3  10
ATOM      7  C   UNL     1      -4.791  -0.701  -0.403  0.00  0.00    -0.045 A 
ATOM      8  C   UNL     1      -4.823   0.657  -0.664  0.00  0.00    +0.004 A 
ATOM      9  C   UNL     1      -3.652   1.387  -0.684  0.00  0.00    +0.013 A 
ATOM     10  C   UNL     1      -2.433   0.751  -0.439  0.00  0.00    +0.037 A 
ATOM     11  C   UNL     1      -2.408  -0.621  -0.181  0.00  0.00    +0.013 A 
ATOM     12  C   UNL     1      -3.587  -1.337  -0.159  0.00  0.00    +0.004 A 
BRANCH   7  14
ATOM     13  C   UNL     1      -6.013  -2.590  -1.446  0.00  0.00    +0.012 C 
ATOM     14  C   UNL     1      -6.074  -1.491  -0.383  0.00  0.00    +0.013 C 
ATOM     15  C   UNL     1      -6.261  -2.126   0.997  0.00  0.00    +0.012 C 
ENDBRANCH   7  14
ENDBRANCH   3  10
ENDBRANCH   1   5
BRANCH   1  16
ATOM     16  N   UNL     1       2.323   0.998  -0.015  0.00  0.00    -0.294 N 
ATOM     17  H   UNL     1       2.338   0.059   0.230  0.00  0.00    +0.154 HD
BRANCH  16  18
ATOM     18  C   UNL     1       3.523   1.711  -0.128  0.00  0.00    +0.075 A 
ATOM     19  C   UNL     1       3.651   2.957   0.468  0.00  0.00    +0.027 A 
ATOM     20  C   UNL     1       4.837   3.657   0.359  0.00  0.00    +0.002 A 
ATOM     21  C   UNL     1       5.896   3.123  -0.352  0.00  0.00    +0.004 A 
ATOM     22  C   UNL     1       5.775   1.883  -0.953  0.00  0.00    +0.047 A 
ATOM     23  C   UNL     1       4.590   1.173  -0.845  0.00  0.00    +0.142 A 
BRANCH  23  24
ATOM     24  O   UNL     1       4.469  -0.045  -1.436  0.00  0.00    -0.486 OA
BRANCH  24  25
ATOM     25  C   UNL     1       5.604  -0.533  -2.154  0.00  0.00    +0.256 C 
BRANCH  25  26
ATOM     26  C   UNL     1       5.286  -1.886  -2.736  0.00  0.00    +0.006 C 
ATOM     27  C   UNL     1       5.612  -2.159  -3.975  0.00  0.00    +0.007 C 
ENDBRANCH  25  26
ENDBRANCH  24  25
ENDBRANCH  23  24
ENDBRANCH  16  18
ENDBRANCH   1  16
TORSDOF 8
