REMARK  Name = ZINC39942306
REMARK  8 active torsions:
REMARK  status: ('A' for Active; 'I' for Inactive)
REMARK    1  A    between atoms: C_1  and  C_2
REMARK    2  A    between atoms: C_4  and  C_32
REMARK    3  A    between atoms: C_8  and  C_12
REMARK    4  A    between atoms: C_12  and  C_14
REMARK    5  A    between atoms: C_12  and  S_15
REMARK    6  A    between atoms: S_15  and  C_16
REMARK    7  A    between atoms: C_20  and  C_28
REMARK    8  A    between atoms: N_21  and  C_22
REMARK                            x       y       z     vdW  Elec       q    Type
REMARK                         _______ _______ _______ _____ _____    ______ ____
ROOT
ATOM      1  S   UNL     1       6.300  -3.763  -1.384  0.00  0.00    -0.107 S 
ENDROOT
BRANCH   1   2
ATOM      2  C   UNL     1       7.444  -4.992  -0.697  0.00  0.00    +0.241 C 
ATOM      3  N   UNL     1       6.702  -6.144  -0.155  0.00  0.00    -0.237 N 
ATOM      4  N   UNL     1       7.003  -6.191   1.212  0.00  0.00    -0.173 NA
ATOM      5  C   UNL     1       7.803  -5.248   1.553  0.00  0.00    +0.125 C 
ATOM      6  N   UNL     1       8.150  -4.443   0.474  0.00  0.00    -0.258 N 
ATOM      7  H   UNL     1       6.123  -6.748  -0.645  0.00  0.00    +0.171 HD
BRANCH   6   8
ATOM      8  C   UNL     1       9.001  -3.335   0.493  0.00  0.00    +0.037 A 
ATOM      9  C   UNL     1       8.789  -2.312   1.409  0.00  0.00    +0.023 A 
ATOM     10  C   UNL     1       9.632  -1.218   1.425  0.00  0.00    +0.002 A 
ATOM     11  C   UNL     1      10.685  -1.140   0.532  0.00  0.00    +0.000 A 
ATOM     12  C   UNL     1      10.898  -2.157  -0.381  0.00  0.00    +0.002 A 
ATOM     13  C   UNL     1      10.062  -3.257  -0.399  0.00  0.00    +0.023 A 
ENDBRANCH   6   8
BRANCH   5  14
ATOM     14  C   UNL     1       8.307  -5.036   2.957  0.00  0.00    +0.055 C 
ATOM     15  C   UNL     1       8.739  -6.274   3.746  0.00  0.00    +0.012 C 
ATOM     16  C   UNL     1       7.438  -5.554   4.105  0.00  0.00    +0.012 C 
ENDBRANCH   5  14
ENDBRANCH   1   2
BRANCH   1  17
ATOM     17  C   UNL     1       5.024  -3.590  -0.106  0.00  0.00    +0.112 C 
ATOM     18  C   UNL     1       5.614  -2.873   1.110  0.00  0.00    +0.027 C 
BRANCH  17  25
ATOM     19  C   UNL     1      -0.507   1.176  -0.708  0.00  0.00    +0.024 C 
ATOM     20  C   UNL     1      -0.358  -0.328  -0.947  0.00  0.00    +0.076 C 
ATOM     21  C   UNL     1       0.683  -0.607  -2.006  0.00  0.00    -0.045 C 
ATOM     22  C   UNL     1       1.764  -1.316  -1.647  0.00  0.00    +0.071 C 
ATOM     23  C   UNL     1       1.852  -1.769  -0.243  0.00  0.00    +0.111 C 
ATOM     24  N   UNL     1       2.884  -2.467   0.169  0.00  0.00    -0.226 NA
ATOM     25  C   UNL     1       3.872  -2.786  -0.653  0.00  0.00    +0.136 C 
ATOM     26  N   UNL     1       3.901  -2.439  -1.917  0.00  0.00    -0.160 NA
ATOM     27  C   UNL     1       2.929  -1.726  -2.495  0.00  0.00    +0.271 C 
ATOM     28  O   UNL     1       2.988  -1.420  -3.674  0.00  0.00    -0.268 OA
ATOM     29  S   UNL     1       0.370  -1.159   0.522  0.00  0.00    -0.098 S 
ATOM     30  C   UNL     1       0.513  -0.107  -3.417  0.00  0.00    +0.041 C 
ENDBRANCH  17  25
ENDBRANCH   1  17
TORSDOF 5
