REMARK  Name = ZINC20418648
REMARK  8 active torsions:
REMARK  status: ('A' for Active; 'I' for Inactive)
REMARK    1  A    between atoms: C_1  and  C_2
REMARK    2  A    between atoms: C_7  and  C_8
REMARK    3  A    between atoms: C_8  and  O_9
REMARK    4  A    between atoms: O_9  and  C_10
REMARK    5  A    between atoms: C_14  and  C_16
REMARK    6  A    between atoms: C_19  and  C_30
REMARK    7  A    between atoms: C_25  and  N_29
REMARK    8  A    between atoms: C_26  and  C_27
REMARK                            x       y       z     vdW  Elec       q    Type
REMARK                         _______ _______ _______ _____ _____    ______ ____
ROOT
ATOM      1  C   UNL     1       0.127  -1.742   8.470  0.00  0.00    +0.102 C 
ATOM      2  C   UNL     1      -1.029  -1.356   9.356  0.00  0.00    +0.054 A 
ATOM      3  C   UNL     1      -2.399  -1.553   9.160  0.00  0.00    +0.100 A 
ATOM      4  N   UNL     1      -3.035  -1.048  10.201  0.00  0.00    -0.171 NA
ATOM      5  N   UNL     1      -2.083  -0.517  11.085  0.00  0.00    -0.246 N 
ATOM      6  H   UNL     1      -2.271  -0.084  11.932  0.00  0.00    +0.192 HD
ATOM      7  C   UNL     1      -0.861  -0.717  10.551  0.00  0.00    +0.223 A 
ATOM      8  O   UNL     1       0.361  -0.381  11.036  0.00  0.00    -0.423 OA
ATOM      9  C   UNL     1       1.441  -0.933  10.446  0.00  0.00    +0.200 C 
ATOM     10  C   UNL     1       1.402  -1.580   9.259  0.00  0.00    +0.098 C 
ENDROOT
BRANCH   3  11
ATOM     11  C   UNL     1      -3.027  -2.212   7.989  0.00  0.00    +0.003 A 
ATOM     12  C   UNL     1      -2.469  -3.373   7.457  0.00  0.00    +0.011 A 
ATOM     13  C   UNL     1      -3.057  -3.983   6.368  0.00  0.00    +0.020 A 
ATOM     14  C   UNL     1      -4.200  -3.443   5.803  0.00  0.00    +0.041 A 
ATOM     15  C   UNL     1      -4.758  -2.290   6.327  0.00  0.00    +0.020 A 
ATOM     16  C   UNL     1      -4.181  -1.676   7.420  0.00  0.00    +0.011 A 
ATOM     17 CL   UNL     1      -4.935  -4.214   4.432  0.00  0.00    -0.084 Cl
ENDBRANCH   3  11
BRANCH   1  22
ATOM     18  C   UNL     1       0.163  -0.570   4.878  0.00  0.00    +0.121 A 
ATOM     19  C   UNL     1       0.223   0.807   5.039  0.00  0.00    +0.045 A 
ATOM     20  C   UNL     1       0.251   1.352   6.308  0.00  0.00    +0.004 A 
ATOM     21  C   UNL     1       0.220   0.527   7.417  0.00  0.00    +0.005 A 
ATOM     22  C   UNL     1       0.160  -0.846   7.259  0.00  0.00    -0.031 A 
ATOM     23  C   UNL     1       0.126  -1.395   5.992  0.00  0.00    +0.050 A 
BRANCH  18  24
ATOM     24  O   UNL     1       0.134  -1.108   3.630  0.00  0.00    -0.487 OA
BRANCH  24  25
ATOM     25  C   UNL     1       0.175  -0.198   2.529  0.00  0.00    +0.264 C 
BRANCH  25  32
ATOM     26  C   UNL     1       0.236   1.205   0.005  0.00  0.00    +0.044 C 
ATOM     27  C   UNL     1       0.165  -0.300   0.029  0.00  0.00    -0.044 A 
ATOM     28  C   UNL     1       0.134  -1.009  -1.158  0.00  0.00    +0.004 A 
ATOM     29  C   UNL     1       0.069  -2.390  -1.136  0.00  0.00    +0.000 A 
ATOM     30  C   UNL     1       0.034  -3.061   0.073  0.00  0.00    +0.000 A 
ATOM     31  C   UNL     1       0.066  -2.352   1.258  0.00  0.00    +0.007 A 
ATOM     32  C   UNL     1       0.136  -0.971   1.236  0.00  0.00    -0.007 A 
ENDBRANCH  25  32
ENDBRANCH  24  25
ENDBRANCH  18  24
ENDBRANCH   1  22
BRANCH   9  33
ATOM     33  N   UNL     1       2.650  -0.832  11.087  0.00  0.00    -0.328 N 
ATOM     34  H   UNL     1       2.710  -0.373  11.940  0.00  0.00    +0.145 HD
ATOM     35  H   UNL     1       3.445  -1.218  10.688  0.00  0.00    +0.145 HD
ENDBRANCH   9  33
BRANCH  10  36
ATOM     36  C   UNL     1       2.614  -2.131   8.732  0.00  0.00    +0.101 C 
ATOM     37  N   UNL     1       3.576  -2.568   8.314  0.00  0.00    -0.191 NA
ENDBRANCH  10  36
TORSDOF 7
