REMARK  Name = ZINC05517833
REMARK  8 active torsions:
REMARK  status: ('A' for Active; 'I' for Inactive)
REMARK    1  A    between atoms: C_1  and  C_2
REMARK    2  A    between atoms: C_2  and  C_4
REMARK    3  A    between atoms: N_6  and  C_7
REMARK    4  A    between atoms: C_10  and  C_13
REMARK    5  A    between atoms: C_13  and  C_26
REMARK    6  A    between atoms: N_14  and  N_15
REMARK    7  A    between atoms: C_16  and  C_18
REMARK    8  A    between atoms: C_23  and  O_24
REMARK                            x       y       z     vdW  Elec       q    Type
REMARK                         _______ _______ _______ _____ _____    ______ ____
ROOT
ATOM      1  C   UNL     1      -5.921  -1.183  -0.352  0.00  0.00    +0.063 C 
ATOM      2  N   UNL     1      -7.072  -0.589  -0.437  0.00  0.00    -0.184 NA
ATOM      3  C   UNL     1      -5.848  -2.688  -0.352  0.00  0.00    +0.068 C 
ENDROOT
BRANCH   1   7
ATOM      4  C   UNL     1      -2.361   1.114  -0.073  0.00  0.00    +0.034 A 
ATOM      5  C   UNL     1      -2.292  -0.275  -0.079  0.00  0.00    +0.024 A 
ATOM      6  C   UNL     1      -3.445  -1.023  -0.164  0.00  0.00    +0.011 A 
ATOM      7  C   UNL     1      -4.685  -0.385  -0.255  0.00  0.00    -0.002 A 
ATOM      8  C   UNL     1      -4.751   1.011  -0.254  0.00  0.00    +0.011 A 
ATOM      9  C   UNL     1      -3.594   1.753  -0.164  0.00  0.00    +0.024 A 
BRANCH   4  12
ATOM     10  C   UNL     1      -0.148   1.413   0.739  0.00  0.00    +0.243 C 
ATOM     11  O   UNL     1      -0.259   0.391   1.389  0.00  0.00    -0.270 OA
ATOM     12  N   UNL     1      -1.191   1.870   0.018  0.00  0.00    -0.282 N 
ATOM     13  H   UNL     1      -1.128   2.724  -0.438  0.00  0.00    +0.155 HD
BRANCH  10  15
ATOM     14  C   UNL     1       1.264   3.413  -0.069  0.00  0.00    +0.048 C 
ATOM     15  C   UNL     1       1.127   2.147   0.736  0.00  0.00    +0.004 C 
ATOM     16  C   UNL     1       2.157   1.692   1.443  0.00  0.00    +0.017 C 
ENDBRANCH  10  15
ENDBRANCH   4  12
ENDBRANCH   1   7
BRANCH   2  17
ATOM     17  N   UNL     1      -8.247  -1.347  -0.529  0.00  0.00    -0.203 N 
ATOM     18  C   UNL     1      -9.442  -0.730  -0.617  0.00  0.00    +0.267 C 
ATOM     19  O   UNL     1      -9.500   0.485  -0.617  0.00  0.00    -0.268 OA
ATOM     20  H   UNL     1      -8.200  -2.316  -0.529  0.00  0.00    +0.178 HD
BRANCH  18  21
ATOM     21  C   UNL     1     -10.678  -1.528  -0.714  0.00  0.00    +0.081 A 
ATOM     22  C   UNL     1     -10.615  -2.924  -0.721  0.00  0.00    +0.036 A 
ATOM     23  C   UNL     1     -11.775  -3.664  -0.806  0.00  0.00    +0.042 A 
ATOM     24  C   UNL     1     -13.004  -3.029  -0.897  0.00  0.00    +0.023 A 
ATOM     25  C   UNL     1     -13.080  -1.650  -0.897  0.00  0.00    +0.047 A 
ATOM     26  C   UNL     1     -11.923  -0.890  -0.806  0.00  0.00    +0.129 A 
ATOM     27 CL   UNL     1     -11.696  -5.398  -0.808  0.00  0.00    -0.084 Cl
BRANCH  26  28
ATOM     28  O   UNL     1     -11.996   0.465  -0.806  0.00  0.00    -0.506 OA
ATOM     29  H   UNL     1     -11.950   0.861  -1.687  0.00  0.00    +0.292 HD
ENDBRANCH  26  28
ENDBRANCH  18  21
ENDBRANCH   2  17
TORSDOF 6
