REMARK  Name = ZINC44452864
REMARK  6 active torsions:
REMARK  status: ('A' for Active; 'I' for Inactive)
REMARK    1  A    between atoms: C_1  and  C_2
REMARK    2  A    between atoms: N_4  and  N_5
REMARK    3  A    between atoms: C_6  and  C_8
REMARK    4  A    between atoms: C_12  and  N_13
REMARK    5  A    between atoms: C_14  and  C_16
REMARK    6  A    between atoms: C_19  and  N_22
REMARK                            x       y       z     vdW  Elec       q    Type
REMARK                         _______ _______ _______ _____ _____    ______ ____
ROOT
ATOM      1  C   UNL     1      -2.275  -4.250   0.001  0.00  0.00    +0.070 A 
ATOM      2  C   UNL     1      -2.258  -5.014   1.241  0.00  0.00    -0.023 A 
ATOM      3  C   UNL     1      -2.236  -6.351   1.060  0.00  0.00    -0.004 A 
ATOM      4  S   UNL     1      -2.249  -6.569  -0.698  0.00  0.00    -0.077 S 
ATOM      5  C   UNL     1      -2.277  -4.963  -1.186  0.00  0.00    +0.085 A 
ATOM      6  C   UNL     1      -2.196  -7.415   2.111  0.00  0.00    +0.043 C 
ATOM      7  C   UNL     1      -3.272  -7.124   3.165  0.00  0.00    +0.005 C 
ATOM      8  C   UNL     1      -2.667  -6.233   4.246  0.00  0.00    +0.001 C 
ATOM      9  C   UNL     1      -1.627  -5.296   3.636  0.00  0.00    +0.005 C 
ATOM     10  C   UNL     1      -2.279  -4.366   2.618  0.00  0.00    +0.037 C 
ENDROOT
BRANCH   1  12
ATOM     11  N   UNL     1      -1.137  -2.095   0.002  0.00  0.00    -0.230 N 
ATOM     12  C   UNL     1      -2.295  -2.784   0.009  0.00  0.00    +0.263 C 
ATOM     13  O   UNL     1      -3.357  -2.190   0.022  0.00  0.00    -0.269 OA
ATOM     14  H   UNL     1      -0.290  -2.568  -0.009  0.00  0.00    +0.173 HD
BRANCH  11  18
ATOM     15  C   UNL     1      -0.018   1.503   0.010  0.00  0.00    +0.110 C 
ATOM     16  C   UNL     1       0.002  -0.004   0.002  0.00  0.00    +0.226 C 
ATOM     17  O   UNL     1       1.060  -0.596  -0.011  0.00  0.00    -0.275 OA
ATOM     18  N   UNL     1      -1.156  -0.694   0.009  0.00  0.00    -0.234 N 
ATOM     19  H   UNL     1      -2.002  -0.220   0.020  0.00  0.00    +0.173 HD
ENDBRANCH  11  18
ENDBRANCH   1  12
BRANCH   5  20
ATOM     20  N   UNL     1      -2.296  -4.466  -2.479  0.00  0.00    -0.275 N 
ATOM     21  C   UNL     1      -2.295  -5.313  -3.527  0.00  0.00    +0.249 C 
ATOM     22  O   UNL     1      -2.277  -6.514  -3.338  0.00  0.00    -0.270 OA
ATOM     23  H   UNL     1      -2.310  -3.508  -2.630  0.00  0.00    +0.156 HD
BRANCH  21  24
ATOM     24  C   UNL     1      -2.315  -4.783  -4.906  0.00  0.00    +0.037 A 
ATOM     25  C   UNL     1      -2.329  -3.404  -5.127  0.00  0.00    +0.015 A 
ATOM     26  C   UNL     1      -2.348  -2.916  -6.417  0.00  0.00    +0.033 A 
ATOM     27  C   UNL     1      -2.353  -3.789  -7.491  0.00  0.00    +0.126 A 
ATOM     28  C   UNL     1      -2.339  -5.156  -7.279  0.00  0.00    +0.033 A 
ATOM     29  C   UNL     1      -2.314  -5.658  -5.994  0.00  0.00    +0.015 A 
BRANCH  27  30
ATOM     30  N   UNL     1      -2.375  -3.257  -8.872  0.00  0.00    +0.056 N 
ATOM     31  O   UNL     1      -2.388  -2.063  -9.060  0.00  0.00    -0.126 OA
ATOM     32  O   UNL     1      -2.379  -4.018  -9.812  0.00  0.00    -0.126 OA
ENDBRANCH  27  30
ENDBRANCH  21  24
ENDBRANCH   5  20
TORSDOF 5
