REMARK  Name = ZINC58996280
REMARK  11 active torsions:
REMARK  status: ('A' for Active; 'I' for Inactive)
REMARK    1  A    between atoms: C_1  and  O_2
REMARK    2  A    between atoms: O_2  and  C_3
REMARK    3  A    between atoms: C_6  and  C_9
REMARK    4  A    between atoms: N_10  and  N_11
REMARK    5  A    between atoms: C_14  and  S_17
REMARK    6  A    between atoms: S_17  and  C_18
REMARK    7  A    between atoms: C_18  and  C_19
REMARK    8  A    between atoms: N_21  and  C_22
REMARK    9  A    between atoms: C_29  and  S_31
REMARK   10  A    between atoms: S_31  and  C_32
REMARK   11  A    between atoms: C_32  and  C_33
REMARK                            x       y       z     vdW  Elec       q    Type
REMARK                         _______ _______ _______ _____ _____    ______ ____
ROOT
ATOM      1  S   UNL     1       2.106  -9.364  -4.416  0.00  0.00    -0.075 S 
ENDROOT
BRANCH   1   5
ATOM      2  N   UNL     1       2.674  -4.425  -5.728  0.00  0.00    -0.205 N 
ATOM      3  C   UNL     1       2.815  -5.800  -5.759  0.00  0.00    +0.232 A 
ATOM      4  N   UNL     1       2.259  -6.654  -4.925  0.00  0.00    -0.186 NA
ATOM      5  C   UNL     1       2.613  -7.900  -5.255  0.00  0.00    +0.211 A 
ATOM      6  N   UNL     1       3.400  -7.856  -6.304  0.00  0.00    -0.144 NA
ATOM      7  N   UNL     1       3.541  -6.503  -6.653  0.00  0.00    -0.245 N 
ATOM      8  H   UNL     1       3.122  -3.876  -6.391  0.00  0.00    +0.177 HD
ATOM      9  H   UNL     1       4.061  -6.145  -7.390  0.00  0.00    +0.192 HD
BRANCH   2  11
ATOM     10  C   UNL     1       1.754  -2.532  -4.709  0.00  0.00    +0.138 C 
ATOM     11  N   UNL     1       1.885  -3.823  -4.738  0.00  0.00    -0.188 NA
BRANCH  10  15
ATOM     12  C   UNL     1      -0.638  -0.709  -1.712  0.00  0.00    +0.120 A 
ATOM     13  C   UNL     1       0.003   0.078  -2.660  0.00  0.00    +0.046 A 
ATOM     14  C   UNL     1       0.780  -0.509  -3.635  0.00  0.00    +0.013 A 
ATOM     15  C   UNL     1       0.923  -1.899  -3.668  0.00  0.00    -0.005 A 
ATOM     16  C   UNL     1       0.277  -2.687  -2.712  0.00  0.00    +0.013 A 
ATOM     17  C   UNL     1      -0.494  -2.090  -1.738  0.00  0.00    +0.046 A 
BRANCH  12  19
ATOM     18  C   UNL     1      -1.508   1.299  -0.784  0.00  0.00    +0.277 C 
ATOM     19  O   UNL     1      -1.403  -0.126  -0.753  0.00  0.00    -0.495 OA
ENDBRANCH  12  19
ENDBRANCH  10  15
ENDBRANCH   2  11
ENDBRANCH   1   5
BRANCH   1  20
ATOM     20  C   UNL     1       2.914 -10.701  -5.339  0.00  0.00    +0.173 C 
BRANCH  20  21
ATOM     21  C   UNL     1       2.558 -12.027  -4.718  0.00  0.00    +0.227 C 
ATOM     22  O   UNL     1       1.831 -12.066  -3.747  0.00  0.00    -0.275 OA
ATOM     23  N   UNL     1       3.048 -13.169  -5.240  0.00  0.00    -0.285 N 
ATOM     24  H   UNL     1       3.567 -13.144  -6.059  0.00  0.00    +0.155 HD
BRANCH  23  25
ATOM     25  C   UNL     1       2.809 -14.391  -4.598  0.00  0.00    +0.035 A 
ATOM     26  C   UNL     1       2.671 -15.562  -5.341  0.00  0.00    +0.025 A 
ATOM     27  C   UNL     1       2.437 -16.768  -4.735  0.00  0.00    +0.031 A 
ATOM     28  C   UNL     1       2.328 -16.864  -3.329  0.00  0.00    +0.080 A 
ATOM     29  C   UNL     1       2.473 -15.658  -2.606  0.00  0.00    +0.042 A 
ATOM     30  C   UNL     1       2.713 -14.452  -3.214  0.00  0.00    +0.040 A 
ATOM     31  S   UNL     1       2.275 -16.198  -0.924  0.00  0.00    -0.061 S 
ATOM     32  C   UNL     1       2.020 -17.932  -1.273  0.00  0.00    +0.136 A 
ATOM     33  N   UNL     1       2.101 -17.969  -2.584  0.00  0.00    -0.233 NA
BRANCH  32  34
ATOM     34  S   UNL     1       1.732 -19.256  -0.146  0.00  0.00    -0.095 S 
BRANCH  34  35
ATOM     35  C   UNL     1       1.570 -20.713  -1.213  0.00  0.00    +0.103 C 
BRANCH  35  36
ATOM     36  C   UNL     1       1.318 -21.932  -0.363  0.00  0.00    -0.023 C 
ATOM     37  C   UNL     1       0.178 -22.571  -0.456  0.00  0.00    +0.005 C 
ENDBRANCH  35  36
ENDBRANCH  34  35
ENDBRANCH  32  34
ENDBRANCH  23  25
ENDBRANCH  20  21
ENDBRANCH   1  20
TORSDOF 10
