REMARK  Name = ZINC57964067
REMARK  5 active torsions:
REMARK  status: ('A' for Active; 'I' for Inactive)
REMARK    1  A    between atoms: C_1  and  C_2
REMARK    2  A    between atoms: C_11  and  S_12
REMARK    3  A    between atoms: S_12  and  C_13
REMARK    4  A    between atoms: C_16  and  C_24
REMARK    5  A    between atoms: N_17  and  C_18
REMARK                            x       y       z     vdW  Elec       q    Type
REMARK                         _______ _______ _______ _____ _____    ______ ____
ROOT
ATOM      1  C   UNL     1       2.005   2.014   0.332  0.00  0.00    +0.201 A 
ATOM      2  N   UNL     1       0.758   2.369   0.544  0.00  0.00    -0.121 NA
ATOM      3  N   UNL     1       0.678   3.644   0.683  0.00  0.00    -0.128 NA
ATOM      4  C   UNL     1       1.869   4.185   0.568  0.00  0.00    +0.169 A 
ATOM      5  N   UNL     1       2.759   3.157   0.345  0.00  0.00    -0.270 N 
ENDROOT
BRANCH   4   6
ATOM      6  C   UNL     1       2.194   5.623   0.665  0.00  0.00    +0.023 A 
ATOM      7  C   UNL     1       3.428   6.094   0.213  0.00  0.00    +0.015 A 
ATOM      8  C   UNL     1       3.730   7.436   0.305  0.00  0.00    +0.050 A 
ATOM      9  C   UNL     1       2.810   8.323   0.845  0.00  0.00    +0.166 A 
ATOM     10  C   UNL     1       1.575   7.860   1.297  0.00  0.00    +0.167 A 
ATOM     11  C   UNL     1       1.265   6.516   1.203  0.00  0.00    +0.061 A 
ATOM     12  O   UNL     1       0.861   8.920   1.777  0.00  0.00    -0.453 OA
ATOM     13  C   UNL     1       1.825   9.968   1.990  0.00  0.00    +0.466 C 
ATOM     14  O   UNL     1       2.867   9.673   1.041  0.00  0.00    -0.453 OA
ENDBRANCH   4   6
BRANCH   5  15
ATOM     15  C   UNL     1       4.145   3.260   0.167  0.00  0.00    +0.051 A 
ATOM     16  C   UNL     1       4.950   3.701   1.209  0.00  0.00    +0.026 A 
ATOM     17  C   UNL     1       6.316   3.801   1.030  0.00  0.00    +0.002 A 
ATOM     18  C   UNL     1       6.882   3.464  -0.186  0.00  0.00    +0.000 A 
ATOM     19  C   UNL     1       6.083   3.026  -1.226  0.00  0.00    +0.002 A 
ATOM     20  C   UNL     1       4.718   2.917  -1.051  0.00  0.00    +0.026 A 
ENDBRANCH   5  15
BRANCH   1  21
ATOM     21  S   UNL     1       2.598   0.374   0.084  0.00  0.00    -0.044 S 
BRANCH  21  32
ATOM     22  C   UNL     1       1.857  -1.719   2.140  0.00  0.00    +0.046 C 
ATOM     23  C   UNL     1       0.887  -1.524   1.003  0.00  0.00    -0.022 A 
ATOM     24  C   UNL     1      -0.343  -2.314   0.927  0.00  0.00    +0.002 A 
ATOM     25  C   UNL     1      -0.641  -3.267   1.909  0.00  0.00    +0.010 A 
ATOM     26  C   UNL     1      -1.794  -3.994   1.821  0.00  0.00    +0.001 A 
ATOM     27  C   UNL     1      -2.673  -3.797   0.765  0.00  0.00    +0.002 A 
ATOM     28  C   UNL     1      -2.400  -2.865  -0.212  0.00  0.00    +0.026 A 
ATOM     29  C   UNL     1      -1.232  -2.112  -0.144  0.00  0.00    +0.049 A 
ATOM     30  N   UNL     1      -0.947  -1.175  -1.116  0.00  0.00    -0.321 N 
ATOM     31  C   UNL     1       0.177  -0.438  -1.065  0.00  0.00    +0.263 A 
ATOM     32  C   UNL     1       1.134  -0.605   0.029  0.00  0.00    +0.083 A 
ATOM     33  O   UNL     1       0.399   0.381  -1.939  0.00  0.00    -0.267 OA
ATOM     34  H   UNL     1      -1.569  -1.045  -1.850  0.00  0.00    +0.169 HD
ENDBRANCH  21  32
ENDBRANCH   1  21
TORSDOF 4
