REMARK  Name = ZINC09245844
REMARK  7 active torsions:
REMARK  status: ('A' for Active; 'I' for Inactive)
REMARK    1  A    between atoms: C_4  and  C_7
REMARK    2  A    between atoms: C_7  and  C_9
REMARK    3  A    between atoms: C_7  and  S_26
REMARK    4  A    between atoms: N_11  and  C_12
REMARK    5  A    between atoms: C_16  and  S_18
REMARK    6  A    between atoms: S_18  and  N_21
REMARK    7  A    between atoms: S_26  and  C_27
REMARK                            x       y       z     vdW  Elec       q    Type
REMARK                         _______ _______ _______ _____ _____    ______ ____
ROOT
ATOM      1  C   UNL     1       5.121  -0.847  -4.157  0.00  0.00    +0.235 C 
ATOM      2  O   UNL     1       4.905  -0.143  -5.121  0.00  0.00    -0.274 OA
ATOM      3  N   UNL     1       4.589  -0.531  -2.960  0.00  0.00    -0.284 N 
ATOM      4  H   UNL     1       4.822  -1.049  -2.174  0.00  0.00    +0.155 HD
ENDROOT
BRANCH   3   5
ATOM      5  C   UNL     1       3.699   0.543  -2.851  0.00  0.00    +0.035 A 
ATOM      6  C   UNL     1       2.840   0.845  -3.900  0.00  0.00    +0.023 A 
ATOM      7  C   UNL     1       1.964   1.907  -3.789  0.00  0.00    +0.004 A 
ATOM      8  C   UNL     1       1.942   2.670  -2.636  0.00  0.00    +0.029 A 
ATOM      9  C   UNL     1       2.796   2.372  -1.590  0.00  0.00    +0.110 A 
ATOM     10  C   UNL     1       3.678   1.315  -1.696  0.00  0.00    +0.052 A 
BRANCH   9  11
ATOM     11  S   UNL     1       2.764   3.348  -0.123  0.00  0.00    +0.073 S 
ATOM     12  O   UNL     1       2.236   4.615  -0.490  0.00  0.00    -0.150 OA
ATOM     13  O   UNL     1       4.038   3.202   0.489  0.00  0.00    -0.150 OA
BRANCH  11  14
ATOM     14  N   UNL     1       1.664   2.655   0.902  0.00  0.00    -0.205 N 
ATOM     15  C   UNL     1       1.893   1.403   1.408  0.00  0.00    +0.088 C 
ATOM     16  C   UNL     1       2.904  -0.607   1.832  0.00  0.00    +0.114 C 
ATOM     17  C   UNL     1       1.438  -0.795   2.285  0.00  0.00    +0.028 C 
ATOM     18  C   UNL     1       0.961   0.678   2.354  0.00  0.00    +0.072 C 
ATOM     19  H   UNL     1       0.855   3.135   1.141  0.00  0.00    +0.175 HD
ATOM     20  N   UNL     1       2.944   0.695   1.134  0.00  0.00    -0.375 N 
ATOM     21  H   UNL     1       3.704   1.000   0.514  0.00  0.00    +0.161 HD
ENDBRANCH  11  14
ENDBRANCH   9  11
ENDBRANCH   3   5
BRANCH   1  22
ATOM     22  C   UNL     1       5.984  -2.075  -4.298  0.00  0.00    +0.167 C 
BRANCH  22  26
ATOM     23  C   UNL     1       9.925  -1.213  -2.894  0.00  0.00    +0.000 A 
ATOM     24  C   UNL     1       9.182  -2.214  -2.297  0.00  0.00    +0.000 A 
ATOM     25  C   UNL     1       7.906  -2.493  -2.751  0.00  0.00    +0.005 A 
ATOM     26  C   UNL     1       7.374  -1.771  -3.803  0.00  0.00    -0.025 A 
ATOM     27  C   UNL     1       8.119  -0.773  -4.404  0.00  0.00    +0.005 A 
ATOM     28  C   UNL     1       9.393  -0.492  -3.946  0.00  0.00    +0.000 A 
ENDBRANCH  22  26
BRANCH  22  29
ATOM     29  S   UNL     1       6.057  -2.565  -6.043  0.00  0.00    -0.108 S 
BRANCH  29  30
ATOM     30  C   UNL     1       6.964  -4.075  -6.024  0.00  0.00    +0.009 A 
ATOM     31  C   UNL     1       7.432  -4.591  -4.821  0.00  0.00    +0.015 A 
ATOM     32  C   UNL     1       8.139  -5.777  -4.809  0.00  0.00    +0.001 A 
ATOM     33  C   UNL     1       8.390  -6.447  -5.993  0.00  0.00    +0.000 A 
ATOM     34  C   UNL     1       7.930  -5.933  -7.192  0.00  0.00    +0.001 A 
ATOM     35  C   UNL     1       7.219  -4.750  -7.212  0.00  0.00    +0.015 A 
ENDBRANCH  29  30
ENDBRANCH  22  29
ENDBRANCH   1  22
TORSDOF 7
