REMARK  Name = ZINC08821887
REMARK  2 active torsions:
REMARK  status: ('A' for Active; 'I' for Inactive)
REMARK    1  A    between atoms: C_5  and  N_7
REMARK    2  A    between atoms: C_18  and  C_19
REMARK                            x       y       z     vdW  Elec       q    Type
REMARK                         _______ _______ _______ _____ _____    ______ ____
ROOT
ATOM      1  N   UNL     1      -0.544  12.020  -1.578  0.00  0.00    -0.325 N 
ATOM      2  C   UNL     1      -1.646  11.050  -1.623  0.00  0.00    +0.124 C 
ATOM      3  C   UNL     1      -1.550  10.116  -0.412  0.00  0.00    +0.125 C 
ATOM      4  N   UNL     1      -0.203   9.526  -0.384  0.00  0.00    -0.308 N 
ATOM      5  C   UNL     1       0.955  10.429  -0.468  0.00  0.00    +0.125 C 
ATOM      6  C   UNL     1       0.760  11.351  -1.682  0.00  0.00    +0.124 C 
ATOM      7  C   UNL     1      -0.031   8.170  -0.276  0.00  0.00    +0.154 C 
ATOM      8  N   UNL     1      -0.957   7.229  -0.185  0.00  0.00    -0.154 NA
ATOM      9  C   UNL     1      -0.656   5.951  -0.091  0.00  0.00    +0.276 C 
ATOM     10  O   UNL     1      -1.520   5.091  -0.015  0.00  0.00    -0.267 OA
ATOM     11  C   UNL     1       0.782   5.613  -0.078  0.00  0.00    +0.082 C 
ATOM     12  C   UNL     1       1.393   4.397   0.012  0.00  0.00    +0.066 C 
ATOM     13  S   UNL     1       1.497   7.246  -0.222  0.00  0.00    -0.051 S 
ENDROOT
BRANCH   1  18
ATOM     14  C   UNL     1      -0.866  13.579  -4.893  0.00  0.00    +0.002 A 
ATOM     15  C   UNL     1      -0.978  14.913  -4.546  0.00  0.00    +0.003 A 
ATOM     16  C   UNL     1      -0.947  15.290  -3.216  0.00  0.00    +0.040 A 
ATOM     17  C   UNL     1      -0.809  14.333  -2.228  0.00  0.00    +0.144 A 
ATOM     18  C   UNL     1      -0.690  12.991  -2.574  0.00  0.00    +0.065 A 
ATOM     19  C   UNL     1      -0.721  12.617  -3.911  0.00  0.00    +0.026 A 
ATOM     20  F   UNL     1      -0.784  14.701  -0.928  0.00  0.00    -0.204 F 
ENDBRANCH   1  18
BRANCH  12  21
ATOM     21  C   UNL     1       0.632   3.213  -0.117  0.00  0.00    +0.131 A 
ATOM     22  C   UNL     1       1.097   1.924   0.058  0.00  0.00    +0.050 A 
ATOM     23  C   UNL     1       0.006   1.073  -0.168  0.00  0.00    +0.057 A 
ATOM     24  C   UNL     1      -1.056   1.855  -0.472  0.00  0.00    +0.171 A 
ATOM     25  O   UNL     1      -0.678   3.140  -0.435  0.00  0.00    -0.449 OA
ATOM     26 BR   UNL     1      -2.795   1.234  -0.878  0.00  0.00    -0.008 Br
ENDBRANCH  12  21
TORSDOF 2
