REMARK  Name = ZINC01776913
REMARK  16 active torsions:
REMARK  status: ('A' for Active; 'I' for Inactive)
REMARK    1  A    between atoms: C_1  and  C_2
REMARK    2  A    between atoms: C_2  and  C_3
REMARK    3  A    between atoms: C_3  and  C_4
REMARK    4  A    between atoms: C_4  and  C_5
REMARK    5  A    between atoms: C_5  and  O_6
REMARK    6  A    between atoms: O_6  and  C_7
REMARK    7  A    between atoms: C_10  and  C_15
REMARK    8  A    between atoms: C_12  and  O_13
REMARK    9  A    between atoms: O_13  and  C_14
REMARK   10  A    between atoms: C_24  and  C_32
REMARK   11  A    between atoms: C_25  and  N_31
REMARK   12  A    between atoms: C_26  and  C_27
REMARK   13  A    between atoms: C_26  and  C_29
REMARK   14  A    between atoms: C_34  and  O_36
REMARK   15  A    between atoms: O_36  and  C_37
REMARK   16  A    between atoms: C_37  and  C_38
REMARK                            x       y       z     vdW  Elec       q    Type
REMARK                         _______ _______ _______ _____ _____    ______ ____
ROOT
ATOM      1  C   UNL     1       3.072   6.435  -2.268  0.00  0.00    +0.068 C 
ATOM      2  C   UNL     1       4.037   5.749  -1.299  0.00  0.00    +0.048 C 
ATOM      3  C   UNL     1       3.314   5.145  -0.117  0.00  0.00    +0.120 C 
ATOM      4  N   UNL     1       3.219   3.687  -0.242  0.00  0.00    -0.263 N 
ATOM      5  C   UNL     1       4.473   2.948  -0.476  0.00  0.00    +0.138 C 
ATOM      6  C   UNL     1       5.104   3.534  -1.718  0.00  0.00    -0.003 C 
ATOM      7  C   UNL     1       4.880   4.783  -2.076  0.00  0.00    -0.026 C 
ATOM      8  C   UNL     1       5.450   5.274  -3.360  0.00  0.00    +0.074 C 
ATOM      9  C   UNL     1       4.963   6.415  -3.910  0.00  0.00    +0.054 C 
ATOM     10  C   UNL     1       3.881   7.241  -3.284  0.00  0.00    +0.188 C 
ATOM     11  C   UNL     1       2.035   3.049  -0.143  0.00  0.00    +0.403 C 
ATOM     12  O   UNL     1       1.018   3.683   0.055  0.00  0.00    -0.226 OA
ENDROOT
BRANCH   1  16
ATOM     13  C   UNL     1       0.745   3.479  -4.303  0.00  0.00    +0.162 A 
ATOM     14  C   UNL     1       0.250   4.090  -3.163  0.00  0.00    +0.050 A 
ATOM     15  C   UNL     1       1.006   5.041  -2.504  0.00  0.00    +0.008 A 
ATOM     16  C   UNL     1       2.253   5.393  -2.987  0.00  0.00    -0.037 A 
ATOM     17  C   UNL     1       2.754   4.787  -4.124  0.00  0.00    +0.053 A 
ATOM     18  C   UNL     1       2.002   3.829  -4.786  0.00  0.00    +0.162 A 
BRANCH  18  19
ATOM     19  O   UNL     1       2.493   3.232  -5.905  0.00  0.00    -0.491 OA
ATOM     20  C   UNL     1       3.790   3.641  -6.343  0.00  0.00    +0.277 C 
ENDBRANCH  18  19
BRANCH  13  21
ATOM     21  O   UNL     1       0.004   2.540  -4.950  0.00  0.00    -0.488 OA
BRANCH  21  22
ATOM     22  C   UNL     1      -1.277   2.231  -4.397  0.00  0.00    +0.229 C 
BRANCH  22  23
ATOM     23  C   UNL     1      -1.958   1.161  -5.254  0.00  0.00    +0.041 C 
BRANCH  23  24
ATOM     24  C   UNL     1      -3.329   0.831  -4.662  0.00  0.00    +0.003 C 
BRANCH  24  26
ATOM     25  C   UNL     1      -5.382  -0.569  -4.927  0.00  0.00    +0.004 C 
ATOM     26  C   UNL     1      -4.010  -0.239  -5.519  0.00  0.00    -0.003 C 
ENDBRANCH  24  26
ENDBRANCH  23  24
ENDBRANCH  22  23
ENDBRANCH  21  22
ENDBRANCH  13  21
ENDBRANCH   1  16
BRANCH   9  27
ATOM     27  N   UNL     1       5.489   6.833  -5.101  0.00  0.00    -0.358 N 
ATOM     28  H   UNL     1       5.116   7.754  -5.573  0.00  0.00    +0.142 HD
ATOM     29  H   UNL     1       6.284   6.249  -5.586  0.00  0.00    +0.142 HD
ENDBRANCH   9  27
BRANCH  10  30
ATOM     30  C   UNL     1       2.977   7.728  -4.340  0.00  0.00    +0.091 C 
ATOM     31  N   UNL     1       2.280   8.104  -5.154  0.00  0.00    -0.194 NA
ENDBRANCH  10  30
BRANCH  10  32
ATOM     32  C   UNL     1       4.490   8.397  -2.606  0.00  0.00    +0.091 C 
ATOM     33  N   UNL     1       4.960   9.288  -2.081  0.00  0.00    -0.194 NA
ENDBRANCH  10  32
BRANCH   8  34
ATOM     34  C   UNL     1       6.502   4.551  -4.008  0.00  0.00    +0.101 C 
ATOM     35  N   UNL     1       7.336   3.977  -4.523  0.00  0.00    -0.191 NA
ENDBRANCH   8  34
BRANCH  11  36
ATOM     36  O   UNL     1       1.981   1.709  -0.262  0.00  0.00    -0.451 OA
BRANCH  36  37
ATOM     37  C   UNL     1       0.673   1.089  -0.144  0.00  0.00    +0.230 C 
ATOM     38  C   UNL     1       0.810  -0.426  -0.306  0.00  0.00    +0.048 C 
ENDBRANCH  36  37
ENDBRANCH  11  36
TORSDOF 13
