REMARK  Name = ZINC39987058
REMARK  14 active torsions:
REMARK  status: ('A' for Active; 'I' for Inactive)
REMARK    1  A    between atoms: C_1  and  C_2
REMARK    2  A    between atoms: C_2  and  C_3
REMARK    3  A    between atoms: C_4  and  C_25
REMARK    4  A    between atoms: C_10  and  O_24
REMARK    5  A    between atoms: C_11  and  C_14
REMARK    6  A    between atoms: C_14  and  N_15
REMARK    7  A    between atoms: N_15  and  C_16
REMARK    8  A    between atoms: N_15  and  C_20
REMARK    9  A    between atoms: C_16  and  C_17
REMARK   10  A    between atoms: C_17  and  C_18
REMARK   11  A    between atoms: C_17  and  C_19
REMARK   12  A    between atoms: C_20  and  C_21
REMARK   13  A    between atoms: C_21  and  C_22
REMARK   14  A    between atoms: C_21  and  C_23
REMARK                            x       y       z     vdW  Elec       q    Type
REMARK                         _______ _______ _______ _____ _____    ______ ____
ROOT
ATOM      1  C   UNL     1      -1.155  -0.452   0.309  0.00  0.00    +0.119 A 
ATOM      2  C   UNL     1      -1.642  -0.742  -0.931  0.00  0.00    +0.092 A 
ATOM      3  C   UNL     1      -2.947  -1.426  -1.022  0.00  0.00    +0.202 A 
ATOM      4  O   UNL     1      -3.347  -1.919  -2.063  0.00  0.00    -0.286 OA
ATOM      5  C   UNL     1      -3.738  -1.477   0.223  0.00  0.00    +0.065 A 
ATOM      6  C   UNL     1      -5.079  -1.860   0.217  0.00  0.00    +0.019 A 
ATOM      7  C   UNL     1      -5.780  -1.888   1.389  0.00  0.00    +0.046 A 
ATOM      8  C   UNL     1      -5.160  -1.536   2.587  0.00  0.00    +0.122 A 
ATOM      9  C   UNL     1      -3.828  -1.157   2.607  0.00  0.00    +0.020 A 
ATOM     10  C   UNL     1      -3.100  -1.126   1.425  0.00  0.00    +0.144 A 
ATOM     11  O   UNL     1      -1.798  -0.778   1.430  0.00  0.00    -0.458 OA
ENDROOT
BRANCH   2  12
ATOM     12  C   UNL     1      -0.886  -0.383  -2.147  0.00  0.00    +0.116 A 
ATOM     13  N   UNL     1       0.304   0.170  -2.246  0.00  0.00    -0.239 NA
ATOM     14  C   UNL     1       0.878   0.445  -3.434  0.00  0.00    +0.079 A 
ATOM     15  C   UNL     1       2.142   1.033  -3.679  0.00  0.00    +0.029 A 
ATOM     16  C   UNL     1       2.577   1.245  -4.950  0.00  0.00    +0.002 A 
ATOM     17  C   UNL     1       1.808   0.897  -6.051  0.00  0.00    +0.001 A 
ATOM     18  C   UNL     1       0.567   0.319  -5.856  0.00  0.00    +0.017 A 
ATOM     19  C   UNL     1       0.118   0.101  -4.577  0.00  0.00    +0.040 A 
ATOM     20  S   UNL     1      -1.351  -0.594  -3.859  0.00  0.00    -0.067 S 
ENDBRANCH   2  12
BRANCH   1  22
ATOM     21  C   UNL     1      -0.060   1.773   0.338  0.00  0.00    +0.012 C 
ATOM     22  C   UNL     1       0.168   0.262   0.416  0.00  0.00    +0.072 C 
ENDBRANCH   1  22
BRANCH   8  23
ATOM     23  O   UNL     1      -5.869  -1.565   3.744  0.00  0.00    -0.506 OA
ATOM     24  H   UNL     1      -5.781  -2.391   4.238  0.00  0.00    +0.292 HD
ENDBRANCH   8  23
BRANCH   9  25
ATOM     25  C   UNL     1      -3.171  -0.779   3.910  0.00  0.00    -0.036 C 
BRANCH  25  26
ATOM     26  N   UNL     1      -2.721  -1.994   4.602  0.00  0.00    +0.383 N 
ATOM     27  H   UNL     1      -3.500  -2.625   4.715  0.00  0.00    -0.081 HD
BRANCH  26  28
ATOM     28  C   UNL     1      -1.671  -2.648   3.809  0.00  0.00    -0.075 C 
BRANCH  28  29
ATOM     29  C   UNL     1      -1.290  -3.977   4.466  0.00  0.00    -0.034 C 
ATOM     30  C   UNL     1      -2.486  -4.930   4.420  0.00  0.00    +0.005 C 
ATOM     31  C   UNL     1      -0.113  -4.599   3.713  0.00  0.00    +0.005 C 
ENDBRANCH  28  29
ENDBRANCH  26  28
BRANCH  26  32
ATOM     32  C   UNL     1      -2.186  -1.635   5.922  0.00  0.00    -0.075 C 
BRANCH  32  33
ATOM     33  C   UNL     1      -3.312  -1.075   6.794  0.00  0.00    -0.034 C 
ATOM     34  C   UNL     1      -4.344  -2.173   7.061  0.00  0.00    +0.005 C 
ATOM     35  C   UNL     1      -2.733  -0.585   8.122  0.00  0.00    +0.005 C 
ENDBRANCH  32  33
ENDBRANCH  26  32
ENDBRANCH  25  26
ENDBRANCH   9  25
TORSDOF 9
