REMARK  Name = ZINC59014459
REMARK  8 active torsions:
REMARK  status: ('A' for Active; 'I' for Inactive)
REMARK    1  A    between atoms: C_1  and  C_2
REMARK    2  A    between atoms: C_5  and  N_9
REMARK    3  A    between atoms: C_6  and  C_8
REMARK    4  A    between atoms: C_10  and  C_12
REMARK    5  A    between atoms: C_12  and  S_13
REMARK    6  A    between atoms: S_13  and  C_14
REMARK    7  A    between atoms: N_19  and  N_20
REMARK    8  A    between atoms: C_21  and  C_22
REMARK                            x       y       z     vdW  Elec       q    Type
REMARK                         _______ _______ _______ _____ _____    ______ ____
ROOT
ATOM      1  C   UNL     1      -0.356  -8.692  -2.728  0.00  0.00    +0.211 A 
ATOM      2  N   UNL     1      -0.455  -9.564  -3.736  0.00  0.00    -0.186 NA
ATOM      3  C   UNL     1      -0.509 -10.790  -3.258  0.00  0.00    +0.232 A 
ATOM      4  N   UNL     1      -0.445 -10.715  -1.912  0.00  0.00    -0.245 N 
ATOM      5  N   UNL     1      -0.341  -9.351  -1.594  0.00  0.00    -0.144 NA
ATOM      6  N   UNL     1      -0.614 -11.950  -4.004  0.00  0.00    -0.205 N 
ATOM      7  H   UNL     1      -0.648 -12.811  -3.559  0.00  0.00    +0.177 HD
ATOM      8  H   UNL     1      -0.463 -11.457  -1.287  0.00  0.00    +0.192 HD
ENDROOT
BRANCH   6   9
ATOM      9  N   UNL     1      -0.672 -11.881  -5.402  0.00  0.00    -0.188 NA
ATOM     10  C   UNL     1      -0.771 -12.970  -6.102  0.00  0.00    +0.139 C 
BRANCH  10  11
ATOM     11  C   UNL     1      -0.832 -12.897  -7.573  0.00  0.00    +0.013 A 
ATOM     12  C   UNL     1      -0.944 -14.067  -8.329  0.00  0.00    +0.012 A 
ATOM     13  C   UNL     1      -1.002 -13.992  -9.705  0.00  0.00    +0.021 A 
ATOM     14  C   UNL     1      -0.947 -12.761 -10.338  0.00  0.00    +0.042 A 
ATOM     15  C   UNL     1      -0.836 -11.598  -9.596  0.00  0.00    +0.040 A 
ATOM     16  C   UNL     1      -0.784 -11.658  -8.218  0.00  0.00    +0.051 A 
ATOM     17 CL   UNL     1      -0.651 -10.198  -7.288  0.00  0.00    -0.083 Cl
ATOM     18 CL   UNL     1      -1.019 -12.677 -12.071  0.00  0.00    -0.083 Cl
ENDBRANCH  10  11
ENDBRANCH   6   9
BRANCH   1  19
ATOM     19  S   UNL     1      -0.255  -6.941  -2.895  0.00  0.00    -0.075 S 
BRANCH  19  20
ATOM     20  C   UNL     1      -0.134  -6.343  -1.187  0.00  0.00    +0.173 C 
BRANCH  20  22
ATOM     21  N   UNL     1       0.059  -4.170  -0.021  0.00  0.00    -0.285 N 
ATOM     22  C   UNL     1      -0.040  -4.839  -1.187  0.00  0.00    +0.227 C 
ATOM     23  O   UNL     1      -0.054  -4.230  -2.236  0.00  0.00    -0.275 OA
ATOM     24  H   UNL     1       0.135  -4.658   0.814  0.00  0.00    +0.155 HD
BRANCH  21  29
ATOM     25  C   UNL     1       0.025   1.503   0.005  0.00  0.00    +0.044 C 
ATOM     26  C   UNL     1       0.034  -0.004  -0.002  0.00  0.00    -0.050 A 
ATOM     27  C   UNL     1       0.632  -0.685  -1.046  0.00  0.00    +0.005 A 
ATOM     28  C   UNL     1       0.641  -2.066  -1.055  0.00  0.00    +0.024 A 
ATOM     29  C   UNL     1       0.051  -2.771  -0.014  0.00  0.00    +0.036 A 
ATOM     30  C   UNL     1      -0.548  -2.083   1.033  0.00  0.00    -0.029 A 
ATOM     31  C   UNL     1      -0.550  -0.702   1.039  0.00  0.00    +0.008 A 
ATOM     32  C   UNL     1      -1.190  -2.843   2.165  0.00  0.00    +0.045 C 
ENDBRANCH  21  29
ENDBRANCH  20  22
ENDBRANCH  19  20
ENDBRANCH   1  19
TORSDOF 6
