REMARK  Name = ZINC67129749
REMARK  8 active torsions:
REMARK  status: ('A' for Active; 'I' for Inactive)
REMARK    1  A    between atoms: C_1  and  C_2
REMARK    2  A    between atoms: C_2  and  C_3
REMARK    3  A    between atoms: C_3  and  C_5
REMARK    4  A    between atoms: C_3  and  C_6
REMARK    5  A    between atoms: C_6  and  C_8
REMARK    6  A    between atoms: C_6  and  N_11
REMARK    7  A    between atoms: C_12  and  C_14
REMARK    8  A    between atoms: C_18  and  N_20
REMARK                            x       y       z     vdW  Elec       q    Type
REMARK                         _______ _______ _______ _____ _____    ______ ____
ROOT
ATOM      1  C   UNL     1       0.792  -4.911   3.712  0.00  0.00    +0.039 A 
ATOM      2  C   UNL     1       1.353  -4.241   4.801  0.00  0.00    +0.013 A 
ATOM      3  C   UNL     1       1.091  -4.670   6.085  0.00  0.00    +0.003 A 
ATOM      4  C   UNL     1       0.274  -5.765   6.300  0.00  0.00    +0.025 A 
ATOM      5  C   UNL     1      -0.289  -6.439   5.224  0.00  0.00    +0.057 A 
ATOM      6  C   UNL     1      -0.037  -6.011   3.929  0.00  0.00    +0.038 A 
ENDROOT
BRANCH   5   7
ATOM      7  N   UNL     1      -1.116  -7.546   5.447  0.00  0.00    -0.188 N 
ATOM      8  C   UNL     1      -2.300  -7.638   4.807  0.00  0.00    +0.240 C 
ATOM      9  O   UNL     1      -2.677  -6.747   4.076  0.00  0.00    -0.273 OA
ATOM     10  C   UNL     1      -3.150  -8.877   5.019  0.00  0.00    +0.093 C 
ATOM     11  C   UNL     1      -3.873  -8.709   6.361  0.00  0.00    +0.040 C 
ATOM     12  C   UNL     1      -4.398 -10.019   6.859  0.00  0.00    -0.030 C 
ATOM     13  C   UNL     1      -3.998 -11.174   6.436  0.00  0.00    -0.030 C 
ATOM     14  C   UNL     1      -2.962 -11.355   5.368  0.00  0.00    +0.040 C 
ATOM     15  C   UNL     1      -2.192 -10.072   5.103  0.00  0.00    +0.092 C 
ATOM     16  C   UNL     1      -1.178  -9.812   6.181  0.00  0.00    +0.234 C 
ATOM     17  O   UNL     1      -0.790 -10.710   6.897  0.00  0.00    -0.274 OA
ATOM     18  N   UNL     1      -0.704  -8.555   6.330  0.00  0.00    -0.227 N 
ATOM     19  H   UNL     1      -0.084  -8.352   7.048  0.00  0.00    +0.173 HD
ENDBRANCH   5   7
BRANCH   1  21
ATOM     20  N   UNL     1       1.872  -3.390   2.127  0.00  0.00    -0.300 N 
ATOM     21  C   UNL     1       1.070  -4.453   2.334  0.00  0.00    +0.245 C 
ATOM     22  O   UNL     1       0.576  -5.035   1.389  0.00  0.00    -0.270 OA
ATOM     23  H   UNL     1       2.266  -2.925   2.882  0.00  0.00    +0.150 HD
BRANCH  20  24
ATOM     24  C   UNL     1       2.148  -2.936   0.762  0.00  0.00    +0.162 C 
BRANCH  24  25
ATOM     25  C   UNL     1       3.295  -3.729   0.191  0.00  0.00    +0.231 C 
ATOM     26  O   UNL     1       4.058  -4.311   0.932  0.00  0.00    -0.274 OA
ATOM     27  N   UNL     1       3.473  -3.792  -1.144  0.00  0.00    -0.328 N 
ATOM     28  H   UNL     1       2.825  -3.383  -1.739  0.00  0.00    +0.145 HD
ATOM     29  H   UNL     1       4.248  -4.245  -1.509  0.00  0.00    +0.145 HD
ENDBRANCH  24  25
BRANCH  24  30
ATOM     30  C   UNL     1       2.516  -1.450   0.783  0.00  0.00    +0.015 C 
ATOM     31  C   UNL     1       3.739  -1.241   1.677  0.00  0.00    +0.010 C 
BRANCH  30  33
ATOM     32  C   UNL     1       1.676   0.850   1.278  0.00  0.00    +0.004 C 
ATOM     33  C   UNL     1       1.339  -0.641   1.331  0.00  0.00    +0.002 C 
ENDBRANCH  30  33
ENDBRANCH  24  30
ENDBRANCH  20  24
ENDBRANCH   1  21
TORSDOF 6
