REMARK  Name = ZINC02376512
REMARK  8 active torsions:
REMARK  status: ('A' for Active; 'I' for Inactive)
REMARK    1  A    between atoms: C_1  and  C_2
REMARK    2  A    between atoms: C_7  and  N_30
REMARK    3  A    between atoms: C_8  and  C_13
REMARK    4  A    between atoms: N_17  and  C_21
REMARK    5  A    between atoms: C_21  and  C_22
REMARK    6  A    between atoms: C_22  and  C_23
REMARK    7  A    between atoms: C_23  and  C_24
REMARK    8  A    between atoms: C_35  and  N_65
REMARK                            x       y       z     vdW  Elec       q    Type
REMARK                         _______ _______ _______ _____ _____    ______ ____
ROOT
ATOM      1  C   UNL     1      -7.368  -0.742  -0.178  0.00  0.00    +0.045 C 
ATOM      2  C   UNL     1      -5.911  -0.461   0.086  0.00  0.00    -0.034 A 
ATOM      3  C   UNL     1      -5.528   0.752   0.675  0.00  0.00    +0.008 A 
ATOM      4  C   UNL     1      -4.208   1.000   0.909  0.00  0.00    +0.047 A 
ATOM      5  C   UNL     1      -3.249   0.033   0.556  0.00  0.00    +0.142 A 
ATOM      6  N   UNL     1      -1.960   0.284   0.789  0.00  0.00    -0.214 NA
ATOM      7  C   UNL     1      -1.014  -0.590   0.477  0.00  0.00    +0.136 A 
ATOM      8  C   UNL     1      -1.372  -1.820  -0.123  0.00  0.00    +0.081 A 
ATOM      9  C   UNL     1      -2.743  -2.078  -0.360  0.00  0.00    +0.267 A 
ATOM     10  O   UNL     1      -3.098  -3.127  -0.871  0.00  0.00    -0.267 OA
ATOM     11  N   UNL     1      -3.652  -1.141  -0.016  0.00  0.00    -0.267 N 
ATOM     12  C   UNL     1      -4.975  -1.378  -0.246  0.00  0.00    +0.099 A 
ENDROOT
BRANCH   8  13
ATOM     13  C   UNL     1      -0.385  -2.771  -0.472  0.00  0.00    +0.037 C 
ATOM     14  C   UNL     1       0.655  -2.410  -1.280  0.00  0.00    +0.077 C 
ATOM     15  C   UNL     1       1.799  -3.161  -1.674  0.00  0.00    +0.258 C 
ATOM     16  O   UNL     1       1.963  -4.303  -1.284  0.00  0.00    -0.269 OA
ATOM     17  N   UNL     1       2.678  -2.583  -2.474  0.00  0.00    -0.255 N 
ATOM     18  C   UNL     1       2.496  -1.315  -2.906  0.00  0.00    +0.121 C 
ATOM     19  S   UNL     1       3.493  -0.378  -3.934  0.00  0.00    -0.027 S 
ATOM     20  S   UNL     1       0.946  -0.869  -2.137  0.00  0.00    -0.061 S 
BRANCH  17  21
ATOM     21  C   UNL     1       3.866  -3.327  -2.899  0.00  0.00    +0.115 C 
BRANCH  21  22
ATOM     22  C   UNL     1       3.560  -4.081  -4.195  0.00  0.00    +0.024 C 
BRANCH  22  23
ATOM     23  C   UNL     1       4.801  -4.858  -4.638  0.00  0.00    +0.036 C 
BRANCH  23  24
ATOM     24  C   UNL     1       4.499  -5.600  -5.914  0.00  0.00    -0.047 A 
ATOM     25  C   UNL     1       4.001  -6.889  -5.863  0.00  0.00    +0.003 A 
ATOM     26  C   UNL     1       3.720  -7.568  -7.034  0.00  0.00    +0.000 A 
ATOM     27  C   UNL     1       3.946  -6.963  -8.256  0.00  0.00    +0.000 A 
ATOM     28  C   UNL     1       4.448  -5.676  -8.307  0.00  0.00    +0.000 A 
ATOM     29  C   UNL     1       4.725  -4.995  -7.136  0.00  0.00    +0.003 A 
ENDBRANCH  23  24
ENDBRANCH  22  23
ENDBRANCH  21  22
ENDBRANCH  17  21
ENDBRANCH   8  13
BRANCH   7  30
ATOM     30  N   UNL     1       0.309  -0.300   0.730  0.00  0.00    -0.318 N 
ATOM     31  C   UNL     1       0.471   1.100   1.146  0.00  0.00    +0.088 C 
ATOM     32  C   UNL     1       1.959   1.402   1.340  0.00  0.00    -0.060 C 
ATOM     33  C   UNL     1       2.352  -0.912   1.933  0.00  0.00    -0.060 C 
ATOM     34  C   UNL     1       0.864  -1.214   1.739  0.00  0.00    +0.088 C 
ATOM     35  C   UNL     1       3.925   0.797   2.619  0.00  0.00    -0.096 C 
ATOM     36  N   UNL     1       2.499   0.492   2.372  0.00  0.00    +0.380 N 
ATOM     37  H   UNL     1       1.974   0.626   3.244  0.00  0.00    -0.082 HD
ENDBRANCH   7  30
TORSDOF 6
