REMARK  Name = ZINC12582450
REMARK  11 active torsions:
REMARK  status: ('A' for Active; 'I' for Inactive)
REMARK    1  A    between atoms: C_1  and  C_2
REMARK    2  A    between atoms: C_2  and  O_3
REMARK    3  A    between atoms: O_3  and  C_4
REMARK    4  A    between atoms: C_4  and  C_6
REMARK    5  A    between atoms: C_10  and  N_11
REMARK    6  A    between atoms: C_12  and  C_14
REMARK    7  A    between atoms: C_14  and  C_16
REMARK    8  A    between atoms: C_14  and  S_22
REMARK    9  A    between atoms: S_22  and  C_23
REMARK   10  A    between atoms: C_25  and  C_29
REMARK   11  A    between atoms: C_31  and  C_35
REMARK                            x       y       z     vdW  Elec       q    Type
REMARK                         _______ _______ _______ _____ _____    ______ ____
ROOT
ATOM      1  N   UNL     1      -3.034  -2.523   2.498  0.00  0.00    -0.278 N 
ATOM      2  C   UNL     1      -3.809  -2.866   3.546  0.00  0.00    +0.235 C 
ATOM      3  O   UNL     1      -4.910  -3.338   3.357  0.00  0.00    -0.274 OA
ATOM      4  H   UNL     1      -2.153  -2.146   2.650  0.00  0.00    +0.155 HD
ENDROOT
BRANCH   1   9
ATOM      5  C   UNL     1      -2.842  -2.416   0.016  0.00  0.00    +0.091 A 
ATOM      6  C   UNL     1      -3.548  -2.714  -1.219  0.00  0.00    -0.021 A 
ATOM      7  C   UNL     1      -4.777  -3.243  -1.039  0.00  0.00    -0.004 A 
ATOM      8  S   UNL     1      -4.974  -3.336   0.716  0.00  0.00    -0.077 S 
ATOM      9  C   UNL     1      -3.495  -2.708   1.205  0.00  0.00    +0.086 A 
ATOM     10  C   UNL     1      -5.743  -3.656  -2.106  0.00  0.00    +0.046 C 
ATOM     11  C   UNL     1      -4.984  -3.738  -3.439  0.00  0.00    -0.009 C 
ATOM     12  C   UNL     1      -4.148  -2.467  -3.612  0.00  0.00    +0.008 C 
ATOM     13  C   UNL     1      -2.989  -2.466  -2.612  0.00  0.00    +0.037 C 
ATOM     14  C   UNL     1      -5.983  -3.859  -4.591  0.00  0.00    +0.008 C 
BRANCH   5  15
ATOM     15  C   UNL     1      -1.497  -1.838   0.006  0.00  0.00    +0.342 C 
ATOM     16  O   UNL     1      -0.523  -2.566  -0.007  0.00  0.00    -0.245 OA
BRANCH  15  17
ATOM     17  O   UNL     1      -1.339  -0.499   0.012  0.00  0.00    -0.461 OA
BRANCH  17  19
ATOM     18  C   UNL     1      -0.019   1.526   0.010  0.00  0.00    +0.048 C 
ATOM     19  C   UNL     1       0.002  -0.004   0.002  0.00  0.00    +0.229 C 
ENDBRANCH  17  19
ENDBRANCH  15  17
ENDBRANCH   5  15
ENDBRANCH   1   9
BRANCH   2  20
ATOM     20  C   UNL     1      -3.307  -2.665   4.953  0.00  0.00    +0.170 C 
BRANCH  20  21
ATOM     21  C   UNL     1      -2.376  -3.792   5.320  0.00  0.00    -0.025 A 
ATOM     22  C   UNL     1      -2.832  -5.097   5.307  0.00  0.00    +0.005 A 
ATOM     23  C   UNL     1      -1.978  -6.130   5.644  0.00  0.00    +0.000 A 
ATOM     24  C   UNL     1      -0.668  -5.859   5.994  0.00  0.00    +0.000 A 
ATOM     25  C   UNL     1      -0.212  -4.554   6.006  0.00  0.00    +0.000 A 
ATOM     26  C   UNL     1      -1.065  -3.521   5.665  0.00  0.00    +0.005 A 
ENDBRANCH  20  21
BRANCH  20  27
ATOM     27  S   UNL     1      -4.713  -2.643   6.099  0.00  0.00    -0.069 S 
BRANCH  27  28
ATOM     28  C   UNL     1      -3.986  -2.256   7.657  0.00  0.00    +0.185 A 
ATOM     29  N   UNL     1      -2.708  -2.040   7.884  0.00  0.00    -0.206 NA
ATOM     30  C   UNL     1      -2.520  -1.775   9.178  0.00  0.00    +0.149 A 
ATOM     31  N   UNL     1      -3.670  -1.818   9.795  0.00  0.00    -0.157 NA
ATOM     32  H   UNL     1      -5.597  -2.220   8.976  0.00  0.00    +0.191 HD
ATOM     33  N   UNL     1      -4.643  -2.123   8.830  0.00  0.00    -0.254 N 
ATOM     34  C   UNL     1      -1.192  -1.475   9.824  0.00  0.00    +0.090 C 
ENDBRANCH  27  28
ENDBRANCH  20  27
ENDBRANCH   2  20
TORSDOF 8
