REMARK  Name = ZINC08870823
REMARK  8 active torsions:
REMARK  status: ('A' for Active; 'I' for Inactive)
REMARK    1  A    between atoms: C_1  and  C_2
REMARK    2  A    between atoms: C_5  and  N_33
REMARK    3  A    between atoms: C_7  and  S_8
REMARK    4  A    between atoms: S_8  and  N_11
REMARK    5  A    between atoms: N_11  and  C_12
REMARK    6  A    between atoms: C_14  and  S_23
REMARK    7  A    between atoms: C_15  and  O_22
REMARK    8  A    between atoms: S_23  and  C_24
REMARK                            x       y       z     vdW  Elec       q    Type
REMARK                         _______ _______ _______ _____ _____    ______ ____
ROOT
ATOM      1  C   UNL     1       4.330   1.259  -0.334  0.00  0.00    +0.057 A 
ATOM      2  C   UNL     1       2.959   1.127  -0.311  0.00  0.00    +0.044 A 
ATOM      3  C   UNL     1       2.138   2.240  -0.112  0.00  0.00    +0.061 A 
ATOM      4  C   UNL     1       2.684   3.495   0.079  0.00  0.00    +0.138 A 
ATOM      5  C   UNL     1       4.082   3.657   0.067  0.00  0.00    +0.026 A 
ATOM      6  C   UNL     1       4.914   2.529  -0.142  0.00  0.00    +0.008 A 
ATOM      7  C   UNL     1       6.308   2.695  -0.152  0.00  0.00    +0.010 A 
ATOM      8  C   UNL     1       6.842   3.933   0.036  0.00  0.00    +0.001 A 
ATOM      9  C   UNL     1       6.024   5.043   0.240  0.00  0.00    +0.001 A 
ATOM     10  C   UNL     1       4.668   4.920   0.258  0.00  0.00    +0.012 A 
ENDROOT
BRANCH   1  11
ATOM     11  N   UNL     1       5.138   0.139  -0.539  0.00  0.00    -0.216 N 
ATOM     12  H   UNL     1       5.992   0.067  -0.085  0.00  0.00    +0.174 HD
BRANCH  11  13
ATOM     13  S   UNL     1       4.639  -1.067  -1.560  0.00  0.00    +0.073 S 
ATOM     14  O   UNL     1       5.723  -1.979  -1.670  0.00  0.00    -0.150 OA
ATOM     15  O   UNL     1       3.349  -1.465  -1.117  0.00  0.00    -0.150 OA
BRANCH  13  22
ATOM     16  C   UNL     1       6.885   0.108  -3.211  0.00  0.00    +0.046 C 
ATOM     17  C   UNL     1       5.514   0.167  -3.832  0.00  0.00    -0.024 A 
ATOM     18  C   UNL     1       5.345   0.733  -5.082  0.00  0.00    +0.007 A 
ATOM     19  C   UNL     1       4.087   0.786  -5.653  0.00  0.00    +0.033 A 
ATOM     20  C   UNL     1       2.998   0.274  -4.973  0.00  0.00    +0.128 A 
ATOM     21  C   UNL     1       3.167  -0.296  -3.725  0.00  0.00    +0.061 A 
ATOM     22  C   UNL     1       4.425  -0.345  -3.153  0.00  0.00    +0.114 A 
BRANCH  20  23
ATOM     23  N   UNL     1       1.651   0.332  -5.584  0.00  0.00    +0.056 N 
ATOM     24  O   UNL     1       1.502   0.830  -6.685  0.00  0.00    -0.126 OA
ATOM     25  O   UNL     1       0.691  -0.119  -4.985  0.00  0.00    -0.126 OA
ENDBRANCH  20  23
ENDBRANCH  13  22
ENDBRANCH  11  13
ENDBRANCH   1  11
BRANCH   4  26
ATOM     26  O   UNL     1       1.873   4.570   0.277  0.00  0.00    -0.505 OA
ATOM     27  H   UNL     1       1.663   4.738   1.206  0.00  0.00    +0.292 HD
ENDBRANCH   4  26
BRANCH   3  28
ATOM     28  S   UNL     1       0.388   2.039  -0.096  0.00  0.00    -0.027 S 
BRANCH  28  29
ATOM     29  C   UNL     1      -0.009   2.688  -1.685  0.00  0.00    +0.263 A 
ATOM     30  N   UNL     1       0.848   3.244  -2.504  0.00  0.00    -0.203 NA
ATOM     31  C   UNL     1       0.190   3.623  -3.634  0.00  0.00    +0.110 A 
ATOM     32  C   UNL     1       0.587   4.246  -4.817  0.00  0.00    +0.031 A 
ATOM     33  C   UNL     1      -0.344   4.507  -5.798  0.00  0.00    +0.002 A 
ATOM     34  C   UNL     1      -1.672   4.153  -5.616  0.00  0.00    +0.004 A 
ATOM     35  C   UNL     1      -2.079   3.535  -4.451  0.00  0.00    +0.048 A 
ATOM     36  C   UNL     1      -1.155   3.266  -3.454  0.00  0.00    +0.156 A 
ATOM     37  O   UNL     1      -1.238   2.688  -2.233  0.00  0.00    -0.430 OA
ENDBRANCH  28  29
ENDBRANCH   3  28
TORSDOF 7
