REMARK  Name = ZINC24105276
REMARK  7 active torsions:
REMARK  status: ('A' for Active; 'I' for Inactive)
REMARK    1  A    between atoms: C_1  and  C_2
REMARK    2  A    between atoms: C_2  and  C_3
REMARK    3  A    between atoms: C_2  and  N_4
REMARK    4  A    between atoms: C_14  and  S_15
REMARK    5  A    between atoms: S_15  and  C_16
REMARK    6  A    between atoms: C_16  and  C_17
REMARK    7  A    between atoms: C_23  and  C_28
REMARK                            x       y       z     vdW  Elec       q    Type
REMARK                         _______ _______ _______ _____ _____    ______ ____
ROOT
ATOM      1  C   UNL     1      -1.667  -2.712  -3.447  0.00  0.00    +0.151 C 
ENDROOT
BRANCH   1   2
ATOM      2  C   UNL     1      -0.817  -3.108  -4.627  0.00  0.00    +0.121 A 
ATOM      3  N   UNL     1      -1.351  -3.889  -5.601  0.00  0.00    -0.310 N 
ATOM      4  H   UNL     1      -2.272  -4.182  -5.524  0.00  0.00    +0.170 HD
ATOM      5  C   UNL     1      -0.626  -4.265  -6.671  0.00  0.00    +0.260 A 
ATOM      6  O   UNL     1      -1.120  -4.966  -7.538  0.00  0.00    -0.267 OA
ATOM      7  C   UNL     1       0.733  -3.828  -6.777  0.00  0.00    +0.083 A 
ATOM      8  C   UNL     1       1.710  -4.098  -7.827  0.00  0.00    +0.039 A 
ATOM      9  C   UNL     1       2.954  -3.569  -7.709  0.00  0.00    +0.059 A 
ATOM     10  S   UNL     1       2.878  -2.674  -6.170  0.00  0.00    -0.076 S 
ATOM     11  C   UNL     1       1.197  -3.025  -5.723  0.00  0.00    +0.116 A 
ATOM     12  N   UNL     1       0.418  -2.690  -4.698  0.00  0.00    -0.226 NA
BRANCH   8  13
ATOM     13  C   UNL     1       1.352  -4.930  -8.993  0.00  0.00    +0.136 A 
ATOM     14  C   UNL     1       1.562  -4.608 -10.298  0.00  0.00    +0.050 A 
ATOM     15  C   UNL     1       1.069  -5.683 -11.066  0.00  0.00    +0.042 A 
ATOM     16  C   UNL     1       0.589  -6.597 -10.202  0.00  0.00    +0.196 A 
ATOM     17  O   UNL     1       0.766  -6.142  -8.950  0.00  0.00    -0.463 OA
ENDBRANCH   8  13
ENDBRANCH   1   2
BRANCH   1  18
ATOM     18  S   UNL     1      -0.695  -1.671  -2.324  0.00  0.00    -0.080 S 
BRANCH  18  29
ATOM     19  N   UNL     1      -1.372  -0.511   0.012  0.00  0.00    -0.285 N 
ATOM     20  C   UNL     1      -2.197  -0.193   1.037  0.00  0.00    +0.263 A 
ATOM     21  O   UNL     1      -1.819   0.510   1.956  0.00  0.00    -0.267 OA
ATOM     22  C   UNL     1      -3.565  -0.727   0.999  0.00  0.00    +0.065 A 
ATOM     23  C   UNL     1      -4.489  -0.454   2.008  0.00  0.00    +0.017 A 
ATOM     24  C   UNL     1      -5.750  -0.974   1.928  0.00  0.00    +0.021 A 
ATOM     25  C   UNL     1      -6.124  -1.771   0.852  0.00  0.00    +0.043 A 
ATOM     26  C   UNL     1      -5.231  -2.056  -0.158  0.00  0.00    +0.048 A 
ATOM     27  C   UNL     1      -3.936  -1.536  -0.099  0.00  0.00    +0.080 A 
ATOM     28  N   UNL     1      -3.025  -1.789  -1.069  0.00  0.00    -0.223 NA
ATOM     29  C   UNL     1      -1.812  -1.296  -1.015  0.00  0.00    +0.173 A 
ATOM     30 CL   UNL     1      -7.734  -2.416   0.781  0.00  0.00    -0.083 Cl
BRANCH  19  32
ATOM     31  C   UNL     1      -0.019   1.526   0.010  0.00  0.00    +0.031 C 
ATOM     32  C   UNL     1       0.002  -0.004   0.002  0.00  0.00    +0.087 C 
ATOM     33  C   UNL     1       0.742  -0.511   1.242  0.00  0.00    +0.031 C 
ENDBRANCH  19  32
ENDBRANCH  18  29
ENDBRANCH   1  18
TORSDOF 5
