REMARK  Name = ZINC26895592
REMARK  6 active torsions:
REMARK  status: ('A' for Active; 'I' for Inactive)
REMARK    1  A    between atoms: C_1  and  C_2
REMARK    2  A    between atoms: C_2  and  C_3
REMARK    3  A    between atoms: C_3  and  C_30
REMARK    4  A    between atoms: N_19  and  N_20
REMARK    5  A    between atoms: C_21  and  C_23
REMARK    6  A    between atoms: C_23  and  C_24
REMARK                            x       y       z     vdW  Elec       q    Type
REMARK                         _______ _______ _______ _____ _____    ______ ____
ROOT
ATOM      1  C   UNL     1       0.742  -0.511   1.242  0.00  0.00    +0.004 C 
ATOM      2  C   UNL     1       0.423  -1.991   1.047  0.00  0.00    +0.047 C 
ATOM      3  C   UNL     1       1.272  -2.575  -0.050  0.00  0.00    -0.037 A 
ATOM      4  C   UNL     1       0.761  -3.543  -0.889  0.00  0.00    +0.004 A 
ATOM      5  C   UNL     1       1.550  -4.078  -1.892  0.00  0.00    +0.000 A 
ATOM      6  C   UNL     1       2.854  -3.649  -2.061  0.00  0.00    +0.001 A 
ATOM      7  C   UNL     1       3.377  -2.680  -1.228  0.00  0.00    +0.010 A 
ATOM      8  C   UNL     1       2.586  -2.138  -0.220  0.00  0.00    +0.004 A 
ATOM      9  C   UNL     1       3.116  -1.090   0.682  0.00  0.00    +0.084 A 
ATOM     10  C   UNL     1       2.222  -0.304   1.394  0.00  0.00    +0.049 A 
ATOM     11  C   UNL     1       2.726   0.681   2.254  0.00  0.00    +0.257 A 
ATOM     12  O   UNL     1       1.971   1.391   2.899  0.00  0.00    -0.267 OA
ATOM     13  N   UNL     1       4.065   0.829   2.353  0.00  0.00    -0.294 N 
ATOM     14  H   UNL     1       4.434   1.503   2.945  0.00  0.00    +0.172 HD
ATOM     15  C   UNL     1       4.898   0.035   1.627  0.00  0.00    +0.213 A 
ATOM     16  N   UNL     1       4.432  -0.895   0.818  0.00  0.00    -0.214 NA
ATOM     17  N   UNL     1       6.253   0.205   1.740  0.00  0.00    -0.234 N 
ATOM     18  C   UNL     1       0.030  -0.003   2.497  0.00  0.00    +0.016 C 
ATOM     19  H   UNL     1       6.608   0.886   2.333  0.00  0.00    +0.173 HD
ENDROOT
BRANCH  17  20
ATOM     20  N   UNL     1       7.125  -0.603   1.000  0.00  0.00    -0.234 N 
ATOM     21  C   UNL     1       8.457  -0.435   1.112  0.00  0.00    +0.233 C 
ATOM     22  O   UNL     1       8.901   0.416   1.852  0.00  0.00    -0.274 OA
ATOM     23  H   UNL     1       6.770  -1.284   0.408  0.00  0.00    +0.173 HD
BRANCH  21  24
ATOM     24  C   UNL     1       9.396  -1.305   0.316  0.00  0.00    +0.132 C 
BRANCH  24  25
ATOM     25  C   UNL     1      10.820  -0.917   0.619  0.00  0.00    -0.039 A 
ATOM     26  C   UNL     1      11.446   0.058  -0.135  0.00  0.00    +0.004 A 
ATOM     27  C   UNL     1      12.752   0.414   0.144  0.00  0.00    +0.000 A 
ATOM     28  C   UNL     1      13.432  -0.204   1.176  0.00  0.00    +0.000 A 
ATOM     29  C   UNL     1      12.806  -1.179   1.930  0.00  0.00    +0.000 A 
ATOM     30  C   UNL     1      11.498  -1.532   1.655  0.00  0.00    +0.004 A 
ENDBRANCH  24  25
ENDBRANCH  21  24
ENDBRANCH  17  20
BRANCH   1  32
ATOM     31  C   UNL     1       0.537   1.764   0.230  0.00  0.00    +0.005 C 
ATOM     32  C   UNL     1       0.246   0.276   0.027  0.00  0.00    +0.008 C 
ENDBRANCH   1  32
TORSDOF 4
