REMARK  Name = ZINC43757795
REMARK  14 active torsions:
REMARK  status: ('A' for Active; 'I' for Inactive)
REMARK    1  A    between atoms: C_1  and  C_2
REMARK    2  A    between atoms: C_2  and  C_4
REMARK    3  A    between atoms: C_2  and  C_10
REMARK    4  A    between atoms: C_4  and  C_5
REMARK    5  A    between atoms: C_5  and  C_6
REMARK    6  A    between atoms: C_7  and  C_8
REMARK    7  A    between atoms: C_7  and  C_9
REMARK    8  A    between atoms: C_14  and  C_39
REMARK    9  A    between atoms: C_15  and  C_38
REMARK   10  A    between atoms: C_29  and  O_34
REMARK   11  A    between atoms: C_31  and  C_32
REMARK   12  A    between atoms: C_31  and  C_33
REMARK   13  A    between atoms: O_34  and  C_35
REMARK   14  A    between atoms: C_35  and  C_37
REMARK                            x       y       z     vdW  Elec       q    Type
REMARK                         _______ _______ _______ _____ _____    ______ ____
ROOT
ATOM      1  C   UNL     1       0.657  -0.742  -1.413  0.00  0.00    -0.002 C 
ATOM      2  C   UNL     1       0.569  -2.272  -1.589  0.00  0.00    +0.005 C 
ATOM      3  C   UNL     1       0.459  -2.473  -3.122  0.00  0.00    +0.008 C 
ATOM      4  C   UNL     1      -0.426  -1.279  -3.557  0.00  0.00    -0.023 C 
ATOM      5  C   UNL     1       0.007  -0.122  -2.666  0.00  0.00    -0.023 C 
ATOM      6  C   UNL     1       1.035   0.759  -3.375  0.00  0.00    +0.008 C 
ATOM      7  C   UNL     1       0.353   1.393  -4.586  0.00  0.00    +0.008 C 
ATOM      8  C   UNL     1      -0.028   0.292  -5.585  0.00  0.00    -0.019 C 
ATOM      9  C   UNL     1      -0.369  -1.076  -5.034  0.00  0.00    +0.002 C 
ATOM     10  C   UNL     1      -1.561  -1.719  -5.734  0.00  0.00    +0.005 C 
ATOM     11  C   UNL     1      -1.417  -1.579  -7.255  0.00  0.00    +0.005 C 
ATOM     12  C   UNL     1      -1.673  -0.117  -7.603  0.00  0.00    +0.005 C 
ATOM     13  C   UNL     1      -0.635   0.765  -6.899  0.00  0.00    -0.019 C 
ATOM     14  C   UNL     1       0.815   0.272  -6.882  0.00  0.00    +0.015 C 
ATOM     15  C   UNL     1      -0.822   2.267  -7.158  0.00  0.00    +0.011 C 
ATOM     16  C   UNL     1      -0.781   2.489  -8.675  0.00  0.00    +0.046 C 
ATOM     17  C   UNL     1      -1.842   1.633  -9.364  0.00  0.00    +0.182 C 
ATOM     18  C   UNL     1      -1.562   0.143  -9.104  0.00  0.00    +0.006 C 
ATOM     19  C   UNL     1      -0.158  -0.224  -9.586  0.00  0.00    +0.015 C 
ATOM     20  C   UNL     1      -2.601  -0.698  -9.848  0.00  0.00    +0.015 C 
ATOM     21  C   UNL     1      -1.212   0.710  -2.262  0.00  0.00    +0.012 C 
ATOM     22  C   UNL     1      -1.872  -1.614  -3.183  0.00  0.00    +0.012 C 
ENDROOT
BRANCH   1  24
ATOM     23  C   UNL     1       0.882  -0.087   0.988  0.00  0.00    +0.008 C 
ATOM     24  C   UNL     1      -0.106  -0.313  -0.158  0.00  0.00    -0.010 C 
BRANCH  24  25
ATOM     25  C   UNL     1      -1.100  -1.408   0.233  0.00  0.00    +0.007 C 
BRANCH  25  26
ATOM     26  C   UNL     1      -1.930  -0.939   1.430  0.00  0.00    +0.027 C 
BRANCH  26  27
ATOM     27  C   UNL     1      -2.909  -2.018   1.816  0.00  0.00    -0.028 C 
ATOM     28  C   UNL     1      -2.939  -2.467   3.046  0.00  0.00    -0.080 C 
ATOM     29  C   UNL     1      -2.116  -1.792   4.114  0.00  0.00    +0.038 C 
ATOM     30  C   UNL     1      -3.795  -3.657   3.394  0.00  0.00    +0.038 C 
ENDBRANCH  26  27
ENDBRANCH  25  26
ENDBRANCH  24  25
ENDBRANCH   1  24
BRANCH  17  31
ATOM     31  O   UNL     1      -3.132   1.982  -8.857  0.00  0.00    -0.461 OA
BRANCH  31  32
ATOM     32  C   UNL     1      -3.794   2.959  -9.496  0.00  0.00    +0.304 C 
ATOM     33  O   UNL     1      -3.295   3.499 -10.455  0.00  0.00    -0.251 OA
ATOM     34  C   UNL     1      -5.160   3.381  -9.018  0.00  0.00    +0.136 C 
ENDBRANCH  31  32
ENDBRANCH  17  31
TORSDOF 6
