REMARK  Name = ZINC12094033
REMARK  5 active torsions:
REMARK  status: ('A' for Active; 'I' for Inactive)
REMARK    1  A    between atoms: C_6  and  C_11
REMARK    2  A    between atoms: C_11  and  N_65
REMARK    3  A    between atoms: C_17  and  C_19
REMARK    4  A    between atoms: C_19  and  C_20
REMARK    5  A    between atoms: C_27  and  N_67
REMARK                            x       y       z     vdW  Elec       q    Type
REMARK                         _______ _______ _______ _____ _____    ______ ____
ROOT
ATOM      1  C   UNL     1      -1.112  -0.719   1.877  0.00  0.00    -0.058 C 
ATOM      2  C   UNL     1      -1.512  -0.344   0.449  0.00  0.00    +0.085 C 
ATOM      3  N   UNL     1      -1.507   1.108   0.293  0.00  0.00    -0.318 N 
ATOM      4  C   UNL     1      -0.871   1.928   1.137  0.00  0.00    +0.200 C 
ATOM      5  O   UNL     1      -0.892   3.120   0.916  0.00  0.00    -0.278 OA
ATOM      6  C   UNL     1      -0.130   1.433   2.347  0.00  0.00    +0.028 C 
ATOM      7  H   UNL     1      -1.987   1.496  -0.455  0.00  0.00    +0.149 HD
ATOM      8  N   UNL     1       0.142  -0.009   2.202  0.00  0.00    +0.391 N 
ATOM      9  H   UNL     1       0.814  -0.149   1.439  0.00  0.00    -0.080 HD
ENDROOT
BRANCH   8  10
ATOM     10  C   UNL     1       0.718  -0.545   3.456  0.00  0.00    -0.042 C 
BRANCH  10  16
ATOM     11  C   UNL     1       4.558  -5.524   1.981  0.00  0.00    +0.001 A 
ATOM     12  C   UNL     1       5.282  -4.337   1.879  0.00  0.00    +0.001 A 
ATOM     13  C   UNL     1       4.699  -3.136   2.140  0.00  0.00    +0.008 A 
ATOM     14  C   UNL     1       3.346  -3.087   2.518  0.00  0.00    -0.018 A 
ATOM     15  C   UNL     1       2.709  -1.865   2.795  0.00  0.00    +0.010 A 
ATOM     16  C   UNL     1       1.398  -1.857   3.159  0.00  0.00    -0.063 A 
ATOM     17  C   UNL     1       0.675  -3.044   3.266  0.00  0.00    +0.002 A 
ATOM     18  C   UNL     1       1.257  -4.245   2.999  0.00  0.00    +0.009 A 
ATOM     19  C   UNL     1       2.610  -4.293   2.621  0.00  0.00    -0.018 A 
ATOM     20  C   UNL     1       3.246  -5.515   2.343  0.00  0.00    +0.008 A 
ENDBRANCH  10  16
ENDBRANCH   8  10
BRANCH   6  21
ATOM     21  C   UNL     1       1.199   2.180   2.469  0.00  0.00    +0.090 C 
BRANCH  21  22
ATOM     22  C   UNL     1       2.034   1.925   1.240  0.00  0.00    +0.214 C 
ATOM     23  O   UNL     1       1.644   1.150   0.393  0.00  0.00    -0.276 OA
ATOM     24  N   UNL     1       3.213   2.559   1.082  0.00  0.00    -0.305 N 
ATOM     25  C   UNL     1       3.701   3.508   2.095  0.00  0.00    +0.089 C 
ATOM     26  C   UNL     1       5.140   3.117   2.467  0.00  0.00    -0.059 C 
ATOM     27  C   UNL     1       5.465   1.985   0.347  0.00  0.00    -0.059 C 
ATOM     28  C   UNL     1       4.042   2.325  -0.109  0.00  0.00    +0.089 C 
ATOM     29  N   UNL     1       5.951   3.066   1.232  0.00  0.00    +0.384 N 
ATOM     30  H   UNL     1       5.864   3.963   0.739  0.00  0.00    -0.081 HD
BRANCH  29  31
ATOM     31  C   UNL     1       7.372   2.841   1.570  0.00  0.00    -0.068 C 
ATOM     32  C   UNL     1       7.559   1.511   2.328  0.00  0.00    -0.015 C 
ATOM     33  C   UNL     1       8.665   1.820   3.368  0.00  0.00    -0.002 C 
ATOM     34  C   UNL     1       8.326   3.265   3.809  0.00  0.00    -0.002 C 
ATOM     35  C   UNL     1       7.859   3.956   2.511  0.00  0.00    -0.015 C 
ENDBRANCH  29  31
ENDBRANCH  21  22
ENDBRANCH   6  21
TORSDOF 5
