REMARK  Name = ZINC66919694
REMARK  6 active torsions:
REMARK  status: ('A' for Active; 'I' for Inactive)
REMARK    1  A    between atoms: C_1  and  C_2
REMARK    2  A    between atoms: C_2  and  N_3
REMARK    3  A    between atoms: N_3  and  C_4
REMARK    4  A    between atoms: N_3  and  S_13
REMARK    5  A    between atoms: C_10  and  C_12
REMARK    6  A    between atoms: S_13  and  C_16
REMARK                            x       y       z     vdW  Elec       q    Type
REMARK                         _______ _______ _______ _____ _____    ______ ____
ROOT
ATOM      1  S   UNL     1       3.559  -0.856   1.916  0.00  0.00    +0.061 S 
ATOM      2  O   UNL     1       2.683  -1.477   2.846  0.00  0.00    -0.153 OA
ATOM      3  O   UNL     1       4.564  -1.578   1.217  0.00  0.00    -0.153 OA
ENDROOT
BRANCH   1   4
ATOM      4  C   UNL     1       4.381   0.438   2.785  0.00  0.00    +0.106 A 
ATOM      5  C   UNL     1       5.129   1.372   2.082  0.00  0.00    +0.032 A 
ATOM      6  C   UNL     1       5.779   2.393   2.743  0.00  0.00    +0.049 A 
ATOM      7  C   UNL     1       5.687   2.490   4.126  0.00  0.00    +0.139 A 
ATOM      8  C   UNL     1       4.928   1.542   4.834  0.00  0.00    +0.019 A 
ATOM      9  C   UNL     1       4.272   0.517   4.145  0.00  0.00    +0.040 A 
ATOM     10  C   UNL     1       4.836   1.652   6.293  0.00  0.00    +0.018 A 
ATOM     11  C   UNL     1       5.492   2.672   6.902  0.00  0.00    +0.092 A 
ATOM     12  C   UNL     1       6.236   3.589   6.127  0.00  0.00    +0.337 A 
ATOM     13  O   UNL     1       6.820   4.500   6.686  0.00  0.00    -0.245 OA
ATOM     14  O   UNL     1       6.316   3.481   4.792  0.00  0.00    -0.422 OA
ENDBRANCH   1   4
BRANCH   1  15
ATOM     15  N   UNL     1       2.602  -0.144   0.767  0.00  0.00    -0.174 NA
BRANCH  15  16
ATOM     16  C   UNL     1       1.267   0.341   1.124  0.00  0.00    +0.083 C 
ATOM     17  C   UNL     1       1.268   1.871   1.141  0.00  0.00    +0.021 C 
ATOM     18  C   UNL     1       2.284   2.370   2.170  0.00  0.00    +0.002 C 
ATOM     19  C   UNL     1       1.905   1.845   3.557  0.00  0.00    +0.000 C 
ATOM     20  C   UNL     1       1.903   0.315   3.540  0.00  0.00    +0.005 C 
ATOM     21  C   UNL     1       0.887  -0.183   2.510  0.00  0.00    +0.005 C 
ATOM     22  C   UNL     1       0.886  -1.713   2.494  0.00  0.00    +0.009 C 
ENDBRANCH  15  16
BRANCH  15  24
ATOM     23  C   UNL     1       3.494   1.456  -0.854  0.00  0.00    +0.022 C 
ATOM     24  C   UNL     1       3.091   0.000  -0.606  0.00  0.00    +0.106 C 
ENDBRANCH  15  24
ENDBRANCH   1  15
TORSDOF 4
