REMARK  Name = ZINC15428916
REMARK  7 active torsions:
REMARK  status: ('A' for Active; 'I' for Inactive)
REMARK    1  A    between atoms: C_3  and  C_11
REMARK    2  A    between atoms: C_6  and  N_7
REMARK    3  A    between atoms: C_14  and  C_16
REMARK    4  A    between atoms: N_18  and  N_19
REMARK    5  A    between atoms: N_19  and  C_20
REMARK    6  A    between atoms: C_20  and  N_22
REMARK    7  A    between atoms: N_22  and  C_23
REMARK                            x       y       z     vdW  Elec       q    Type
REMARK                         _______ _______ _______ _____ _____    ______ ____
ROOT
ATOM      1  C   UNL     1       3.655   2.162  -0.022  0.00  0.00    +0.137 A 
ATOM      2  C   UNL     1       4.714   1.946   0.813  0.00  0.00    +0.051 A 
ATOM      3  C   UNL     1       5.705   2.871   0.468  0.00  0.00    +0.055 A 
ATOM      4  C   UNL     1       5.204   3.620  -0.574  0.00  0.00    +0.191 A 
ATOM      5  O   UNL     1       3.963   3.168  -0.856  0.00  0.00    -0.450 OA
ENDROOT
BRANCH   1   8
ATOM      6  C   UNL     1      -0.017   1.379   0.010  0.00  0.00    +0.033 A 
ATOM      7  C   UNL     1       1.166   2.089   0.002  0.00  0.00    +0.015 A 
ATOM      8  C   UNL     1       2.385   1.408  -0.013  0.00  0.00    +0.036 A 
ATOM      9  C   UNL     1       2.397   0.011  -0.021  0.00  0.00    +0.054 A 
ATOM     10  C   UNL     1       1.206  -0.686  -0.013  0.00  0.00    +0.053 A 
ATOM     11  C   UNL     1       0.002  -0.004   0.002  0.00  0.00    +0.128 A 
ATOM     12 CL   UNL     1       3.907  -0.846  -0.040  0.00  0.00    -0.083 Cl
BRANCH  11  13
ATOM     13  N   UNL     1      -1.272  -0.758   0.011  0.00  0.00    +0.056 N 
ATOM     14  O   UNL     1      -2.325  -0.165   0.024  0.00  0.00    -0.126 OA
ATOM     15  O   UNL     1      -1.259  -1.967   0.004  0.00  0.00    -0.126 OA
ENDBRANCH  11  13
ENDBRANCH   1   8
BRANCH   4  16
ATOM     16  C   UNL     1       5.898   4.713  -1.259  0.00  0.00    +0.295 C 
ATOM     17  O   UNL     1       7.022   5.030  -0.917  0.00  0.00    -0.265 OA
ATOM     18  N   UNL     1       5.291   5.368  -2.269  0.00  0.00    -0.229 N 
ATOM     19  H   UNL     1       4.395   5.116  -2.542  0.00  0.00    +0.173 HD
BRANCH  18  20
ATOM     20  N   UNL     1       5.955   6.413  -2.925  0.00  0.00    -0.246 N 
ATOM     21  H   UNL     1       6.851   6.666  -2.652  0.00  0.00    +0.172 HD
BRANCH  20  22
ATOM     22  C   UNL     1       5.349   7.069  -3.934  0.00  0.00    +0.147 C 
ATOM     23  S   UNL     1       6.160   8.346  -4.735  0.00  0.00    -0.017 S 
BRANCH  22  24
ATOM     24  N   UNL     1       4.104   6.718  -4.314  0.00  0.00    -0.323 N 
ATOM     25  H   UNL     1       3.644   5.995  -3.860  0.00  0.00    +0.148 HD
BRANCH  24  26
ATOM     26  C   UNL     1       3.445   7.430  -5.411  0.00  0.00    +0.072 C 
ATOM     27  C   UNL     1       1.976   7.814  -5.223  0.00  0.00    +0.024 C 
ATOM     28  C   UNL     1       2.354   6.685  -6.183  0.00  0.00    +0.024 C 
ENDBRANCH  24  26
ENDBRANCH  22  24
ENDBRANCH  20  22
ENDBRANCH  18  20
ENDBRANCH   4  16
TORSDOF 7
