REMARK  Name = ZINC39566653
REMARK  7 active torsions:
REMARK  status: ('A' for Active; 'I' for Inactive)
REMARK    1  A    between atoms: C_1  and  C_2
REMARK    2  A    between atoms: C_8  and  N_10
REMARK    3  A    between atoms: C_11  and  C_13
REMARK    4  A    between atoms: C_13  and  C_15
REMARK    5  A    between atoms: C_13  and  O_16
REMARK    6  A    between atoms: O_16  and  C_17
REMARK    7  A    between atoms: C_17  and  C_19
REMARK                            x       y       z     vdW  Elec       q    Type
REMARK                         _______ _______ _______ _____ _____    ______ ____
ROOT
ATOM      1  C   UNL     1       0.720   1.697   6.813  0.00  0.00    +0.340 C 
ATOM      2  O   UNL     1      -0.289   2.368   6.719  0.00  0.00    -0.245 OA
ENDROOT
BRANCH   1   3
ATOM      3  C   UNL     1       1.655   1.925   7.929  0.00  0.00    +0.060 A 
ATOM      4  C   UNL     1       2.823   1.163   8.046  0.00  0.00    +0.017 A 
ATOM      5  C   UNL     1       3.700   1.367   9.079  0.00  0.00    +0.025 A 
ATOM      6  C   UNL     1       3.454   2.350  10.057  0.00  0.00    +0.050 A 
ATOM      7  C   UNL     1       2.279   3.099   9.919  0.00  0.00    +0.038 A 
ATOM      8  C   UNL     1       1.394   2.911   8.889  0.00  0.00    +0.032 A 
ATOM      9  S   UNL     1       2.328   4.202  11.309  0.00  0.00    -0.051 S 
ATOM     10  C   UNL     1       3.864   3.640  12.007  0.00  0.00    +0.186 C 
ATOM     11  N   UNL     1       4.429   4.092  13.085  0.00  0.00    -0.110 NA
ATOM     12  S   UNL     1       5.872   3.427  13.574  0.00  0.00    +0.073 S 
ATOM     13  O   UNL     1       5.780   3.345  14.989  0.00  0.00    -0.151 OA
ATOM     14  O   UNL     1       6.874   4.220  12.952  0.00  0.00    -0.151 OA
ATOM     15  C   UNL     1       5.832   1.763  12.839  0.00  0.00    +0.212 C 
ATOM     16  C   UNL     1       5.544   1.898  11.342  0.00  0.00    +0.137 C 
ATOM     17  N   UNL     1       4.276   2.646  11.148  0.00  0.00    -0.276 N 
ENDBRANCH   1   3
BRANCH   1  18
ATOM     18  O   UNL     1       0.983   0.745   5.896  0.00  0.00    -0.449 OA
BRANCH  18  19
ATOM     19  C   UNL     1       0.033   0.579   4.842  0.00  0.00    +0.259 C 
ATOM     20  C   UNL     1      -1.023  -0.445   5.263  0.00  0.00    +0.062 C 
BRANCH  19  22
ATOM     21  N   UNL     1       0.056  -0.038   2.447  0.00  0.00    -0.309 N 
ATOM     22  C   UNL     1       0.738   0.093   3.602  0.00  0.00    +0.254 C 
ATOM     23  O   UNL     1       1.919  -0.179   3.644  0.00  0.00    -0.272 OA
ATOM     24  H   UNL     1      -0.888   0.180   2.413  0.00  0.00    +0.149 HD
BRANCH  21  31
ATOM     25  C   UNL     1      -0.019   1.526   0.010  0.00  0.00    +0.009 C 
ATOM     26  C   UNL     1       0.002  -0.004   0.002  0.00  0.00    +0.006 C 
ATOM     27  C   UNL     1      -1.433  -0.534   0.013  0.00  0.00    +0.005 C 
ATOM     28  C   UNL     1      -1.413  -2.063   0.004  0.00  0.00    +0.000 C 
ATOM     29  C   UNL     1      -0.673  -2.570   1.244  0.00  0.00    +0.002 C 
ATOM     30  C   UNL     1       0.763  -2.041   1.233  0.00  0.00    +0.022 C 
ATOM     31  C   UNL     1       0.742  -0.511   1.242  0.00  0.00    +0.076 C 
ENDBRANCH  21  31
ENDBRANCH  19  22
ENDBRANCH  18  19
ENDBRANCH   1  18
TORSDOF 5
