REMARK  Name = ZINC33509052
REMARK  8 active torsions:
REMARK  status: ('A' for Active; 'I' for Inactive)
REMARK    1  A    between atoms: C_1  and  C_2
REMARK    2  A    between atoms: C_5  and  N_8
REMARK    3  A    between atoms: N_8  and  C_9
REMARK    4  A    between atoms: C_10  and  C_20
REMARK    5  A    between atoms: N_24  and  C_28
REMARK    6  A    between atoms: C_28  and  C_29
REMARK    7  A    between atoms: C_29  and  O_30
REMARK    8  A    between atoms: O_30  and  C_31
REMARK                            x       y       z     vdW  Elec       q    Type
REMARK                         _______ _______ _______ _____ _____    ______ ____
ROOT
ATOM      1  C   UNL     1      -1.142   3.378  -1.251  0.00  0.00    +0.134 A 
ATOM      2  C   UNL     1      -2.013   3.731  -2.309  0.00  0.00    +0.081 A 
ATOM      3  C   UNL     1      -2.813   4.889  -2.162  0.00  0.00    +0.267 A 
ATOM      4  O   UNL     1      -3.580   5.229  -3.047  0.00  0.00    -0.267 OA
ATOM      5  N   UNL     1      -2.709   5.614  -1.028  0.00  0.00    -0.268 N 
ATOM      6  C   UNL     1      -3.473   6.734  -0.880  0.00  0.00    +0.096 A 
ATOM      7  C   UNL     1      -3.393   7.482   0.243  0.00  0.00    +0.018 A 
ATOM      8  C   UNL     1      -2.518   7.113   1.274  0.00  0.00    +0.005 A 
ATOM      9  C   UNL     1      -1.750   5.995   1.135  0.00  0.00    +0.047 A 
ATOM     10  C   UNL     1      -1.847   5.228  -0.040  0.00  0.00    +0.142 A 
ATOM     11  N   UNL     1      -1.091   4.137  -0.166  0.00  0.00    -0.214 NA
ENDROOT
BRANCH   2  12
ATOM     12  C   UNL     1      -2.085   2.944  -3.482  0.00  0.00    +0.037 C 
ATOM     13  C   UNL     1      -1.659   3.454  -4.674  0.00  0.00    +0.077 C 
ATOM     14  C   UNL     1      -1.021   4.697  -4.951  0.00  0.00    +0.258 C 
ATOM     15  O   UNL     1      -0.776   5.488  -4.057  0.00  0.00    -0.269 OA
ATOM     16  N   UNL     1      -0.701   4.967  -6.204  0.00  0.00    -0.253 N 
ATOM     17  C   UNL     1      -0.973   4.090  -7.196  0.00  0.00    +0.121 C 
ATOM     18  S   UNL     1      -0.652   4.230  -8.871  0.00  0.00    -0.027 S 
ATOM     19  S   UNL     1      -1.744   2.743  -6.311  0.00  0.00    -0.061 S 
BRANCH  16  20
ATOM     20  C   UNL     1      -0.043   6.236  -6.524  0.00  0.00    +0.143 C 
BRANCH  20  21
ATOM     21  C   UNL     1       1.475   6.059  -6.440  0.00  0.00    +0.179 C 
BRANCH  21  22
ATOM     22  O   UNL     1       1.904   5.146  -7.451  0.00  0.00    -0.381 OA
ATOM     23  C   UNL     1       3.313   4.909  -7.460  0.00  0.00    +0.194 C 
ENDBRANCH  21  22
ENDBRANCH  20  21
ENDBRANCH  16  20
ENDBRANCH   2  12
BRANCH   1  24
ATOM     24  N   UNL     1      -0.348   2.256  -1.351  0.00  0.00    -0.326 N 
ATOM     25  H   UNL     1      -0.394   1.629  -2.254  0.00  0.00    +0.148 HD
BRANCH  24  30
ATOM     26  C   UNL     1       3.447   0.429  -3.120  0.00  0.00    +0.007 C 
ATOM     27  C   UNL     1       2.798   0.795  -1.784  0.00  0.00    -0.014 C 
ATOM     28  C   UNL     1       1.482   0.029  -1.629  0.00  0.00    +0.005 C 
ATOM     29  C   UNL     1       0.833   0.395  -0.293  0.00  0.00    +0.022 C 
ATOM     30  C   UNL     1       0.556   1.899  -0.255  0.00  0.00    +0.072 C 
ATOM     31  C   UNL     1       1.871   2.664  -0.409  0.00  0.00    +0.022 C 
ATOM     32  C   UNL     1       2.521   2.299  -1.746  0.00  0.00    +0.005 C 
ENDBRANCH  24  30
ENDBRANCH   1  24
TORSDOF 6
