REMARK  Name = ZINC04457694
REMARK  10 active torsions:
REMARK  status: ('A' for Active; 'I' for Inactive)
REMARK    1  A    between atoms: C_1  and  C_2
REMARK    2  A    between atoms: C_6  and  N_8
REMARK    3  A    between atoms: N_8  and  C_9
REMARK    4  A    between atoms: C_9  and  C_10
REMARK    5  A    between atoms: C_10  and  C_11
REMARK    6  A    between atoms: C_11  and  C_12
REMARK    7  A    between atoms: N_14  and  N_15
REMARK    8  A    between atoms: C_18  and  C_24
REMARK    9  A    between atoms: C_22  and  C_23
REMARK   10  A    between atoms: C_24  and  C_26
REMARK                            x       y       z     vdW  Elec       q    Type
REMARK                         _______ _______ _______ _____ _____    ______ ____
ROOT
ATOM      1  C   UNL     1       0.118  -6.825   5.223  0.00  0.00    +0.232 C 
ATOM      2  O   UNL     1       0.113  -6.043   6.151  0.00  0.00    -0.274 OA
ATOM      3  N   UNL     1       0.137  -8.151   5.460  0.00  0.00    -0.207 N 
ATOM      4  H   UNL     1       0.142  -8.776   4.718  0.00  0.00    +0.177 HD
ENDROOT
BRANCH   3   5
ATOM      5  N   UNL     1       0.150  -8.628   6.777  0.00  0.00    -0.185 NA
ATOM      6  C   UNL     1       0.168  -9.908   7.005  0.00  0.00    +0.062 C 
ATOM      7  C   UNL     1       0.182 -10.906   5.866  0.00  0.00    +0.065 C 
ATOM      8  C   UNL     1       1.176 -12.014   6.244  0.00  0.00    +0.024 C 
ATOM      9  C   UNL     1       0.687 -12.710   7.514  0.00  0.00    +0.035 C 
ATOM     10  C   UNL     1       0.418 -11.717   8.606  0.00  0.00    -0.021 C 
ATOM     11  C   UNL     1       0.182 -10.436   8.378  0.00  0.00    -0.032 C 
ATOM     12  C   UNL     1      -0.082  -9.509   9.537  0.00  0.00    +0.045 C 
BRANCH   8  13
ATOM     13  C   UNL     1       1.265 -13.016   5.121  0.00  0.00    -0.076 C 
ATOM     14  C   UNL     1       2.412 -13.234   4.528  0.00  0.00    +0.007 C 
ATOM     15  C   UNL     1       0.034 -13.766   4.681  0.00  0.00    +0.039 C 
ENDBRANCH   8  13
ENDBRANCH   3   5
BRANCH   1  16
ATOM     16  C   UNL     1       0.105  -6.312   3.807  0.00  0.00    +0.099 C 
BRANCH  16  17
ATOM     17  C   UNL     1       0.085  -4.782   3.818  0.00  0.00    +0.028 C 
BRANCH  17  18
ATOM     18  C   UNL     1       0.071  -4.261   2.379  0.00  0.00    +0.102 C 
BRANCH  18  19
ATOM     19  N   UNL     1       0.051  -2.796   2.390  0.00  0.00    -0.344 N 
ATOM     20  H   UNL     1       0.049  -2.318   3.234  0.00  0.00    +0.146 HD
BRANCH  19  26
ATOM     21  C   UNL     1      -0.018   1.503   0.010  0.00  0.00    +0.044 C 
ATOM     22  C   UNL     1       0.002  -0.004   0.002  0.00  0.00    -0.049 A 
ATOM     23  C   UNL     1       0.006  -0.688  -1.200  0.00  0.00    +0.003 A 
ATOM     24  C   UNL     1       0.024  -2.071  -1.212  0.00  0.00    +0.002 A 
ATOM     25  C   UNL     1       0.039  -2.773  -0.023  0.00  0.00    +0.023 A 
ATOM     26  C   UNL     1       0.036  -2.089   1.186  0.00  0.00    +0.027 A 
ATOM     27  C   UNL     1       0.023  -0.700   1.194  0.00  0.00    +0.026 A 
ENDBRANCH  19  26
ENDBRANCH  18  19
ENDBRANCH  17  18
ENDBRANCH  16  17
ENDBRANCH   1  16
TORSDOF 7
