REMARK  Name = ZINC35427396
REMARK  6 active torsions:
REMARK  status: ('A' for Active; 'I' for Inactive)
REMARK    1  A    between atoms: C_1  and  C_2
REMARK    2  A    between atoms: C_2  and  N_3
REMARK    3  A    between atoms: C_17  and  C_31
REMARK    4  A    between atoms: N_23  and  C_24
REMARK    5  A    between atoms: C_28  and  C_30
REMARK    6  A    between atoms: C_34  and  C_37
REMARK                            x       y       z     vdW  Elec       q    Type
REMARK                         _______ _______ _______ _____ _____    ______ ____
ROOT
ATOM      1  N   UNL     1      -1.398  -0.806   1.199  0.00  0.00    +0.383 N 
ATOM      2  C   UNL     1      -1.474  -2.259   1.405  0.00  0.00    -0.074 C 
ATOM      3  C   UNL     1      -2.935  -2.713   1.461  0.00  0.00    +0.018 C 
ATOM      4  C   UNL     1      -3.642  -2.182   0.216  0.00  0.00    -0.034 A 
ATOM      5  C   UNL     1      -4.873  -2.688  -0.241  0.00  0.00    +0.004 A 
ATOM      6  C   UNL     1      -5.392  -2.113  -1.361  0.00  0.00    +0.090 A 
ATOM      7  S   UNL     1      -4.203  -0.890  -1.824  0.00  0.00    -0.077 S 
ATOM      8  C   UNL     1      -3.066  -1.174  -0.494  0.00  0.00    -0.021 A 
ATOM      9  C   UNL     1      -1.775  -0.488  -0.191  0.00  0.00    -0.035 C 
ATOM     10  N   UNL     1      -6.609  -2.470  -1.927  0.00  0.00    -0.312 N 
ATOM     11  C   UNL     1      -6.965  -2.707  -3.211  0.00  0.00    +0.092 A 
ATOM     12  C   UNL     1      -8.262  -3.091  -3.222  0.00  0.00    +0.020 A 
ATOM     13  C   UNL     1      -8.723  -3.068  -1.888  0.00  0.00    +0.025 A 
ATOM     14  C   UNL     1      -7.704  -2.663  -1.116  0.00  0.00    +0.049 A 
ATOM     15  C   UNL     1      -7.674  -2.392   0.358  0.00  0.00    +0.155 C 
ATOM     16  N   UNL     1      -6.855  -3.391   1.086  0.00  0.00    -0.268 N 
ATOM     17  C   UNL     1      -5.604  -3.824   0.437  0.00  0.00    +0.148 C 
ATOM     18  C   UNL     1      -7.235  -3.879   2.283  0.00  0.00    +0.308 C 
ATOM     19  O   UNL     1      -8.273  -3.501   2.792  0.00  0.00    -0.252 OA
ATOM     20  N   UNL     1      -6.466  -4.787   2.916  0.00  0.00    -0.269 N 
ATOM     21  H   UNL     1      -5.604  -5.034   2.547  0.00  0.00    +0.156 HD
ATOM     22  H   UNL     1      -2.030  -0.342   1.834  0.00  0.00    -0.081 HD
ENDROOT
BRANCH  20  23
ATOM     23  C   UNL     1      -6.911  -5.372   4.107  0.00  0.00    +0.035 A 
ATOM     24  C   UNL     1      -5.999  -5.710   5.099  0.00  0.00    +0.023 A 
ATOM     25  C   UNL     1      -6.441  -6.287   6.273  0.00  0.00    +0.002 A 
ATOM     26  C   UNL     1      -7.790  -6.530   6.461  0.00  0.00    +0.003 A 
ATOM     27  C   UNL     1      -8.700  -6.196   5.475  0.00  0.00    -0.049 A 
ATOM     28  C   UNL     1      -8.264  -5.612   4.301  0.00  0.00    +0.026 A 
ATOM     29  C   UNL     1     -10.168  -6.463   5.683  0.00  0.00    +0.044 C 
ENDBRANCH  20  23
BRANCH  15  30
ATOM     30  C   UNL     1      -7.096  -1.020   0.594  0.00  0.00    -0.021 A 
ATOM     31  C   UNL     1      -7.317  -0.010  -0.324  0.00  0.00    +0.006 A 
ATOM     32  C   UNL     1      -6.786   1.248  -0.108  0.00  0.00    +0.004 A 
ATOM     33  C   UNL     1      -6.036   1.496   1.026  0.00  0.00    -0.050 A 
ATOM     34  C   UNL     1      -5.816   0.486   1.944  0.00  0.00    +0.004 A 
ATOM     35  C   UNL     1      -6.350  -0.771   1.730  0.00  0.00    +0.006 A 
ATOM     36  C   UNL     1      -5.457   2.868   1.261  0.00  0.00    +0.044 C 
ENDBRANCH  15  30
BRANCH   1  38
ATOM     37  C   UNL     1       0.027   1.179   1.357  0.00  0.00    -0.017 C 
ATOM     38  C   UNL     1      -0.025  -0.347   1.452  0.00  0.00    -0.082 C 
ENDBRANCH   1  38
TORSDOF 3
