REMARK  Name = ZINC57050892
REMARK  8 active torsions:
REMARK  status: ('A' for Active; 'I' for Inactive)
REMARK    1  A    between atoms: C_1  and  C_2
REMARK    2  A    between atoms: N_13  and  C_19
REMARK    3  A    between atoms: C_19  and  C_20
REMARK    4  A    between atoms: C_20  and  C_22
REMARK    5  A    between atoms: C_20  and  O_31
REMARK    6  A    between atoms: C_22  and  N_23
REMARK    7  A    between atoms: N_23  and  C_24
REMARK    8  A    between atoms: C_24  and  C_25
REMARK                            x       y       z     vdW  Elec       q    Type
REMARK                         _______ _______ _______ _____ _____    ______ ____
ROOT
ATOM      1  C   UNL     1       1.792   1.569   1.144  0.00  0.00    +0.044 C 
ATOM      2  C   UNL     1       1.506   0.100   0.963  0.00  0.00    -0.050 A 
ATOM      3  C   UNL     1       1.298  -0.390  -0.316  0.00  0.00    +0.005 A 
ATOM      4  C   UNL     1       1.033  -1.726  -0.559  0.00  0.00    +0.026 A 
ATOM      5  C   UNL     1       0.981  -2.576   0.543  0.00  0.00    +0.050 A 
ATOM      6  C   UNL     1       1.193  -2.066   1.859  0.00  0.00    +0.004 A 
ATOM      7  C   UNL     1       1.466  -0.710   2.069  0.00  0.00    +0.013 A 
ATOM      8  C   UNL     1       1.065  -3.190   2.747  0.00  0.00    -0.017 A 
ATOM      9  C   UNL     1       0.777  -4.257   1.974  0.00  0.00    +0.040 A 
ATOM     10  N   UNL     1       0.753  -3.914   0.651  0.00  0.00    -0.341 N 
ATOM     11  C   UNL     1       0.526  -4.925  -0.394  0.00  0.00    +0.137 C 
ATOM     12  C   UNL     1      -0.049  -6.180   0.274  0.00  0.00    +0.106 C 
ATOM     13  N   UNL     1       0.751  -6.579   1.440  0.00  0.00    -0.290 NA
ATOM     14  C   UNL     1       0.557  -5.634   2.559  0.00  0.00    +0.104 C 
ATOM     15  C   UNL     1       1.602  -5.863   3.639  0.00  0.00    +0.025 C 
ATOM     16  C   UNL     1       1.935  -4.678   4.511  0.00  0.00    +0.007 C 
ATOM     17  C   UNL     1       1.190  -3.381   4.232  0.00  0.00    +0.037 C 
ENDROOT
BRANCH  13  18
ATOM     18  C   UNL     1       0.435  -7.953   1.851  0.00  0.00    +0.114 C 
BRANCH  18  19
ATOM     19  C   UNL     1       1.126  -8.940   0.908  0.00  0.00    +0.112 C 
BRANCH  19  20
ATOM     20  O   UNL     1       0.555  -8.831  -0.397  0.00  0.00    -0.392 OA
ATOM     21  H   UNL     1      -0.392  -9.023  -0.429  0.00  0.00    +0.210 HD
ENDBRANCH  19  20
BRANCH  19  22
ATOM     22  C   UNL     1       0.936 -10.365   1.431  0.00  0.00    -0.049 C 
BRANCH  22  23
ATOM     23  N   UNL     1       1.699 -11.300   0.594  0.00  0.00    +0.383 N 
ATOM     24  H   UNL     1       1.370 -11.245  -0.358  0.00  0.00    -0.085 HD
ATOM     25  H   UNL     1       2.678 -11.058   0.626  0.00  0.00    -0.085 HD
BRANCH  23  26
ATOM     26  C   UNL     1       1.516 -12.668   1.097  0.00  0.00    -0.047 C 
BRANCH  26  27
ATOM     27  C   UNL     1       2.299 -13.628   0.238  0.00  0.00    -0.064 A 
ATOM     28  C   UNL     1       1.710 -14.199  -0.874  0.00  0.00    +0.002 A 
ATOM     29  C   UNL     1       2.428 -15.079  -1.662  0.00  0.00    +0.000 A 
ATOM     30  C   UNL     1       3.736 -15.387  -1.338  0.00  0.00    +0.000 A 
ATOM     31  C   UNL     1       4.326 -14.815  -0.226  0.00  0.00    +0.000 A 
ATOM     32  C   UNL     1       3.609 -13.932   0.559  0.00  0.00    +0.002 A 
ENDBRANCH  26  27
ENDBRANCH  23  26
ENDBRANCH  22  23
ENDBRANCH  19  22
ENDBRANCH  18  19
ENDBRANCH  13  18
TORSDOF 7
