REMARK  Name = ZINC45895554
REMARK  8 active torsions:
REMARK  status: ('A' for Active; 'I' for Inactive)
REMARK    1  A    between atoms: C_1  and  C_2
REMARK    2  A    between atoms: C_2  and  C_3
REMARK    3  A    between atoms: C_3  and  C_5
REMARK    4  A    between atoms: C_3  and  N_17
REMARK    5  A    between atoms: N_7  and  C_8
REMARK    6  A    between atoms: C_11  and  C_14
REMARK    7  A    between atoms: C_14  and  C_15
REMARK    8  A    between atoms: C_14  and  C_16
REMARK                            x       y       z     vdW  Elec       q    Type
REMARK                         _______ _______ _______ _____ _____    ______ ____
ROOT
ATOM      1  C   UNL     1      -1.427  -0.534   0.010  0.00  0.00    +0.177 C 
ENDROOT
BRANCH   1   2
ATOM      2  N   UNL     1      -2.103  -0.148  -1.232  0.00  0.00    -0.286 N 
ATOM      3  C   UNL     1      -1.627  -0.569  -2.432  0.00  0.00    +0.203 A 
ATOM      4  N   UNL     1      -2.184  -0.258  -3.560  0.00  0.00    -0.236 NA
ATOM      5  C   UNL     1      -3.300   0.522  -3.626  0.00  0.00    +0.094 A 
ATOM      6  C   UNL     1      -4.029   0.946  -4.834  0.00  0.00    +0.034 A 
ATOM      7  C   UNL     1      -3.724   0.635  -6.180  0.00  0.00    +0.014 A 
ATOM      8  C   UNL     1      -4.533   1.131  -7.177  0.00  0.00    +0.020 A 
ATOM      9  C   UNL     1      -5.627   1.922  -6.863  0.00  0.00    +0.112 A 
ATOM     10  N   UNL     1      -5.905   2.209  -5.606  0.00  0.00    -0.248 NA
ATOM     11  C   UNL     1      -5.160   1.756  -4.620  0.00  0.00    +0.111 A 
ATOM     12  S   UNL     1      -5.235   1.937  -2.854  0.00  0.00    -0.062 S 
ATOM     13  C   UNL     1      -3.816   0.972  -2.413  0.00  0.00    +0.105 A 
ATOM     14  C   UNL     1      -3.212   0.627  -1.195  0.00  0.00    +0.269 A 
ATOM     15  O   UNL     1      -3.670   1.019  -0.135  0.00  0.00    -0.266 OA
ENDBRANCH   1   2
BRANCH   1  16
ATOM     16  C   UNL     1      -1.415  -2.036   0.129  0.00  0.00    +0.240 C 
ATOM     17  O   UNL     1      -1.921  -2.717  -0.737  0.00  0.00    -0.273 OA
ATOM     18  N   UNL     1      -0.842  -2.622   1.199  0.00  0.00    -0.284 N 
ATOM     19  H   UNL     1      -0.379  -2.082   1.858  0.00  0.00    +0.155 HD
BRANCH  18  20
ATOM     20  C   UNL     1      -0.915  -4.010   1.359  0.00  0.00    +0.033 A 
ATOM     21  C   UNL     1      -1.034  -4.559   2.629  0.00  0.00    +0.023 A 
ATOM     22  C   UNL     1      -1.105  -5.930   2.784  0.00  0.00    +0.006 A 
ATOM     23  C   UNL     1      -1.060  -6.755   1.675  0.00  0.00    -0.045 A 
ATOM     24  C   UNL     1      -0.942  -6.212   0.409  0.00  0.00    +0.006 A 
ATOM     25  C   UNL     1      -0.875  -4.842   0.248  0.00  0.00    +0.023 A 
BRANCH  23  26
ATOM     26  C   UNL     1      -1.139  -8.250   1.847  0.00  0.00    +0.013 C 
ATOM     27  C   UNL     1      -2.361  -8.786   1.099  0.00  0.00    +0.012 C 
ATOM     28  C   UNL     1       0.129  -8.896   1.283  0.00  0.00    +0.012 C 
ENDBRANCH  23  26
ENDBRANCH  18  20
ENDBRANCH   1  16
BRANCH   1  30
ATOM     29  C   UNL     1      -0.001   1.518  -0.005  0.00  0.00    +0.006 C 
ATOM     30  C   UNL     1       0.011  -0.012  -0.009  0.00  0.00    +0.031 C 
ENDBRANCH   1  30
TORSDOF 5
