REMARK  Name = ZINC39362466
REMARK  13 active torsions:
REMARK  status: ('A' for Active; 'I' for Inactive)
REMARK    1  A    between atoms: C_1  and  C_2
REMARK    2  A    between atoms: C_7  and  C_34
REMARK    3  A    between atoms: C_8  and  C_12
REMARK    4  A    between atoms: C_12  and  N_13
REMARK    5  A    between atoms: N_16  and  C_23
REMARK    6  A    between atoms: C_17  and  C_20
REMARK    7  A    between atoms: C_20  and  C_21
REMARK    8  A    between atoms: C_21  and  O_22
REMARK    9  A    between atoms: C_23  and  C_24
REMARK   10  A    between atoms: C_26  and  O_32
REMARK   11  A    between atoms: C_28  and  O_30
REMARK   12  A    between atoms: O_30  and  C_31
REMARK   13  A    between atoms: O_32  and  C_33
REMARK                            x       y       z     vdW  Elec       q    Type
REMARK                         _______ _______ _______ _____ _____    ______ ____
ROOT
ATOM      1  N   UNL     1      -6.324   0.763  -0.148  0.00  0.00    +0.385 N 
ATOM      2  C   UNL     1      -6.606   0.589  -1.579  0.00  0.00    -0.063 C 
ATOM      3  C   UNL     1      -7.271  -0.771  -1.807  0.00  0.00    +0.066 C 
ATOM      4  N   UNL     1      -8.518  -0.839  -1.032  0.00  0.00    -0.299 NA
ATOM      5  C   UNL     1      -8.254  -0.642   0.400  0.00  0.00    +0.043 C 
ATOM      6  C   UNL     1      -7.582   0.716   0.609  0.00  0.00    -0.059 C 
ATOM      7  H   UNL     1      -5.715   0.023   0.166  0.00  0.00    -0.081 HD
ENDROOT
BRANCH   1   8
ATOM      8  C   UNL     1      -5.670   2.060   0.067  0.00  0.00    -0.024 C 
BRANCH   8  16
ATOM      9  C   UNL     1      -2.475   3.767  -4.251  0.00  0.00    +0.046 C 
ATOM     10  C   UNL     1      -1.899   2.905  -3.157  0.00  0.00    -0.027 A 
ATOM     11  C   UNL     1      -0.576   2.524  -3.202  0.00  0.00    +0.005 A 
ATOM     12  C   UNL     1      -0.033   1.730  -2.202  0.00  0.00    +0.001 A 
ATOM     13  C   UNL     1      -0.803   1.313  -1.152  0.00  0.00    +0.010 A 
ATOM     14  C   UNL     1      -2.146   1.688  -1.086  0.00  0.00    +0.003 A 
ATOM     15  C   UNL     1      -3.230   1.430  -0.135  0.00  0.00    -0.024 A 
ATOM     16  C   UNL     1      -4.319   2.059  -0.601  0.00  0.00    +0.003 A 
ATOM     17  H   UNL     1      -4.650   3.222  -2.297  0.00  0.00    +0.166 HD
ATOM     18  N   UNL     1      -4.023   2.700  -1.773  0.00  0.00    -0.359 N 
ATOM     19  C   UNL     1      -2.699   2.497  -2.095  0.00  0.00    +0.050 A 
ATOM     20  C   UNL     1      -3.138   0.612   1.128  0.00  0.00    +0.046 C 
ENDBRANCH   8  16
ENDBRANCH   1   8
BRANCH   5  21
ATOM     21  C   UNL     1      -9.574  -0.684   1.173  0.00  0.00    +0.045 C 
BRANCH  21  22
ATOM     22  C   UNL     1      -9.293  -0.535   2.669  0.00  0.00    +0.157 C 
BRANCH  22  23
ATOM     23  O   UNL     1     -10.511  -0.694   3.400  0.00  0.00    -0.395 OA
ATOM     24  H   UNL     1     -10.408  -0.612   4.358  0.00  0.00    +0.209 HD
ENDBRANCH  22  23
ENDBRANCH  21  22
ENDBRANCH   5  21
BRANCH   4  25
ATOM     25  C   UNL     1      -9.215  -2.110  -1.269  0.00  0.00    +0.120 C 
BRANCH  25  26
ATOM     26  C   UNL     1      -9.781  -2.120  -2.666  0.00  0.00    -0.026 A 
ATOM     27  C   UNL     1     -11.055  -1.638  -2.897  0.00  0.00    +0.050 A 
ATOM     28  C   UNL     1     -11.578  -1.646  -4.183  0.00  0.00    +0.124 A 
ATOM     29  C   UNL     1     -10.822  -2.138  -5.235  0.00  0.00    +0.091 A 
ATOM     30  C   UNL     1      -9.544  -2.622  -5.000  0.00  0.00    +0.124 A 
ATOM     31  C   UNL     1      -9.023  -2.607  -3.714  0.00  0.00    +0.050 A 
BRANCH  30  32
ATOM     32  O   UNL     1      -8.800  -3.106  -6.029  0.00  0.00    -0.495 OA
ATOM     33  C   UNL     1      -9.398  -3.086  -7.327  0.00  0.00    +0.277 C 
ENDBRANCH  30  32
BRANCH  28  34
ATOM     34  O   UNL     1     -12.831  -1.171  -4.410  0.00  0.00    -0.495 OA
ATOM     35  C   UNL     1     -13.305  -1.210  -5.757  0.00  0.00    +0.277 C 
ENDBRANCH  28  34
ENDBRANCH  25  26
ENDBRANCH   4  25
TORSDOF 9
