REMARK  Name = ZINC35457945
REMARK  6 active torsions:
REMARK  status: ('A' for Active; 'I' for Inactive)
REMARK    1  A    between atoms: C_1  and  N_2
REMARK    2  A    between atoms: N_2  and  C_3
REMARK    3  A    between atoms: C_3  and  C_5
REMARK    4  A    between atoms: C_3  and  C_10
REMARK    5  A    between atoms: C_15  and  O_16
REMARK    6  A    between atoms: O_16  and  C_17
REMARK                            x       y       z     vdW  Elec       q    Type
REMARK                         _______ _______ _______ _____ _____    ______ ____
ROOT
ATOM      1  C   UNL     1      -1.446  -0.703  -0.025  0.00  0.00    -0.004 C 
ENDROOT
BRANCH   1   2
ATOM      2  C   UNL     1      -1.344  -2.198   0.136  0.00  0.00    -0.013 A 
ATOM      3  C   UNL     1      -1.464  -3.022  -0.967  0.00  0.00    +0.026 A 
ATOM      4  C   UNL     1      -1.371  -4.394  -0.820  0.00  0.00    +0.042 A 
ATOM      5  C   UNL     1      -1.158  -4.945   0.432  0.00  0.00    +0.039 A 
ATOM      6  C   UNL     1      -1.037  -4.125   1.537  0.00  0.00    +0.061 A 
ATOM      7  C   UNL     1      -1.125  -2.747   1.391  0.00  0.00    +0.136 A 
ATOM      8 BR   UNL     1      -0.746  -4.878   3.247  0.00  0.00    -0.046 Br
ATOM      9 CL   UNL     1      -1.522  -5.427  -2.207  0.00  0.00    -0.083 Cl
BRANCH   7  10
ATOM     10  O   UNL     1      -1.001  -1.938   2.476  0.00  0.00    -0.494 OA
ATOM     11  C   UNL     1      -2.185  -1.686   3.235  0.00  0.00    +0.277 C 
ENDBRANCH   7  10
ENDBRANCH   1   2
BRANCH   1  12
ATOM     12  C   UNL     1      -2.062  -0.383  -1.362  0.00  0.00    -0.019 A 
ATOM     13  C   UNL     1      -3.422  -0.088  -1.613  0.00  0.00    +0.043 A 
ATOM     14  C   UNL     1      -3.534   0.136  -2.935  0.00  0.00    +0.195 A 
ATOM     15  O   UNL     1      -2.322  -0.007  -3.494  0.00  0.00    -0.471 OA
ATOM     16  C   UNL     1      -1.424  -0.316  -2.544  0.00  0.00    +0.197 A 
ENDBRANCH   1  12
BRANCH   1  18
ATOM     17  C   UNL     1      -0.212   1.354   0.013  0.00  0.00    -0.099 C 
ATOM     18  N   UNL     1      -0.103  -0.111   0.050  0.00  0.00    +0.385 N 
ATOM     19  H   UNL     1       0.448  -0.427  -0.734  0.00  0.00    -0.085 HD
ATOM     20  H   UNL     1       0.342  -0.393   0.910  0.00  0.00    -0.085 HD
ENDBRANCH   1  18
TORSDOF 4
