REMARK  Name = ZINC44877710
REMARK  10 active torsions:
REMARK  status: ('A' for Active; 'I' for Inactive)
REMARK    1  A    between atoms: C_1  and  C_2
REMARK    2  A    between atoms: N_7  and  C_9
REMARK    3  A    between atoms: C_9  and  C_10
REMARK    4  A    between atoms: C_13  and  C_16
REMARK    5  A    between atoms: C_16  and  N_17
REMARK    6  A    between atoms: C_18  and  C_20
REMARK    7  A    between atoms: C_20  and  N_21
REMARK    8  A    between atoms: N_21  and  C_22
REMARK    9  A    between atoms: N_21  and  S_29
REMARK   10  A    between atoms: S_29  and  C_32
REMARK                            x       y       z     vdW  Elec       q    Type
REMARK                         _______ _______ _______ _____ _____    ______ ____
ROOT
ATOM      1  N   UNL     1       3.583 -10.994   1.591  0.00  0.00    -0.310 N 
ATOM      2  C   UNL     1       2.715 -11.694   0.835  0.00  0.00    +0.232 C 
ATOM      3  O   UNL     1       2.813 -12.901   0.759  0.00  0.00    -0.274 OA
ATOM      4  H   UNL     1       3.504 -10.029   1.652  0.00  0.00    +0.149 HD
ENDROOT
BRANCH   1   5
ATOM      5  C   UNL     1       4.645 -11.689   2.322  0.00  0.00    +0.139 C 
BRANCH   5   9
ATOM      6  C   UNL     1       6.989  -8.845   4.482  0.00  0.00    -0.064 A 
ATOM      7  C   UNL     1       5.882  -9.423   5.076  0.00  0.00    +0.002 A 
ATOM      8  C   UNL     1       5.124 -10.344   4.377  0.00  0.00    +0.005 A 
ATOM      9  C   UNL     1       5.471 -10.685   3.084  0.00  0.00    -0.030 A 
ATOM     10  C   UNL     1       6.577 -10.107   2.489  0.00  0.00    +0.005 A 
ATOM     11  C   UNL     1       7.333  -9.184   3.187  0.00  0.00    +0.002 A 
BRANCH   6  12
ATOM     12  C   UNL     1       7.816  -7.842   5.245  0.00  0.00    -0.043 C 
BRANCH  12  18
ATOM     13  C   UNL     1       8.579  -3.068   6.009  0.00  0.00    +0.005 C 
ATOM     14  C   UNL     1       7.661  -4.094   5.342  0.00  0.00    -0.031 C 
ATOM     15  C   UNL     1       6.238  -3.936   5.885  0.00  0.00    -0.001 C 
ATOM     16  C   UNL     1       5.345  -5.018   5.270  0.00  0.00    -0.018 C 
ATOM     17  C   UNL     1       5.934  -6.395   5.580  0.00  0.00    -0.078 C 
ATOM     18  N   UNL     1       7.285  -6.493   5.012  0.00  0.00    +0.383 N 
ATOM     19  C   UNL     1       8.165  -5.506   5.648  0.00  0.00    -0.075 C 
ATOM     20  H   UNL     1       7.245  -6.315   4.020  0.00  0.00    -0.081 HD
ENDBRANCH  12  18
ENDBRANCH   6  12
ENDBRANCH   5   9
ENDBRANCH   1   5
BRANCH   2  21
ATOM     21  C   UNL     1       1.622 -10.979   0.084  0.00  0.00    +0.227 C 
BRANCH  21  22
ATOM     22  N   UNL     1       0.819 -11.955  -0.657  0.00  0.00    -0.194 N 
BRANCH  22  23
ATOM     23  C   UNL     1      -0.236 -12.617  -0.023  0.00  0.00    +0.052 A 
ATOM     24  C   UNL     1      -0.156 -13.983   0.216  0.00  0.00    +0.026 A 
ATOM     25  C   UNL     1      -1.199 -14.636   0.843  0.00  0.00    +0.022 A 
ATOM     26  C   UNL     1      -2.323 -13.930   1.234  0.00  0.00    +0.041 A 
ATOM     27  C   UNL     1      -2.405 -12.569   0.998  0.00  0.00    +0.022 A 
ATOM     28  C   UNL     1      -1.363 -11.910   0.376  0.00  0.00    +0.026 A 
ATOM     29 CL   UNL     1      -3.633 -14.753   2.022  0.00  0.00    -0.084 Cl
ENDBRANCH  22  23
BRANCH  22  30
ATOM     30  S   UNL     1       1.160 -12.272  -2.246  0.00  0.00    +0.075 S 
ATOM     31  O   UNL     1       0.008 -12.901  -2.791  0.00  0.00    -0.150 OA
ATOM     32  O   UNL     1       1.705 -11.079  -2.791  0.00  0.00    -0.150 OA
BRANCH  30  33
ATOM     33  C   UNL     1       2.449 -13.473  -2.272  0.00  0.00    +0.109 A 
ATOM     34  C   UNL     1       3.766 -13.076  -2.139  0.00  0.00    +0.029 A 
ATOM     35  C   UNL     1       4.778 -14.018  -2.160  0.00  0.00    +0.002 A 
ATOM     36  C   UNL     1       4.472 -15.357  -2.312  0.00  0.00    +0.000 A 
ATOM     37  C   UNL     1       3.155 -15.755  -2.444  0.00  0.00    +0.002 A 
ATOM     38  C   UNL     1       2.143 -14.813  -2.419  0.00  0.00    +0.029 A 
ENDBRANCH  30  33
ENDBRANCH  22  30
ENDBRANCH  21  22
ENDBRANCH   2  21
TORSDOF 9
