REMARK  Name = ZINC04354302
REMARK  9 active torsions:
REMARK  status: ('A' for Active; 'I' for Inactive)
REMARK    1  A    between atoms: C_1  and  C_2
REMARK    2  A    between atoms: C_2  and  C_4
REMARK    3  A    between atoms: C_2  and  O_25
REMARK    4  A    between atoms: N_6  and  N_7
REMARK    5  A    between atoms: C_8  and  C_9
REMARK    6  A    between atoms: C_12  and  O_15
REMARK    7  A    between atoms: O_15  and  C_16
REMARK    8  A    between atoms: C_16  and  C_18
REMARK    9  A    between atoms: O_25  and  C_26
REMARK                            x       y       z     vdW  Elec       q    Type
REMARK                         _______ _______ _______ _____ _____    ______ ____
ROOT
ATOM      1  N   UNL     1       1.178  -5.016   0.164  0.00  0.00    -0.188 NA
ATOM      2  C   UNL     1       0.059  -4.361   0.228  0.00  0.00    +0.138 C 
ENDROOT
BRANCH   2   3
ATOM      3  C   UNL     1       0.068  -2.886   0.239  0.00  0.00    -0.005 A 
ATOM      4  C   UNL     1      -1.135  -2.179   0.308  0.00  0.00    +0.013 A 
ATOM      5  C   UNL     1      -1.123  -0.801   0.319  0.00  0.00    +0.047 A 
ATOM      6  C   UNL     1       0.084  -0.115   0.263  0.00  0.00    +0.132 A 
ATOM      7  C   UNL     1       1.282  -0.814   0.189  0.00  0.00    +0.047 A 
ATOM      8  C   UNL     1       1.279  -2.192   0.183  0.00  0.00    +0.013 A 
BRANCH   6   9
ATOM      9  O   UNL     1       0.092   1.243   0.274  0.00  0.00    -0.422 OA
BRANCH   9  10
ATOM     10  C   UNL     1      -0.337   1.848   1.399  0.00  0.00    +0.346 C 
ATOM     11  O   UNL     1      -0.618   1.184   2.376  0.00  0.00    -0.244 OA
BRANCH  10  12
ATOM     12  C   UNL     1      -0.464   3.319   1.443  0.00  0.00    +0.073 A 
ATOM     13  C   UNL     1      -0.136   4.086   0.323  0.00  0.00    +0.016 A 
ATOM     14  C   UNL     1      -0.264   5.458   0.369  0.00  0.00    +0.001 A 
ATOM     15  C   UNL     1      -0.704   6.077   1.526  0.00  0.00    +0.001 A 
ATOM     16  C   UNL     1      -1.026   5.325   2.642  0.00  0.00    +0.016 A 
ATOM     17  C   UNL     1      -0.909   3.950   2.608  0.00  0.00    +0.032 A 
ATOM     18 BR   UNL     1      -1.348   2.923   4.134  0.00  0.00    -0.049 Br
ENDBRANCH  10  12
ENDBRANCH   9  10
ENDBRANCH   6   9
ENDBRANCH   2   3
BRANCH   1  21
ATOM     19  C   UNL     1       2.331  -7.097   0.087  0.00  0.00    +0.273 C 
ATOM     20  O   UNL     1       3.384  -6.496   0.037  0.00  0.00    -0.270 OA
ATOM     21  N   UNL     1       1.169  -6.417   0.153  0.00  0.00    -0.204 N 
ATOM     22  H   UNL     1       0.328  -6.897   0.192  0.00  0.00    +0.177 HD
BRANCH  19  24
ATOM     23  C   UNL     1       1.664  -9.120   1.355  0.00  0.00    +0.062 C 
ATOM     24  C   UNL     1       2.322  -8.604   0.075  0.00  0.00    +0.257 C 
BRANCH  24  25
ATOM     25  O   UNL     1       3.665  -9.087   0.001  0.00  0.00    -0.479 OA
BRANCH  25  26
ATOM     26  C   UNL     1       3.868 -10.239  -0.689  0.00  0.00    +0.129 A 
ATOM     27  C   UNL     1       2.804 -10.954  -1.164  0.00  0.00    +0.046 A 
ATOM     28  C   UNL     1       2.996 -12.136  -1.873  0.00  0.00    +0.004 A 
ATOM     29  C   UNL     1       4.248 -12.616  -2.114  0.00  0.00    +0.009 A 
ATOM     30  C   UNL     1       5.368 -11.911  -1.642  0.00  0.00    -0.014 A 
ATOM     31  C   UNL     1       5.178 -10.703  -0.925  0.00  0.00    +0.024 A 
ATOM     32  C   UNL     1       6.297 -10.002  -0.449  0.00  0.00    +0.012 A 
ATOM     33  C   UNL     1       7.548 -10.483  -0.691  0.00  0.00    +0.001 A 
ATOM     34  C   UNL     1       7.735 -11.667  -1.401  0.00  0.00    +0.001 A 
ATOM     35  C   UNL     1       6.674 -12.377  -1.873  0.00  0.00    +0.008 A 
ENDBRANCH  25  26
ENDBRANCH  24  25
ENDBRANCH  19  24
ENDBRANCH   1  21
TORSDOF 8
