REMARK  Name = ZINC01441124
REMARK  6 active torsions:
REMARK  status: ('A' for Active; 'I' for Inactive)
REMARK    1  A    between atoms: C_6  and  C_7
REMARK    2  A    between atoms: C_7  and  C_8
REMARK    3  A    between atoms: C_8  and  N_9
REMARK    4  A    between atoms: N_9  and  S_10
REMARK    5  A    between atoms: S_10  and  C_13
REMARK    6  A    between atoms: C_16  and  C_19
REMARK                            x       y       z     vdW  Elec       q    Type
REMARK                         _______ _______ _______ _____ _____    ______ ____
ROOT
ATOM      1  S   UNL     1       2.713   0.923  -0.019  0.00  0.00    +0.058 S 
ATOM      2  O   UNL     1       3.680   1.809   0.527  0.00  0.00    -0.153 OA
ATOM      3  O   UNL     1       2.464  -0.365   0.527  0.00  0.00    -0.153 OA
ENDROOT
BRANCH   1   4
ATOM      4  C   UNL     1       1.175   1.783   0.000  0.00  0.00    +0.105 A 
ATOM      5  C   UNL     1      -0.013   1.076   0.008  0.00  0.00    +0.029 A 
ATOM      6  C   UNL     1      -1.219   1.751   0.017  0.00  0.00    +0.006 A 
ATOM      7  C   UNL     1      -1.238   3.133   0.030  0.00  0.00    -0.044 A 
ATOM      8  C   UNL     1      -0.050   3.840   0.022  0.00  0.00    +0.006 A 
ATOM      9  C   UNL     1       1.156   3.165   0.008  0.00  0.00    +0.029 A 
BRANCH   7  10
ATOM     10  C   UNL     1      -2.553   3.869   0.045  0.00  0.00    +0.019 C 
ATOM     11  C   UNL     1      -3.338   3.482   1.300  0.00  0.00    +0.008 C 
ATOM     12  C   UNL     1      -4.674   4.229   1.316  0.00  0.00    +0.001 C 
ATOM     13  C   UNL     1      -5.482   3.854   0.072  0.00  0.00    +0.000 C 
ATOM     14  C   UNL     1      -4.697   4.241  -1.182  0.00  0.00    +0.001 C 
ATOM     15  C   UNL     1      -3.361   3.494  -1.198  0.00  0.00    +0.008 C 
ENDBRANCH   7  10
ENDBRANCH   1   4
BRANCH   1  16
ATOM     16  N   UNL     1       3.125   0.693  -1.606  0.00  0.00    -0.190 NA
ATOM     17  H   UNL     1       3.171  -0.205  -1.970  0.00  0.00    +0.148 HD
BRANCH  16  18
ATOM     18  C   UNL     1       3.420   1.845  -2.461  0.00  0.00    +0.110 C 
BRANCH  18  19
ATOM     19  C   UNL     1       4.121   1.369  -3.735  0.00  0.00    +0.052 C 
BRANCH  19  25
ATOM     20  C   UNL     1       3.504   2.968  -5.559  0.00  0.00    +0.005 A 
ATOM     21  C   UNL     1       3.779   4.059  -6.362  0.00  0.00    +0.020 A 
ATOM     22  C   UNL     1       4.982   4.730  -6.228  0.00  0.00    +0.041 A 
ATOM     23  C   UNL     1       5.905   4.312  -5.286  0.00  0.00    +0.020 A 
ATOM     24  C   UNL     1       5.626   3.225  -4.480  0.00  0.00    +0.005 A 
ATOM     25  C   UNL     1       4.425   2.554  -4.614  0.00  0.00    -0.046 A 
ATOM     26 CL   UNL     1       5.331   6.096  -7.241  0.00  0.00    -0.084 Cl
ENDBRANCH  19  25
ENDBRANCH  18  19
ENDBRANCH  16  18
ENDBRANCH   1  16
TORSDOF 6
