REMARK  Name = ZINC54734459
REMARK  5 active torsions:
REMARK  status: ('A' for Active; 'I' for Inactive)
REMARK    1  A    between atoms: C_1  and  C_2
REMARK    2  A    between atoms: C_5  and  C_7
REMARK    3  A    between atoms: C_7  and  C_9
REMARK    4  A    between atoms: C_7  and  N_10
REMARK    5  A    between atoms: C_19  and  C_21
REMARK                            x       y       z     vdW  Elec       q    Type
REMARK                         _______ _______ _______ _____ _____    ______ ____
ROOT
ATOM      1  N   UNL     1       2.195  -4.146  -0.914  0.00  0.00    -0.292 N 
ATOM      2  C   UNL     1       2.523  -5.315  -1.500  0.00  0.00    +0.303 C 
ATOM      3  O   UNL     1       1.909  -6.327  -1.222  0.00  0.00    -0.253 OA
ATOM      4  N   UNL     1       3.531  -5.361  -2.393  0.00  0.00    -0.279 N 
ATOM      5  C   UNL     1       4.311  -4.133  -2.644  0.00  0.00    +0.110 C 
ATOM      6  C   UNL     1       4.607  -3.930  -4.141  0.00  0.00    +0.019 C 
ATOM      7  C   UNL     1       3.395  -4.292  -4.963  0.00  0.00    +0.002 C 
ATOM      8  C   UNL     1       3.479  -5.760  -5.370  0.00  0.00    +0.002 C 
ATOM      9  C   UNL     1       2.963  -6.699  -4.362  0.00  0.00    +0.027 C 
ATOM     10  C   UNL     1       3.808  -6.613  -3.061  0.00  0.00    +0.108 C 
ATOM     11  H   UNL     1       2.731  -3.354  -1.077  0.00  0.00    +0.151 HD
ENDROOT
BRANCH  10  12
ATOM     12  C   UNL     1       3.452  -7.758  -2.148  0.00  0.00    -0.024 A 
ATOM     13  C   UNL     1       2.571  -8.747  -2.560  0.00  0.00    +0.025 A 
ATOM     14  C   UNL     1       2.269  -9.782  -1.695  0.00  0.00    +0.111 A 
ATOM     15  N   UNL     1       2.807  -9.835  -0.492  0.00  0.00    -0.263 NA
ATOM     16  C   UNL     1       3.648  -8.913  -0.068  0.00  0.00    +0.111 A 
ATOM     17  C   UNL     1       4.003  -7.852  -0.879  0.00  0.00    +0.025 A 
ENDBRANCH  10  12
BRANCH   1  18
ATOM     18  C   UNL     1       1.028  -4.071  -0.031  0.00  0.00    +0.108 C 
ATOM     19  C   UNL     1       1.429  -4.498   1.382  0.00  0.00    +0.033 C 
BRANCH  18  24
ATOM     20  C   UNL     1       0.041   1.506   0.096  0.00  0.00    +0.051 C 
ATOM     21  C   UNL     1       0.041  -0.001   0.060  0.00  0.00    -0.013 A 
ATOM     22  C   UNL     1      -1.012  -0.855   0.033  0.00  0.00    +0.011 A 
ATOM     23  C   UNL     1      -0.771  -2.215   0.002  0.00  0.00    +0.013 A 
ATOM     24  C   UNL     1       0.511  -2.656  -0.000  0.00  0.00    +0.010 A 
ATOM     25  S   UNL     1       1.428  -1.125   0.035  0.00  0.00    -0.097 S 
ENDBRANCH  18  24
ENDBRANCH   1  18
TORSDOF 3
