REMARK  Name = ZINC45795223
REMARK  9 active torsions:
REMARK  status: ('A' for Active; 'I' for Inactive)
REMARK    1  A    between atoms: C_4  and  C_7
REMARK    2  A    between atoms: C_7  and  C_8
REMARK    3  A    between atoms: C_8  and  C_10
REMARK    4  A    between atoms: C_8  and  N_26
REMARK    5  A    between atoms: N_12  and  C_13
REMARK    6  A    between atoms: C_19  and  C_21
REMARK    7  A    between atoms: C_27  and  O_29
REMARK    8  A    between atoms: O_29  and  C_30
REMARK    9  A    between atoms: C_30  and  C_31
REMARK                            x       y       z     vdW  Elec       q    Type
REMARK                         _______ _______ _______ _____ _____    ______ ____
ROOT
ATOM      1  C   UNL     1       3.702  -0.900   0.033  0.00  0.00    +0.166 C 
ENDROOT
BRANCH   1   2
ATOM      2  C   UNL     1       4.914  -1.741   0.343  0.00  0.00    +0.234 C 
ATOM      3  O   UNL     1       5.791  -1.301   1.057  0.00  0.00    -0.274 OA
ATOM      4  N   UNL     1       5.024  -2.981  -0.173  0.00  0.00    -0.311 N 
ATOM      5  H   UNL     1       4.323  -3.333  -0.744  0.00  0.00    +0.149 HD
BRANCH   4   6
ATOM      6  C   UNL     1       6.202  -3.798   0.128  0.00  0.00    +0.076 C 
ATOM      7  C   UNL     1       7.328  -3.449  -0.848  0.00  0.00    +0.041 C 
ATOM      8  C   UNL     1       8.569  -4.280  -0.508  0.00  0.00    +0.110 C 
ATOM      9  N   UNL     1       8.198  -5.702  -0.498  0.00  0.00    -0.295 N 
ATOM     10  C   UNL     1       7.069  -6.131   0.338  0.00  0.00    +0.110 C 
ATOM     11  C   UNL     1       5.844  -5.279  -0.011  0.00  0.00    +0.041 C 
ATOM     12  C   UNL     1       8.880  -6.595  -1.242  0.00  0.00    +0.282 C 
ATOM     13  O   UNL     1       9.726  -6.212  -2.029  0.00  0.00    -0.267 OA
BRANCH  12  14
ATOM     14  C   UNL     1       8.603  -8.028  -1.104  0.00  0.00    +0.189 A 
ATOM     15  C   UNL     1       9.109  -9.023  -1.891  0.00  0.00    +0.054 A 
ATOM     16  C   UNL     1       8.584 -10.230  -1.403  0.00  0.00    +0.042 A 
ATOM     17  C   UNL     1       7.791  -9.923  -0.353  0.00  0.00    +0.196 A 
ATOM     18  O   UNL     1       7.809  -8.596  -0.173  0.00  0.00    -0.458 OA
ENDBRANCH  12  14
ENDBRANCH   4   6
ENDBRANCH   1   2
BRANCH   1  19
ATOM     19  N   UNL     1       3.821   0.395   0.707  0.00  0.00    -0.269 N 
ATOM     20  C   UNL     1       2.714   1.101   1.010  0.00  0.00    +0.401 C 
ATOM     21  O   UNL     1       1.617   0.663   0.724  0.00  0.00    -0.226 OA
ATOM     22  H   UNL     1       4.697   0.744   0.936  0.00  0.00    +0.153 HD
BRANCH  20  23
ATOM     23  O   UNL     1       2.822   2.291   1.630  0.00  0.00    -0.446 OA
BRANCH  23  24
ATOM     24  C   UNL     1       1.607   2.985   1.920  0.00  0.00    +0.269 C 
BRANCH  24  25
ATOM     25  C   UNL     1       1.925   4.287   2.609  0.00  0.00    -0.010 A 
ATOM     26  C   UNL     1       2.018   4.335   3.987  0.00  0.00    +0.007 A 
ATOM     27  C   UNL     1       2.309   5.530   4.619  0.00  0.00    +0.000 A 
ATOM     28  C   UNL     1       2.508   6.676   3.873  0.00  0.00    +0.000 A 
ATOM     29  C   UNL     1       2.416   6.628   2.494  0.00  0.00    +0.000 A 
ATOM     30  C   UNL     1       2.129   5.432   1.862  0.00  0.00    +0.007 A 
ENDBRANCH  24  25
ENDBRANCH  23  24
ENDBRANCH  20  23
ENDBRANCH   1  19
BRANCH   1  31
ATOM     31  C   UNL     1       3.606  -0.682  -1.478  0.00  0.00    +0.067 C 
BRANCH  31  35
ATOM     32  C   UNL     1      -0.010   1.401  -2.391  0.00  0.00    +0.000 A 
ATOM     33  C   UNL     1       1.148   2.109  -2.127  0.00  0.00    +0.000 A 
ATOM     34  C   UNL     1       2.318   1.435  -1.832  0.00  0.00    +0.004 A 
ATOM     35  C   UNL     1       2.330   0.053  -1.799  0.00  0.00    -0.045 A 
ATOM     36  C   UNL     1       1.172  -0.655  -2.062  0.00  0.00    +0.004 A 
ATOM     37  C   UNL     1       0.003   0.019  -2.359  0.00  0.00    +0.000 A 
ENDBRANCH  31  35
ENDBRANCH   1  31
TORSDOF 9
