REMARK  Name = ZINC22619827
REMARK  13 active torsions:
REMARK  status: ('A' for Active; 'I' for Inactive)
REMARK    1  A    between atoms: C_1  and  C_2
REMARK    2  A    between atoms: C_2  and  C_3
REMARK    3  A    between atoms: C_3  and  C_4
REMARK    4  A    between atoms: C_3  and  C_5
REMARK    5  A    between atoms: C_3  and  C_6
REMARK    6  A    between atoms: N_14  and  C_18
REMARK    7  A    between atoms: C_18  and  C_19
REMARK    8  A    between atoms: N_21  and  C_22
REMARK    9  A    between atoms: C_22  and  C_23
REMARK   10  A    between atoms: C_23  and  C_25
REMARK   11  A    between atoms: C_23  and  N_32
REMARK   12  A    between atoms: N_32  and  C_33
REMARK   13  A    between atoms: N_32  and  C_34
REMARK                            x       y       z     vdW  Elec       q    Type
REMARK                         _______ _______ _______ _____ _____    ______ ____
ROOT
ATOM      1  C   UNL     1      -7.328   3.755   0.013  0.00  0.00    -0.005 C 
ATOM      2  C   UNL     1      -5.916   4.230   0.361  0.00  0.00    +0.006 C 
ATOM      3  C   UNL     1      -5.507   3.659   1.721  0.00  0.00    +0.035 C 
ATOM      4  C   UNL     1      -5.550   2.136   1.668  0.00  0.00    +0.113 C 
ATOM      5  C   UNL     1      -6.948   1.648   1.302  0.00  0.00    +0.035 C 
ATOM      6  C   UNL     1      -7.351   2.226  -0.057  0.00  0.00    +0.006 C 
ATOM      7  C   UNL     1      -4.534   1.614   0.678  0.00  0.00    +0.247 C 
ATOM      8  O   UNL     1      -4.492   1.832  -0.514  0.00  0.00    -0.273 OA
ATOM      9  N   UNL     1      -3.684   0.855   1.400  0.00  0.00    -0.215 N 
ATOM     10  C   UNL     1      -4.028   0.825   2.694  0.00  0.00    +0.310 C 
ATOM     11  O   UNL     1      -3.418   0.203   3.541  0.00  0.00    -0.252 OA
ATOM     12  N   UNL     1      -5.125   1.563   2.951  0.00  0.00    -0.285 N 
ATOM     13  H   UNL     1      -5.692   1.784   3.868  0.00  0.00    +0.151 HD
ENDROOT
BRANCH   1  14
ATOM     14  C   UNL     1      -7.742   4.333  -1.341  0.00  0.00    -0.032 C 
ATOM     15  C   UNL     1      -7.721   5.861  -1.271  0.00  0.00    +0.011 C 
ATOM     16  C   UNL     1      -6.764   3.859  -2.419  0.00  0.00    +0.011 C 
BRANCH  14  18
ATOM     17  C   UNL     1      -9.567   4.436  -3.044  0.00  0.00    +0.004 C 
ATOM     18  C   UNL     1      -9.154   3.858  -1.689  0.00  0.00    +0.003 C 
ENDBRANCH  14  18
ENDBRANCH   1  14
BRANCH   9  19
ATOM     19  C   UNL     1      -2.532   0.147   0.838  0.00  0.00    +0.213 C 
BRANCH  19  20
ATOM     20  C   UNL     1      -1.321   1.043   0.882  0.00  0.00    +0.231 C 
ATOM     21  O   UNL     1      -1.412   2.163   1.339  0.00  0.00    -0.274 OA
ATOM     22  N   UNL     1      -0.137   0.600   0.415  0.00  0.00    -0.315 N 
ATOM     23  H   UNL     1      -0.054  -0.417   0.005  0.00  0.00    +0.149 HD
BRANCH  22  24
ATOM     24  C   UNL     1       1.038   1.473   0.453  0.00  0.00    +0.093 C 
BRANCH  24  25
ATOM     25  C   UNL     1       2.241   0.736  -0.140  0.00  0.00    -0.020 C 
BRANCH  25  26
ATOM     26  C   UNL     1       3.476   1.586   0.010  0.00  0.00    -0.041 A 
ATOM     27  C   UNL     1       3.568   2.493   1.050  0.00  0.00    +0.003 A 
ATOM     28  C   UNL     1       4.703   3.270   1.190  0.00  0.00    +0.000 A 
ATOM     29  C   UNL     1       5.742   3.147   0.286  0.00  0.00    +0.001 A 
ATOM     30  C   UNL     1       5.648   2.245  -0.757  0.00  0.00    +0.020 A 
ATOM     31  C   UNL     1       4.514   1.463  -0.895  0.00  0.00    +0.043 A 
ATOM     32 CL   UNL     1       4.396   0.330  -2.204  0.00  0.00    -0.083 Cl
ENDBRANCH  25  26
BRANCH  25  33
ATOM     33  N   UNL     1       2.433  -0.536   0.569  0.00  0.00    +0.382 N 
ATOM     34  C   UNL     1       3.424  -1.377  -0.116  0.00  0.00    -0.096 C 
ATOM     35  C   UNL     1       2.815  -0.306   1.969  0.00  0.00    -0.096 C 
ATOM     36  H   UNL     1       1.473  -1.074   0.565  0.00  0.00    -0.082 HD
ENDBRANCH  25  33
ENDBRANCH  24  25
ENDBRANCH  22  24
ENDBRANCH  19  20
ENDBRANCH   9  19
TORSDOF 8
