REMARK  Name = ZINC41637083
REMARK  5 active torsions:
REMARK  status: ('A' for Active; 'I' for Inactive)
REMARK    1  A    between atoms: C_1  and  C_2
REMARK    2  A    between atoms: C_8  and  C_10
REMARK    3  A    between atoms: C_10  and  C_12
REMARK    4  A    between atoms: C_10  and  N_17
REMARK    5  A    between atoms: C_22  and  C_24
REMARK                            x       y       z     vdW  Elec       q    Type
REMARK                         _______ _______ _______ _____ _____    ______ ____
ROOT
ATOM      1  C   UNL     1       0.028  -6.071   0.865  0.00  0.00    +0.043 C 
ENDROOT
BRANCH   1   9
ATOM      2  C   UNL     1       0.197   1.212  -0.735  0.00  0.00    +0.090 C 
ATOM      3  C   UNL     1       0.119  -0.284  -0.567  0.00  0.00    +0.150 A 
ATOM      4  N   UNL     1      -0.212  -1.151  -1.521  0.00  0.00    -0.205 NA
ATOM      5  C   UNL     1      -0.180  -2.361  -1.034  0.00  0.00    +0.199 A 
ATOM      6  N   UNL     1       0.180  -2.316   0.278  0.00  0.00    -0.170 N 
ATOM      7  N   UNL     1       0.371  -0.934   0.537  0.00  0.00    -0.147 NA
ATOM      8  C   UNL     1       0.262  -3.513   0.949  0.00  0.00    +0.282 A 
ATOM      9  C   UNL     1      -0.003  -4.665   0.323  0.00  0.00    +0.053 A 
ATOM     10  S   UNL     1      -0.404  -4.100  -1.324  0.00  0.00    -0.050 S 
ATOM     11  O   UNL     1       0.618  -3.526   2.262  0.00  0.00    -0.265 OA
ENDBRANCH   1   9
BRANCH   1  12
ATOM     12  N   UNL     1       1.129  -6.814   0.236  0.00  0.00    +0.391 N 
ATOM     13  C   UNL     1       1.019  -6.707  -1.223  0.00  0.00    -0.077 C 
ATOM     14  C   UNL     1       2.116  -7.545  -1.884  0.00  0.00    -0.019 C 
ATOM     15  C   UNL     1       3.486  -7.028  -1.434  0.00  0.00    -0.003 C 
ATOM     16  C   UNL     1       3.562  -7.074   0.095  0.00  0.00    -0.016 C 
ATOM     17  C   UNL     1       2.411  -6.254   0.682  0.00  0.00    -0.070 C 
ATOM     18  C   UNL     1       2.482  -6.297   2.209  0.00  0.00    -0.013 C 
ATOM     19  H   UNL     1       1.075  -7.785   0.506  0.00  0.00    -0.080 HD
ENDBRANCH   1  12
BRANCH   1  20
ATOM     20  C   UNL     1      -1.279  -6.757   0.558  0.00  0.00    +0.096 A 
ATOM     21  C   UNL     1      -2.286  -6.954   1.428  0.00  0.00    +0.043 A 
ATOM     22  C   UNL     1      -3.309  -7.630   0.723  0.00  0.00    +0.041 A 
ATOM     23  C   UNL     1      -2.865  -7.805  -0.535  0.00  0.00    +0.195 A 
ATOM     24  O   UNL     1      -1.637  -7.269  -0.630  0.00  0.00    -0.469 OA
ENDBRANCH   1  20
TORSDOF 3
