REMARK  Name = ZINC02104881
REMARK  7 active torsions:
REMARK  status: ('A' for Active; 'I' for Inactive)
REMARK    1  A    between atoms: C_1  and  C_2
REMARK    2  A    between atoms: C_8  and  C_36
REMARK    3  A    between atoms: C_9  and  O_35
REMARK    4  A    between atoms: C_19  and  C_21
REMARK    5  A    between atoms: C_21  and  N_66
REMARK    6  A    between atoms: C_24  and  C_27
REMARK    7  A    between atoms: C_24  and  O_34
REMARK                            x       y       z     vdW  Elec       q    Type
REMARK                         _______ _______ _______ _____ _____    ______ ____
ROOT
ATOM      1  C   UNL     1       3.187   1.878  -0.865  0.00  0.00    +0.008 C 
ATOM      2  C   UNL     1       1.811   1.237  -0.947  0.00  0.00    -0.001 C 
ATOM      3  C   UNL     1       0.994   1.594   0.292  0.00  0.00    +0.008 C 
ATOM      4  C   UNL     1      -0.448   1.123   0.038  0.00  0.00    +0.027 C 
ATOM      5  C   UNL     1      -0.391  -0.368  -0.154  0.00  0.00    -0.027 C 
ATOM      6  C   UNL     1       0.643  -0.960  -0.672  0.00  0.00    -0.061 C 
ATOM      7  C   UNL     1       1.882  -0.266  -1.172  0.00  0.00    +0.018 C 
ATOM      8  C   UNL     1       3.114  -0.898  -0.556  0.00  0.00    +0.132 C 
ATOM      9  C   UNL     1       3.068  -2.334  -0.149  0.00  0.00    +0.071 C 
ATOM     10  C   UNL     1       1.716  -2.969   0.185  0.00  0.00    +0.187 C 
ATOM     11  C   UNL     1       0.625  -2.475  -0.774  0.00  0.00    +0.076 C 
ATOM     12  O   UNL     1       1.897  -4.402  -0.039  0.00  0.00    -0.460 OA
ATOM     13  C   UNL     1       3.082  -4.678  -0.598  0.00  0.00    +0.309 C 
ATOM     14  O   UNL     1       3.560  -5.780  -0.747  0.00  0.00    -0.251 OA
ATOM     15  C   UNL     1       3.755  -3.377  -1.027  0.00  0.00    +0.090 C 
ATOM     16  C   UNL     1       1.928  -0.447  -2.700  0.00  0.00    +0.018 C 
ENDROOT
BRANCH   8  17
ATOM     17  O   UNL     1       4.250  -0.689  -1.407  0.00  0.00    -0.391 OA
ATOM     18  H   UNL     1       5.097  -0.899  -0.991  0.00  0.00    +0.210 HD
ENDBRANCH   8  17
BRANCH  15  19
ATOM     19  C   UNL     1       3.559  -3.189  -2.527  0.00  0.00    -0.064 C 
BRANCH  19  25
ATOM     20  C   UNL     1       3.984  -4.215  -4.679  0.00  0.00    -0.076 C 
ATOM     21  C   UNL     1       4.701  -5.375  -5.373  0.00  0.00    +0.021 C 
ATOM     22  C   UNL     1       6.214  -5.208  -5.203  0.00  0.00    +0.088 C 
ATOM     23  C   UNL     1       6.548  -5.150  -3.709  0.00  0.00    +0.021 C 
ATOM     24  C   UNL     1       5.777  -3.997  -3.063  0.00  0.00    -0.076 C 
ATOM     25  N   UNL     1       4.328  -4.229  -3.241  0.00  0.00    +0.380 N 
ATOM     26  H   UNL     1       4.088  -5.148  -2.850  0.00  0.00    -0.082 HD
BRANCH  22  27
ATOM     27  C   UNL     1       6.925  -6.378  -5.833  0.00  0.00    -0.016 A 
ATOM     28  C   UNL     1       7.198  -7.506  -5.082  0.00  0.00    +0.008 A 
ATOM     29  C   UNL     1       7.845  -8.582  -5.662  0.00  0.00    +0.020 A 
ATOM     30  C   UNL     1       8.229  -8.524  -6.990  0.00  0.00    +0.041 A 
ATOM     31  C   UNL     1       7.960  -7.393  -7.739  0.00  0.00    +0.020 A 
ATOM     32  C   UNL     1       7.308  -6.320  -7.160  0.00  0.00    +0.008 A 
ATOM     33 CL   UNL     1       9.047  -9.872  -7.716  0.00  0.00    -0.084 Cl
ENDBRANCH  22  27
BRANCH  22  34
ATOM     34  O   UNL     1       6.635  -3.997  -5.833  0.00  0.00    -0.384 OA
ATOM     35  H   UNL     1       6.454  -3.965  -6.783  0.00  0.00    +0.211 HD
ENDBRANCH  22  34
ENDBRANCH  19  25
ENDBRANCH  15  19
TORSDOF 5
