REMARK  Name = ZINC64622835
REMARK  7 active torsions:
REMARK  status: ('A' for Active; 'I' for Inactive)
REMARK    1  A    between atoms: C_1  and  C_2
REMARK    2  A    between atoms: C_2  and  O_3
REMARK    3  A    between atoms: O_3  and  C_4
REMARK    4  A    between atoms: C_4  and  C_6
REMARK    5  A    between atoms: C_6  and  C_7
REMARK    6  A    between atoms: C_10  and  N_13
REMARK    7  A    between atoms: C_29  and  C_31
REMARK                            x       y       z     vdW  Elec       q    Type
REMARK                         _______ _______ _______ _____ _____    ______ ____
ROOT
ATOM      1  N   UNL     1      -2.806  -8.711  -0.525  0.00  0.00    -0.269 N 
ATOM      2  C   UNL     1      -2.491  -9.100   0.726  0.00  0.00    +0.307 C 
ATOM      3  O   UNL     1      -2.363  -8.270   1.606  0.00  0.00    -0.252 OA
ATOM      4  N   UNL     1      -2.316 -10.407   1.002  0.00  0.00    -0.276 N 
ATOM      5  C   UNL     1      -2.325 -11.386  -0.089  0.00  0.00    +0.114 C 
ATOM      6  C   UNL     1      -3.422 -12.435   0.172  0.00  0.00    +0.052 C 
ATOM      7  C   UNL     1      -3.299 -12.838   1.621  0.00  0.00    -0.035 C 
ATOM      8  C   UNL     1      -3.200 -14.030   2.196  0.00  0.00    -0.001 A 
ATOM      9  C   UNL     1      -3.284 -15.393   1.646  0.00  0.00    +0.010 A 
ATOM     10  C   UNL     1      -3.115 -16.409   2.533  0.00  0.00    +0.001 A 
ATOM     11  C   UNL     1      -2.873 -16.208   3.895  0.00  0.00    +0.002 A 
ATOM     12  C   UNL     1      -2.788 -14.990   4.488  0.00  0.00    +0.026 A 
ATOM     13  C   UNL     1      -2.958 -13.844   3.659  0.00  0.00    +0.043 A 
ATOM     14  N   UNL     1      -2.950 -12.579   3.961  0.00  0.00    -0.375 N 
ATOM     15  C   UNL     1      -3.245 -11.813   2.749  0.00  0.00    +0.131 C 
ATOM     16  C   UNL     1      -2.113 -10.836   2.395  0.00  0.00    +0.137 C 
ATOM     17  H   UNL     1      -2.990  -9.376  -1.207  0.00  0.00    +0.156 HD
ATOM     18  H   UNL     1      -2.777 -12.206   4.839  0.00  0.00    +0.160 HD
ENDROOT
BRANCH  16  19
ATOM     19  C   UNL     1      -0.779 -11.525   2.527  0.00  0.00    +0.010 A 
ATOM     20  C   UNL     1      -0.430 -12.530   1.645  0.00  0.00    +0.008 A 
ATOM     21  C   UNL     1       0.794 -13.162   1.766  0.00  0.00    +0.000 A 
ATOM     22  C   UNL     1       1.669 -12.790   2.769  0.00  0.00    +0.003 A 
ATOM     23  C   UNL     1       1.322 -11.786   3.652  0.00  0.00    +0.039 A 
ATOM     24  C   UNL     1       0.099 -11.148   3.529  0.00  0.00    +0.128 A 
ATOM     25  F   UNL     1      -0.239 -10.162   4.389  0.00  0.00    -0.205 F 
ENDBRANCH  16  19
BRANCH   1  29
ATOM     26  C   UNL     1      -2.993  -4.656  -1.464  0.00  0.00    -0.037 A 
ATOM     27  C   UNL     1      -2.786  -5.587  -2.465  0.00  0.00    +0.006 A 
ATOM     28  C   UNL     1      -2.723  -6.932  -2.157  0.00  0.00    +0.023 A 
ATOM     29  C   UNL     1      -2.869  -7.349  -0.840  0.00  0.00    +0.035 A 
ATOM     30  C   UNL     1      -3.077  -6.412   0.163  0.00  0.00    +0.023 A 
ATOM     31  C   UNL     1      -3.133  -5.068  -0.151  0.00  0.00    +0.006 A 
BRANCH  26  32
ATOM     32  C   UNL     1      -3.061  -3.190  -1.803  0.00  0.00    +0.155 C 
BRANCH  32  33
ATOM     33  C   UNL     1      -1.679  -2.593  -1.733  0.00  0.00    +0.311 C 
ATOM     34  O   UNL     1      -0.736  -3.288  -1.438  0.00  0.00    -0.250 OA
BRANCH  33  35
ATOM     35  O   UNL     1      -1.496  -1.290  -1.999  0.00  0.00    -0.465 OA
BRANCH  35  37
ATOM     36  C   UNL     1      -0.149   0.701  -2.247  0.00  0.00    +0.048 C 
ATOM     37  C   UNL     1      -0.159  -0.792  -1.913  0.00  0.00    +0.229 C 
ENDBRANCH  35  37
ENDBRANCH  33  35
ENDBRANCH  32  33
ENDBRANCH  26  32
ENDBRANCH   1  29
TORSDOF 6
