REMARK  Name = ZINC59894334
REMARK  10 active torsions:
REMARK  status: ('A' for Active; 'I' for Inactive)
REMARK    1  A    between atoms: C_1  and  C_2
REMARK    2  A    between atoms: C_2  and  C_3
REMARK    3  A    between atoms: C_8  and  N_9
REMARK    4  A    between atoms: C_13  and  S_14
REMARK    5  A    between atoms: S_14  and  C_15
REMARK    6  A    between atoms: C_15  and  C_16
REMARK    7  A    between atoms: N_18  and  C_19
REMARK    8  A    between atoms: C_19  and  C_20
REMARK    9  A    between atoms: C_20  and  C_22
REMARK   10  A    between atoms: C_20  and  N_29
REMARK                            x       y       z     vdW  Elec       q    Type
REMARK                         _______ _______ _______ _____ _____    ______ ____
ROOT
ATOM      1  C   UNL     1      -3.986  -3.969  -0.511  0.00  0.00    +0.223 C 
ATOM      2  O   UNL     1      -2.998  -4.662  -0.636  0.00  0.00    -0.275 OA
ATOM      3  N   UNL     1      -5.133  -4.315  -1.128  0.00  0.00    -0.316 N 
ATOM      4  H   UNL     1      -5.923  -3.761  -1.028  0.00  0.00    +0.149 HD
ENDROOT
BRANCH   1   5
ATOM      5  C   UNL     1      -3.930  -2.723   0.334  0.00  0.00    +0.173 C 
BRANCH   5   6
ATOM      6  S   UNL     1      -2.263  -2.533   1.023  0.00  0.00    -0.076 S 
BRANCH   6  11
ATOM      7  N   UNL     1      -1.348  -0.479   2.693  0.00  0.00    -0.276 N 
ATOM      8  C   UNL     1      -1.885   0.650   3.251  0.00  0.00    +0.230 A 
ATOM      9  N   UNL     1      -3.131   0.714   2.875  0.00  0.00    -0.137 NA
ATOM     10  N   UNL     1      -3.418  -0.289   2.123  0.00  0.00    -0.122 NA
ATOM     11  C   UNL     1      -2.360  -1.051   1.972  0.00  0.00    +0.196 A 
BRANCH   7  17
ATOM     12  C   UNL     1       0.804  -0.997   1.722  0.00  0.00    -0.024 A 
ATOM     13  C   UNL     1       2.101  -1.454   1.858  0.00  0.00    +0.005 A 
ATOM     14  C   UNL     1       2.562  -1.868   3.094  0.00  0.00    +0.000 A 
ATOM     15  C   UNL     1       1.729  -1.825   4.197  0.00  0.00    +0.002 A 
ATOM     16  C   UNL     1       0.432  -1.369   4.066  0.00  0.00    +0.026 A 
ATOM     17  C   UNL     1      -0.033  -0.948   2.827  0.00  0.00    +0.053 A 
BRANCH  12  19
ATOM     18  C   UNL     1       0.467   0.969   0.248  0.00  0.00    +0.009 C 
ATOM     19  C   UNL     1       0.301  -0.547   0.374  0.00  0.00    +0.034 C 
ENDBRANCH  12  19
ENDBRANCH   7  17
ENDBRANCH   6  11
ENDBRANCH   5   6
ENDBRANCH   1   5
BRANCH   3  20
ATOM     20  C   UNL     1      -5.187  -5.527  -1.949  0.00  0.00    +0.093 C 
BRANCH  20  21
ATOM     21  C   UNL     1      -6.624  -5.760  -2.420  0.00  0.00    -0.020 C 
BRANCH  21  22
ATOM     22  C   UNL     1      -7.500  -6.058  -1.231  0.00  0.00    -0.058 A 
ATOM     23  C   UNL     1      -7.507  -7.325  -0.677  0.00  0.00    +0.002 A 
ATOM     24  C   UNL     1      -8.311  -7.598   0.413  0.00  0.00    +0.002 A 
ATOM     25  C   UNL     1      -9.109  -6.606   0.951  0.00  0.00    +0.020 A 
ATOM     26  C   UNL     1      -9.102  -5.338   0.397  0.00  0.00    +0.041 A 
ATOM     27  C   UNL     1      -8.293  -5.063  -0.691  0.00  0.00    +0.022 A 
ATOM     28 CL   UNL     1     -10.104  -4.091   1.072  0.00  0.00    -0.084 Cl
ENDBRANCH  21  22
BRANCH  21  29
ATOM     29  N   UNL     1      -6.656  -6.897  -3.349  0.00  0.00    +0.385 N 
ATOM     30  C   UNL     1      -8.043  -7.128  -3.828  0.00  0.00    -0.078 C 
ATOM     31  C   UNL     1      -7.836  -7.913  -5.149  0.00  0.00    -0.020 C 
ATOM     32  C   UNL     1      -6.576  -7.250  -5.750  0.00  0.00    -0.020 C 
ATOM     33  C   UNL     1      -5.858  -6.593  -4.557  0.00  0.00    -0.078 C 
ATOM     34  H   UNL     1      -6.301  -7.727  -2.897  0.00  0.00    -0.081 HD
ENDBRANCH  21  29
ENDBRANCH  20  21
ENDBRANCH   3  20
TORSDOF 9
