REMARK  Name = ZINC00666399
REMARK  9 active torsions:
REMARK  status: ('A' for Active; 'I' for Inactive)
REMARK    1  A    between atoms: C_1  and  C_2
REMARK    2  A    between atoms: C_3  and  C_20
REMARK    3  A    between atoms: C_4  and  C_10
REMARK    4  A    between atoms: C_15  and  O_16
REMARK    5  A    between atoms: O_16  and  C_17
REMARK    6  A    between atoms: C_17  and  C_18
REMARK    7  A    between atoms: C_17  and  C_19
REMARK    8  A    between atoms: C_20  and  O_22
REMARK    9  A    between atoms: O_22  and  C_23
REMARK                            x       y       z     vdW  Elec       q    Type
REMARK                         _______ _______ _______ _____ _____    ______ ____
ROOT
ATOM      1  C   UNL     1      -4.239   3.881   4.012  0.00  0.00    +0.061 C 
ATOM      2  C   UNL     1      -4.029   3.821   2.521  0.00  0.00    +0.021 C 
ATOM      3  C   UNL     1      -2.969   4.455   1.974  0.00  0.00    +0.078 C 
ATOM      4  C   UNL     1      -2.795   4.369   0.471  0.00  0.00    +0.147 C 
ATOM      5  N   UNL     1      -3.803   3.597  -0.274  0.00  0.00    -0.288 N 
ATOM      6  C   UNL     1      -4.808   3.021   0.414  0.00  0.00    +0.304 C 
ATOM      7  O   UNL     1      -5.646   2.382  -0.192  0.00  0.00    -0.252 OA
ATOM      8  N   UNL     1      -4.913   3.128   1.745  0.00  0.00    -0.273 N 
ATOM      9  H   UNL     1      -3.747   3.506  -1.238  0.00  0.00    +0.151 HD
ATOM     10  H   UNL     1      -5.659   2.689   2.182  0.00  0.00    +0.156 HD
ENDROOT
BRANCH   4  11
ATOM     11  C   UNL     1      -1.445   3.760   0.193  0.00  0.00    +0.019 A 
ATOM     12  C   UNL     1      -0.418   4.546  -0.295  0.00  0.00    +0.009 A 
ATOM     13  C   UNL     1       0.819   3.986  -0.555  0.00  0.00    +0.001 A 
ATOM     14  C   UNL     1       1.035   2.641  -0.318  0.00  0.00    +0.004 A 
ATOM     15  C   UNL     1       0.014   1.852   0.175  0.00  0.00    +0.046 A 
ATOM     16  C   UNL     1      -1.230   2.410   0.432  0.00  0.00    +0.126 A 
BRANCH  16  17
ATOM     17  O   UNL     1      -2.236   1.637   0.917  0.00  0.00    -0.489 OA
BRANCH  17  18
ATOM     18  C   UNL     1      -1.938   0.260   1.158  0.00  0.00    +0.167 C 
ATOM     19  C   UNL     1      -2.839  -0.270   2.275  0.00  0.00    +0.051 C 
ATOM     20  C   UNL     1      -2.182  -0.546  -0.120  0.00  0.00    +0.051 C 
ENDBRANCH  17  18
ENDBRANCH  16  17
ENDBRANCH   4  11
BRANCH   3  21
ATOM     21  C   UNL     1      -2.051   5.172   2.777  0.00  0.00    +0.339 C 
ATOM     22  O   UNL     1      -2.273   5.327   3.963  0.00  0.00    -0.245 OA
BRANCH  21  23
ATOM     23  O   UNL     1      -0.931   5.685   2.227  0.00  0.00    -0.458 OA
BRANCH  23  24
ATOM     24  C   UNL     1      -0.002   6.313   3.113  0.00  0.00    +0.177 C 
ATOM     25  C   UNL     1      -0.392   7.781   3.303  0.00  0.00    +0.044 C 
ATOM     26  C   UNL     1       0.602   8.454   4.252  0.00  0.00    +0.004 C 
ATOM     27  C   UNL     1       2.009   8.373   3.657  0.00  0.00    +0.000 C 
ATOM     28  C   UNL     1       2.399   6.905   3.466  0.00  0.00    +0.004 C 
ATOM     29  C   UNL     1       1.405   6.233   2.518  0.00  0.00    +0.044 C 
ENDBRANCH  23  24
ENDBRANCH  21  23
ENDBRANCH   3  21
TORSDOF 6
