REMARK  Name = ZINC13942122
REMARK  11 active torsions:
REMARK  status: ('A' for Active; 'I' for Inactive)
REMARK    1  A    between atoms: C_1  and  C_2
REMARK    2  A    between atoms: C_15  and  C_17
REMARK    3  A    between atoms: C_20  and  O_25
REMARK    4  A    between atoms: C_21  and  O_23
REMARK    5  A    between atoms: O_23  and  C_24
REMARK    6  A    between atoms: O_25  and  C_26
REMARK    7  A    between atoms: C_26  and  C_27
REMARK    8  A    between atoms: C_27  and  O_28
REMARK    9  A    between atoms: O_28  and  C_29
REMARK   10  A    between atoms: C_34  and  O_35
REMARK   11  A    between atoms: O_35  and  C_36
REMARK                            x       y       z     vdW  Elec       q    Type
REMARK                         _______ _______ _______ _____ _____    ______ ____
ROOT
ATOM      1  C   UNL     1      -4.136  -3.563   1.440  0.00  0.00    +0.021 A 
ATOM      2  C   UNL     1      -5.378  -3.092   1.871  0.00  0.00    +0.015 A 
ATOM      3  C   UNL     1      -6.371  -3.983   2.216  0.00  0.00    +0.050 A 
ATOM      4  C   UNL     1      -6.141  -5.349   2.136  0.00  0.00    +0.162 A 
ATOM      5  C   UNL     1      -4.904  -5.827   1.705  0.00  0.00    +0.162 A 
ATOM      6  C   UNL     1      -3.906  -4.939   1.353  0.00  0.00    +0.061 A 
ENDROOT
BRANCH   1  20
ATOM      7  C   UNL     1       3.546   2.093  -1.322  0.00  0.00    +0.008 C 
ATOM      8  C   UNL     1       2.194   1.398  -1.157  0.00  0.00    -0.009 C 
ATOM      9  C   UNL     1       1.421   2.037  -0.001  0.00  0.00    +0.008 C 
ATOM     10  C   UNL     1      -0.019   1.522   0.010  0.00  0.00    +0.037 C 
ATOM     11  C   UNL     1       0.002  -0.004   0.002  0.00  0.00    -0.023 A 
ATOM     12  C   UNL     1       1.113  -0.675  -0.386  0.00  0.00    -0.004 A 
ATOM     13  S   UNL     1       0.693  -2.393  -0.240  0.00  0.00    -0.073 S 
ATOM     14  C   UNL     1      -0.965  -2.211   0.337  0.00  0.00    +0.116 A 
ATOM     15  C   UNL     1      -1.139  -0.809   0.399  0.00  0.00    +0.075 A 
ATOM     16  C   UNL     1      -2.416  -0.325   0.843  0.00  0.00    +0.260 A 
ATOM     17  O   UNL     1      -2.663   0.865   0.929  0.00  0.00    -0.267 OA
ATOM     18  N   UNL     1      -3.329  -1.274   1.160  0.00  0.00    -0.306 N 
ATOM     19  H   UNL     1      -4.205  -0.990   1.464  0.00  0.00    +0.170 HD
ATOM     20  C   UNL     1      -3.071  -2.611   1.069  0.00  0.00    +0.142 A 
ATOM     21  N   UNL     1      -1.903  -3.089   0.664  0.00  0.00    -0.222 NA
ATOM     22  C   UNL     1       2.414  -0.088  -0.839  0.00  0.00    +0.046 C 
ENDBRANCH   1  20
BRANCH   5  23
ATOM     23  O   UNL     1      -4.683  -7.166   1.627  0.00  0.00    -0.491 OA
ATOM     24  C   UNL     1      -3.392  -7.585   1.177  0.00  0.00    +0.277 C 
ENDBRANCH   5  23
BRANCH   4  25
ATOM     25  O   UNL     1      -7.123  -6.223   2.477  0.00  0.00    -0.485 OA
BRANCH  25  26
ATOM     26  C   UNL     1      -8.366  -5.666   2.909  0.00  0.00    +0.270 C 
BRANCH  26  27
ATOM     27  C   UNL     1      -9.341  -6.795   3.248  0.00  0.00    +0.270 C 
BRANCH  27  28
ATOM     28  O   UNL     1      -8.847  -7.532   4.369  0.00  0.00    -0.485 OA
BRANCH  28  29
ATOM     29  C   UNL     1      -9.601  -8.578   4.801  0.00  0.00    +0.162 A 
ATOM     30  C   UNL     1     -10.793  -8.885   4.165  0.00  0.00    +0.049 A 
ATOM     31  C   UNL     1     -11.555  -9.952   4.603  0.00  0.00    +0.004 A 
ATOM     32  C   UNL     1     -11.136 -10.708   5.682  0.00  0.00    +0.004 A 
ATOM     33  C   UNL     1      -9.951 -10.403   6.325  0.00  0.00    +0.049 A 
ATOM     34  C   UNL     1      -9.180  -9.338   5.888  0.00  0.00    +0.161 A 
BRANCH  34  35
ATOM     35  O   UNL     1      -8.014  -9.037   6.520  0.00  0.00    -0.491 OA
ATOM     36  C   UNL     1      -7.644  -9.861   7.627  0.00  0.00    +0.277 C 
ENDBRANCH  34  35
ENDBRANCH  28  29
ENDBRANCH  27  28
ENDBRANCH  26  27
ENDBRANCH  25  26
ENDBRANCH   4  25
TORSDOF 8
