REMARK  Name = ZINC38965317
REMARK  8 active torsions:
REMARK  status: ('A' for Active; 'I' for Inactive)
REMARK    1  A    between atoms: C_1  and  C_2
REMARK    2  A    between atoms: C_2  and  O_3
REMARK    3  A    between atoms: O_3  and  C_4
REMARK    4  A    between atoms: C_4  and  C_6
REMARK    5  A    between atoms: C_10  and  N_12
REMARK    6  A    between atoms: N_12  and  C_13
REMARK    7  A    between atoms: N_16  and  S_17
REMARK    8  A    between atoms: S_17  and  C_20
REMARK                            x       y       z     vdW  Elec       q    Type
REMARK                         _______ _______ _______ _____ _____    ______ ____
ROOT
ATOM      1  C   UNL     1       3.192  -6.206   4.990  0.00  0.00    +0.237 C 
ATOM      2  C   UNL     1       2.406  -7.345   5.599  0.00  0.00    +0.192 C 
ATOM      3  N   UNL     1       1.210  -7.145   6.068  0.00  0.00    -0.110 NA
ATOM      4  N   UNL     1       2.961  -8.567   5.648  0.00  0.00    -0.226 NA
ATOM      5  C   UNL     1       4.170  -8.795   5.180  0.00  0.00    +0.089 A 
ATOM      6  C   UNL     1       4.726 -10.098   5.249  0.00  0.00    +0.030 A 
ATOM      7  C   UNL     1       5.966 -10.337   4.771  0.00  0.00    +0.002 A 
ATOM      8  C   UNL     1       6.763  -9.337   4.190  0.00  0.00    +0.002 A 
ATOM      9  C   UNL     1       6.331  -8.062   4.075  0.00  0.00    +0.027 A 
ATOM     10  C   UNL     1       4.990  -7.718   4.572  0.00  0.00    +0.063 A 
ATOM     11  N   UNL     1       4.539  -6.499   4.477  0.00  0.00    -0.359 N 
ATOM     12  H   UNL     1       5.080  -5.801   4.077  0.00  0.00    +0.162 HD
ENDROOT
BRANCH   3  13
ATOM     13  S   UNL     1       0.359  -8.401   6.732  0.00  0.00    +0.103 S 
ATOM     14  O   UNL     1       0.091  -9.313   5.676  0.00  0.00    -0.146 OA
ATOM     15  O   UNL     1       1.055  -8.784   7.911  0.00  0.00    -0.146 OA
BRANCH  13  16
ATOM     16  C   UNL     1      -1.197  -7.760   7.252  0.00  0.00    +0.141 A 
ATOM     17  C   UNL     1      -2.337  -8.194   6.664  0.00  0.00    +0.031 A 
ATOM     18  C   UNL     1      -3.586  -7.709   7.050  0.00  0.00    +0.004 A 
ATOM     19  C   UNL     1      -3.714  -6.782   8.029  0.00  0.00    +0.031 A 
ATOM     20  C   UNL     1      -2.560  -6.281   8.691  0.00  0.00    +0.102 A 
ATOM     21  C   UNL     1      -1.254  -6.792   8.291  0.00  0.00    +0.127 A 
ATOM     22  N   UNL     1      -0.247  -6.256   8.982  0.00  0.00    -0.189 NA
ATOM     23  S   UNL     1      -0.929  -5.229  10.016  0.00  0.00    +0.117 S 
ATOM     24  N   UNL     1      -2.493  -5.375   9.668  0.00  0.00    -0.191 NA
ENDBRANCH  13  16
ENDBRANCH   3  13
BRANCH   1  25
ATOM     25  N   UNL     1       2.402  -5.659   3.884  0.00  0.00    -0.318 N 
ATOM     26  H   UNL     1       2.049  -6.250   3.201  0.00  0.00    +0.148 HD
BRANCH  25  31
ATOM     27  C   UNL     1       1.026  -2.415   2.807  0.00  0.00    +0.061 A 
ATOM     28  C   UNL     1       1.680  -1.552   3.690  0.00  0.00    +0.015 A 
ATOM     29  C   UNL     1       2.562  -2.058   4.623  0.00  0.00    +0.003 A 
ATOM     30  C   UNL     1       2.801  -3.418   4.688  0.00  0.00    +0.023 A 
ATOM     31  C   UNL     1       2.156  -4.285   3.814  0.00  0.00    +0.030 A 
ATOM     32  C   UNL     1       1.263  -3.788   2.877  0.00  0.00    +0.038 A 
BRANCH  27  33
ATOM     33  C   UNL     1       0.081  -1.875   1.807  0.00  0.00    +0.339 C 
ATOM     34  O   UNL     1      -0.490  -2.628   1.044  0.00  0.00    -0.245 OA
BRANCH  33  35
ATOM     35  O   UNL     1      -0.146  -0.549   1.742  0.00  0.00    -0.461 OA
BRANCH  35  37
ATOM     36  C   UNL     1      -1.199   1.425   0.829  0.00  0.00    +0.048 C 
ATOM     37  C   UNL     1      -1.072  -0.098   0.751  0.00  0.00    +0.229 C 
ENDBRANCH  35  37
ENDBRANCH  33  35
ENDBRANCH  27  33
ENDBRANCH  25  31
ENDBRANCH   1  25
TORSDOF 7
