REMARK  Name = ZINC04676957
REMARK  7 active torsions:
REMARK  status: ('A' for Active; 'I' for Inactive)
REMARK    1  A    between atoms: C_1  and  C_2
REMARK    2  A    between atoms: C_7  and  N_12
REMARK    3  A    between atoms: C_9  and  C_11
REMARK    4  A    between atoms: C_13  and  C_15
REMARK    5  A    between atoms: N_25  and  C_26
REMARK    6  A    between atoms: C_26  and  C_28
REMARK    7  A    between atoms: C_26  and  C_29
REMARK                            x       y       z     vdW  Elec       q    Type
REMARK                         _______ _______ _______ _____ _____    ______ ____
ROOT
ATOM      1  C   UNL     1      -6.382   1.440  -0.341  0.00  0.00    +0.194 C 
ATOM      2  C   UNL     1      -6.200   0.034  -0.856  0.00  0.00    -0.006 A 
ATOM      3  C   UNL     1      -5.462  -1.042  -0.419  0.00  0.00    +0.007 A 
ATOM      4  C   UNL     1      -5.498  -2.236  -1.119  0.00  0.00    +0.000 A 
ATOM      5  C   UNL     1      -6.275  -2.351  -2.259  0.00  0.00    +0.001 A 
ATOM      6  C   UNL     1      -7.018  -1.278  -2.706  0.00  0.00    +0.013 A 
ATOM      7  C   UNL     1      -6.987  -0.071  -2.005  0.00  0.00    +0.042 A 
ATOM      8  C   UNL     1      -7.657   1.224  -2.227  0.00  0.00    +0.248 C 
ATOM      9  O   UNL     1      -8.415   1.466  -3.146  0.00  0.00    -0.270 OA
ATOM     10  N   UNL     1      -7.309   2.099  -1.268  0.00  0.00    -0.275 N 
ENDROOT
BRANCH   1  12
ATOM     11  N   UNL     1      -4.046   1.702   0.430  0.00  0.00    -0.310 N 
ATOM     12  C   UNL     1      -5.060   2.162  -0.330  0.00  0.00    +0.238 C 
ATOM     13  O   UNL     1      -4.907   3.158  -1.005  0.00  0.00    -0.273 OA
ATOM     14  H   UNL     1      -4.168   0.905   0.970  0.00  0.00    +0.149 HD
BRANCH  11  20
ATOM     15  C   UNL     1      -0.931   4.354   1.637  0.00  0.00    +0.008 C 
ATOM     16  C   UNL     1      -0.690   2.849   1.766  0.00  0.00    -0.009 C 
ATOM     17  C   UNL     1       0.165   2.366   0.593  0.00  0.00    +0.003 C 
ATOM     18  C   UNL     1      -0.563   2.655  -0.722  0.00  0.00    +0.002 C 
ATOM     19  C   UNL     1      -1.906   1.921  -0.733  0.00  0.00    +0.022 C 
ATOM     20  C   UNL     1      -2.761   2.404   0.441  0.00  0.00    +0.076 C 
ATOM     21  C   UNL     1      -2.033   2.115   1.755  0.00  0.00    +0.009 C 
ATOM     22  C   UNL     1      -2.888   2.598   2.928  0.00  0.00    +0.009 C 
ENDBRANCH  11  20
ENDBRANCH   1  12
BRANCH  10  23
ATOM     23  C   UNL     1      -7.779   3.483  -1.164  0.00  0.00    +0.105 C 
ATOM     24  C   UNL     1      -8.620   3.830  -2.394  0.00  0.00    +0.033 C 
BRANCH  23  25
ATOM     25  C   UNL     1      -8.618   3.637   0.079  0.00  0.00    -0.027 A 
ATOM     26  C   UNL     1      -9.590   2.700   0.377  0.00  0.00    +0.005 A 
ATOM     27  C   UNL     1     -10.356   2.839   1.519  0.00  0.00    +0.000 A 
ATOM     28  C   UNL     1     -10.157   3.920   2.358  0.00  0.00    +0.000 A 
ATOM     29  C   UNL     1      -9.189   4.859   2.057  0.00  0.00    +0.000 A 
ATOM     30  C   UNL     1      -8.419   4.718   0.917  0.00  0.00    +0.005 A 
ENDBRANCH  23  25
ENDBRANCH  10  23
TORSDOF 4
