REMARK  Name = ZINC65386247
REMARK  9 active torsions:
REMARK  status: ('A' for Active; 'I' for Inactive)
REMARK    1  A    between atoms: C_1  and  C_2
REMARK    2  A    between atoms: C_2  and  C_3
REMARK    3  A    between atoms: C_3  and  C_5
REMARK    4  A    between atoms: C_3  and  N_12
REMARK    5  A    between atoms: C_6  and  C_11
REMARK    6  A    between atoms: C_13  and  C_15
REMARK    7  A    between atoms: C_15  and  O_21
REMARK    8  A    between atoms: O_21  and  C_22
REMARK    9  A    between atoms: C_25  and  C_28
REMARK                            x       y       z     vdW  Elec       q    Type
REMARK                         _______ _______ _______ _____ _____    ______ ____
ROOT
ATOM      1  C   UNL     1       0.853   1.578  -3.554  0.00  0.00    +0.182 C 
ATOM      2  C   UNL     1       1.889   1.114  -4.582  0.00  0.00    +0.038 C 
ATOM      3  C   UNL     1       3.255   1.703  -4.221  0.00  0.00    -0.078 C 
ATOM      4  N   UNL     1       3.178   3.168  -4.229  0.00  0.00    +0.379 N 
ATOM      5  C   UNL     1       2.239   3.623  -3.196  0.00  0.00    -0.078 C 
ATOM      6  C   UNL     1       0.834   3.108  -3.518  0.00  0.00    +0.038 C 
ATOM      7  H   UNL     1       4.092   3.553  -4.043  0.00  0.00    -0.086 HD
ATOM      8  H   UNL     1       2.860   3.483  -5.133  0.00  0.00    -0.086 HD
ENDROOT
BRANCH   1  10
ATOM      9  N   UNL     1       0.261   0.843  -1.268  0.00  0.00    -0.304 N 
ATOM     10  C   UNL     1       1.219   1.045  -2.193  0.00  0.00    +0.257 C 
ATOM     11  O   UNL     1       2.377   0.798  -1.931  0.00  0.00    -0.271 OA
ATOM     12  H   UNL     1      -0.673   0.966  -1.502  0.00  0.00    +0.149 HD
BRANCH   9  13
ATOM     13  C   UNL     1       0.628   0.438   0.091  0.00  0.00    +0.122 C 
BRANCH  13  14
ATOM     14  C   UNL     1      -0.525  -0.295   0.726  0.00  0.00    +0.064 A 
ATOM     15  C   UNL     1      -0.297  -1.491   1.381  0.00  0.00    -0.027 A 
ATOM     16  C   UNL     1      -1.365  -2.158   1.962  0.00  0.00    +0.006 A 
ATOM     17  C   UNL     1      -2.628  -1.594   1.861  0.00  0.00    +0.020 A 
ATOM     18  C   UNL     1      -2.780  -0.395   1.190  0.00  0.00    +0.111 A 
ATOM     19  N   UNL     1      -1.740   0.214   0.655  0.00  0.00    -0.258 NA
ATOM     20  C   UNL     1       1.094  -2.063   1.463  0.00  0.00    +0.045 C 
ENDBRANCH  13  14
BRANCH  13  22
ATOM     21  C   UNL     1       2.210   2.354   0.349  0.00  0.00    +0.006 C 
ATOM     22  C   UNL     1       0.962   1.679   0.921  0.00  0.00    +0.025 C 
ENDBRANCH  13  22
ENDBRANCH   9  13
ENDBRANCH   1  10
BRANCH   1  23
ATOM     23  O   UNL     1      -0.440   1.093  -3.925  0.00  0.00    -0.475 OA
BRANCH  23  24
ATOM     24  C   UNL     1      -0.601  -0.256  -3.978  0.00  0.00    +0.140 A 
ATOM     25  C   UNL     1      -1.790  -0.807  -4.444  0.00  0.00    +0.049 A 
ATOM     26  C   UNL     1      -1.907  -2.187  -4.480  0.00  0.00    +0.026 A 
ATOM     27  C   UNL     1      -0.847  -2.965  -4.054  0.00  0.00    +0.038 A 
ATOM     28  N   UNL     1       0.267  -2.411  -3.617  0.00  0.00    -0.257 NA
ATOM     29  C   UNL     1       0.421  -1.103  -3.573  0.00  0.00    +0.156 A 
ATOM     30  C   UNL     1      -0.967  -4.467  -4.089  0.00  0.00    +0.065 C 
ENDBRANCH  23  24
ENDBRANCH   1  23
TORSDOF 6
