REMARK  Name = ZINC15567025
REMARK  5 active torsions:
REMARK  status: ('A' for Active; 'I' for Inactive)
REMARK    1  A    between atoms: C_3  and  S_10
REMARK    2  A    between atoms: C_6  and  N_7
REMARK    3  A    between atoms: S_10  and  C_11
REMARK    4  A    between atoms: C_11  and  C_12
REMARK    5  A    between atoms: C_18  and  C_20
REMARK                            x       y       z     vdW  Elec       q    Type
REMARK                         _______ _______ _______ _____ _____    ______ ____
ROOT
ATOM      1  C   UNL     1       2.124  -0.122  -2.207  0.00  0.00    +0.226 C 
ATOM      2  O   UNL     1       1.950   0.933  -2.777  0.00  0.00    -0.275 OA
ATOM      3  N   UNL     1       2.387  -0.139  -0.885  0.00  0.00    -0.294 N 
ATOM      4  C   UNL     1       2.620  -1.345  -0.070  0.00  0.00    +0.108 C 
ATOM      5  C   UNL     1       3.456  -0.852   1.138  0.00  0.00    +0.021 C 
ATOM      6  C   UNL     1       2.829   0.542   1.403  0.00  0.00    +0.029 C 
ATOM      7  C   UNL     1       2.490   1.044  -0.017  0.00  0.00    +0.106 C 
ENDROOT
BRANCH   7   8
ATOM      8  C   UNL     1       1.176   1.782   0.000  0.00  0.00    -0.023 A 
ATOM      9  C   UNL     1      -0.013   1.076   0.008  0.00  0.00    +0.009 A 
ATOM     10  C   UNL     1      -1.219   1.749   0.017  0.00  0.00    +0.050 A 
ATOM     11  C   UNL     1      -1.241   3.136   0.030  0.00  0.00    +0.162 A 
ATOM     12  C   UNL     1      -0.046   3.846   0.024  0.00  0.00    +0.162 A 
ATOM     13  C   UNL     1       1.161   3.164   0.008  0.00  0.00    +0.055 A 
ATOM     14  O   UNL     1      -0.045   5.207   0.039  0.00  0.00    -0.485 OA
ATOM     15  C   UNL     1      -1.269   5.856  -0.321  0.00  0.00    +0.270 C 
ATOM     16  C   UNL     1      -2.418   5.164   0.425  0.00  0.00    +0.270 C 
ATOM     17  O   UNL     1      -2.437   3.785   0.038  0.00  0.00    -0.485 OA
ENDBRANCH   7   8
BRANCH   1  18
ATOM     18  C   UNL     1       2.048  -1.416  -2.975  0.00  0.00    +0.170 C 
BRANCH  18  19
ATOM     19  S   UNL     1       1.683  -1.064  -4.717  0.00  0.00    -0.116 S 
BRANCH  19  22
ATOM     20  C   UNL     1       1.321  -4.022  -7.418  0.00  0.00    +0.034 A 
ATOM     21  C   UNL     1       1.364  -2.773  -6.831  0.00  0.00    +0.017 A 
ATOM     22  C   UNL     1       1.627  -2.656  -5.471  0.00  0.00    +0.008 A 
ATOM     23  C   UNL     1       1.850  -3.796  -4.709  0.00  0.00    +0.017 A 
ATOM     24  C   UNL     1       1.800  -5.042  -5.302  0.00  0.00    +0.034 A 
ATOM     25  C   UNL     1       1.538  -5.155  -6.655  0.00  0.00    +0.126 A 
BRANCH  25  26
ATOM     26  N   UNL     1       1.491  -6.492  -7.289  0.00  0.00    +0.056 N 
ATOM     27  O   UNL     1       1.261  -6.593  -8.480  0.00  0.00    -0.126 OA
ATOM     28  O   UNL     1       1.681  -7.491  -6.618  0.00  0.00    -0.126 OA
ENDBRANCH  25  26
ENDBRANCH  19  22
ENDBRANCH  18  19
ENDBRANCH   1  18
TORSDOF 5
