REMARK  Name = ZINC09667831
REMARK  7 active torsions:
REMARK  status: ('A' for Active; 'I' for Inactive)
REMARK    1  A    between atoms: C_1  and  C_2
REMARK    2  A    between atoms: C_2  and  C_4
REMARK    3  A    between atoms: C_2  and  S_19
REMARK    4  A    between atoms: N_6  and  C_7
REMARK    5  A    between atoms: C_8  and  C_16
REMARK    6  A    between atoms: S_19  and  C_20
REMARK    7  A    between atoms: C_23  and  C_26
REMARK                            x       y       z     vdW  Elec       q    Type
REMARK                         _______ _______ _______ _____ _____    ______ ____
ROOT
ATOM      1  C   UNL     1      -0.749   3.086   1.275  0.00  0.00    +0.231 C 
ATOM      2  O   UNL     1      -1.748   3.681   0.929  0.00  0.00    -0.274 OA
ATOM      3  N   UNL     1       0.342   3.773   1.668  0.00  0.00    -0.278 N 
ATOM      4  H   UNL     1       1.141   3.297   1.945  0.00  0.00    +0.155 HD
ENDROOT
BRANCH   3   5
ATOM      5  C   UNL     1       0.323   5.159   1.675  0.00  0.00    +0.084 A 
ATOM      6  C   UNL     1       1.335   6.033   2.047  0.00  0.00    +0.068 A 
ATOM      7  C   UNL     1       1.058   7.457   1.960  0.00  0.00    -0.023 A 
ATOM      8  C   UNL     1      -0.180   7.777   1.526  0.00  0.00    -0.004 A 
ATOM      9  S   UNL     1      -0.972   6.221   1.230  0.00  0.00    -0.077 S 
ATOM     10  C   UNL     1      -0.746   9.151   1.342  0.00  0.00    +0.043 C 
ATOM     11  C   UNL     1       0.161  10.150   2.075  0.00  0.00    +0.005 C 
ATOM     12  C   UNL     1       1.617   9.861   1.698  0.00  0.00    +0.005 C 
ATOM     13  C   UNL     1       2.065   8.540   2.326  0.00  0.00    +0.037 C 
BRANCH   6  14
ATOM     14  C   UNL     1       2.636   5.538   2.509  0.00  0.00    +0.244 C 
ATOM     15  O   UNL     1       3.531   5.344   1.708  0.00  0.00    -0.270 OA
ATOM     16  N   UNL     1       2.839   5.298   3.819  0.00  0.00    -0.325 N 
ATOM     17  H   UNL     1       2.125   5.453   4.457  0.00  0.00    +0.145 HD
ATOM     18  H   UNL     1       3.700   4.971   4.124  0.00  0.00    +0.145 HD
ENDBRANCH   6  14
ENDBRANCH   3   5
BRANCH   1  20
ATOM     19  C   UNL     1      -0.013   1.086   0.008  0.00  0.00    +0.029 C 
ATOM     20  C   UNL     1      -0.729   1.579   1.267  0.00  0.00    +0.137 C 
BRANCH  20  21
ATOM     21  S   UNL     1      -2.427   0.953   1.280  0.00  0.00    -0.072 S 
BRANCH  21  22
ATOM     22  C   UNL     1      -2.114  -0.776   1.419  0.00  0.00    +0.210 A 
ATOM     23  N   UNL     1      -3.135  -1.624   1.468  0.00  0.00    -0.227 NA
ATOM     24  C   UNL     1      -2.901  -2.922   1.567  0.00  0.00    +0.143 A 
ATOM     25  C   UNL     1      -1.575  -3.362   1.628  0.00  0.00    +0.111 A 
ATOM     26  N   UNL     1      -0.593  -2.467   1.580  0.00  0.00    -0.145 NA
ATOM     27  N   UNL     1      -0.862  -1.212   1.478  0.00  0.00    -0.122 NA
BRANCH  25  28
ATOM     28  C   UNL     1      -1.268  -4.809   1.745  0.00  0.00    +0.004 A 
ATOM     29  C   UNL     1      -2.303  -5.741   1.801  0.00  0.00    +0.010 A 
ATOM     30  C   UNL     1      -2.011  -7.086   1.905  0.00  0.00    +0.001 A 
ATOM     31  C   UNL     1      -0.695  -7.508   1.964  0.00  0.00    +0.000 A 
ATOM     32  C   UNL     1       0.335  -6.587   1.914  0.00  0.00    +0.001 A 
ATOM     33  C   UNL     1       0.056  -5.240   1.805  0.00  0.00    +0.010 A 
ENDBRANCH  25  28
ENDBRANCH  21  22
ENDBRANCH  20  21
ENDBRANCH   1  20
TORSDOF 6
