REMARK  Name = ZINC66177140
REMARK  9 active torsions:
REMARK  status: ('A' for Active; 'I' for Inactive)
REMARK    1  A    between atoms: C_1  and  C_2
REMARK    2  A    between atoms: N_5  and  C_11
REMARK    3  A    between atoms: C_7  and  C_10
REMARK    4  A    between atoms: C_11  and  C_12
REMARK    5  A    between atoms: C_12  and  N_13
REMARK    6  A    between atoms: N_16  and  C_17
REMARK    7  A    between atoms: N_16  and  C_18
REMARK    8  A    between atoms: N_21  and  C_24
REMARK    9  A    between atoms: C_27  and  C_30
REMARK                            x       y       z     vdW  Elec       q    Type
REMARK                         _______ _______ _______ _____ _____    ______ ____
ROOT
ATOM      1  N   UNL     1       4.906  -0.172  -3.706  0.00  0.00    -0.298 N 
ATOM      2  C   UNL     1       6.137   0.314  -3.961  0.00  0.00    +0.302 C 
ATOM      3  O   UNL     1       6.659   1.088  -3.183  0.00  0.00    -0.253 OA
ATOM      4  N   UNL     1       6.790  -0.059  -5.080  0.00  0.00    -0.286 N 
ATOM      5  C   UNL     1       6.162  -0.992  -6.019  0.00  0.00    +0.134 C 
ATOM      6  H   UNL     1       4.490  -0.789  -4.328  0.00  0.00    +0.150 HD
ENDROOT
BRANCH   4   7
ATOM      7  C   UNL     1       8.129   0.469  -5.357  0.00  0.00    +0.074 C 
ATOM      8  C   UNL     1       9.125  -0.689  -5.460  0.00  0.00    +0.004 C 
ATOM      9  C   UNL     1      10.504  -0.138  -5.828  0.00  0.00    -0.077 C 
ATOM     10  N   UNL     1      10.428   0.560  -7.118  0.00  0.00    +0.382 N 
ATOM     11  C   UNL     1       9.529   1.715  -7.006  0.00  0.00    -0.077 C 
ATOM     12  C   UNL     1       8.112   1.235  -6.684  0.00  0.00    +0.004 C 
ATOM     13  H   UNL     1      10.075  -0.072  -7.821  0.00  0.00    -0.081 HD
BRANCH  10  14
ATOM     14  C   UNL     1      11.768   1.020  -7.504  0.00  0.00    -0.069 C 
ATOM     15  C   UNL     1      12.704  -0.184  -7.629  0.00  0.00    -0.015 C 
ATOM     16  C   UNL     1      14.100   0.295  -8.031  0.00  0.00    +0.002 C 
ATOM     17  C   UNL     1      14.022   1.023  -9.375  0.00  0.00    -0.014 C 
ATOM     18  C   UNL     1      13.086   2.227  -9.250  0.00  0.00    +0.002 C 
ATOM     19  C   UNL     1      11.690   1.748  -8.848  0.00  0.00    -0.015 C 
ATOM     20  C   UNL     1      13.484   0.067 -10.442  0.00  0.00    +0.007 C 
ENDBRANCH  10  14
ENDBRANCH   4   7
BRANCH   1  21
ATOM     21  C   UNL     1       4.197   0.234  -2.490  0.00  0.00    +0.121 C 
BRANCH  21  22
ATOM     22  C   UNL     1       2.832  -0.456  -2.443  0.00  0.00    +0.103 C 
BRANCH  22  26
ATOM     23  C   UNL     1      -0.019   1.526   0.010  0.00  0.00    +0.039 C 
ATOM     24  C   UNL     1       0.002  -0.004   0.002  0.00  0.00    +0.130 C 
ATOM     25  C   UNL     1       0.720  -0.499  -1.256  0.00  0.00    +0.115 C 
ATOM     26  N   UNL     1       2.120  -0.050  -1.224  0.00  0.00    -0.296 NA
ATOM     27  C   UNL     1       2.801  -0.554  -0.023  0.00  0.00    +0.115 C 
ATOM     28  C   UNL     1       2.062  -0.059   1.223  0.00  0.00    +0.130 C 
ATOM     29  O   UNL     1       0.695  -0.479   1.159  0.00  0.00    -0.371 OA
ATOM     30  C   UNL     1       2.719  -0.646   2.474  0.00  0.00    +0.039 C 
ENDBRANCH  22  26
ENDBRANCH  21  22
ENDBRANCH   1  21
TORSDOF 5
