REMARK  Name = ZINC39934716
REMARK  9 active torsions:
REMARK  status: ('A' for Active; 'I' for Inactive)
REMARK    1  A    between atoms: C_1  and  C_2
REMARK    2  A    between atoms: C_4  and  C_26
REMARK    3  A    between atoms: N_12  and  C_13
REMARK    4  A    between atoms: C_13  and  C_14
REMARK    5  A    between atoms: N_16  and  C_17
REMARK    6  A    between atoms: C_20  and  C_23
REMARK    7  A    between atoms: C_23  and  C_25
REMARK    8  A    between atoms: C_27  and  C_28
REMARK    9  A    between atoms: C_27  and  C_30
REMARK                            x       y       z     vdW  Elec       q    Type
REMARK                         _______ _______ _______ _____ _____    ______ ____
ROOT
ATOM      1  C   UNL     1      -0.004   1.520  -0.006  0.00  0.00    +0.029 C 
ATOM      2  C   UNL     1       0.010  -0.010  -0.004  0.00  0.00    +0.082 C 
ATOM      3  C   UNL     1      -1.426  -0.557   0.038  0.00  0.00    +0.065 C 
ATOM      4  C   UNL     1      -1.492  -1.353   1.322  0.00  0.00    -0.018 A 
ATOM      5  C   UNL     1      -2.526  -2.070   1.892  0.00  0.00    +0.006 A 
ATOM      6  C   UNL     1      -2.338  -2.723   3.095  0.00  0.00    +0.000 A 
ATOM      7  C   UNL     1      -1.111  -2.657   3.729  0.00  0.00    +0.002 A 
ATOM      8  C   UNL     1      -0.076  -1.943   3.165  0.00  0.00    +0.023 A 
ATOM      9  C   UNL     1      -0.258  -1.280   1.949  0.00  0.00    +0.034 A 
ATOM     10  N   UNL     1       0.650  -0.511   1.216  0.00  0.00    -0.317 N 
ENDROOT
BRANCH   3  11
ATOM     11  C   UNL     1      -1.683  -1.450  -1.149  0.00  0.00    +0.001 C 
ATOM     12  C   UNL     1      -2.650  -1.147  -2.012  0.00  0.00    +0.068 C 
BRANCH  12  13
ATOM     13  C   UNL     1      -2.908  -2.038  -3.199  0.00  0.00    +0.216 C 
ATOM     14  N   UNL     1      -2.800  -1.266  -4.443  0.00  0.00    -0.359 N 
ATOM     15  C   UNL     1      -3.954  -1.325  -5.041  0.00  0.00    +0.060 A 
ATOM     16  C   UNL     1      -4.457  -0.760  -6.301  0.00  0.00    +0.027 A 
ATOM     17  C   UNL     1      -5.731  -0.995  -6.674  0.00  0.00    +0.002 A 
ATOM     18  C   UNL     1      -6.617  -1.767  -5.901  0.00  0.00    +0.002 A 
ATOM     19  C   UNL     1      -6.259  -2.330  -4.730  0.00  0.00    +0.027 A 
ATOM     20  C   UNL     1      -4.892  -2.142  -4.223  0.00  0.00    +0.060 A 
ATOM     21  N   UNL     1      -4.281  -2.557  -3.151  0.00  0.00    -0.359 N 
ATOM     22  H   UNL     1      -2.012  -0.797  -4.760  0.00  0.00    +0.162 HD
ATOM     23  H   UNL     1      -4.663  -3.107  -2.450  0.00  0.00    +0.162 HD
ENDBRANCH  12  13
BRANCH  12  24
ATOM     24  C   UNL     1      -3.446   0.027  -1.812  0.00  0.00    +0.098 C 
ATOM     25  N   UNL     1      -4.078   0.958  -1.653  0.00  0.00    -0.191 NA
ENDBRANCH  12  24
ENDBRANCH   3  11
BRANCH  10  26
ATOM     26  C   UNL     1       2.036  -0.244   1.607  0.00  0.00    +0.201 C 
BRANCH  26  27
ATOM     27  C   UNL     1       2.090   1.011   2.440  0.00  0.00    +0.235 C 
ATOM     28  O   UNL     1       1.071   1.622   2.683  0.00  0.00    -0.274 OA
ATOM     29  N   UNL     1       3.271   1.454   2.915  0.00  0.00    -0.284 N 
ATOM     30  H   UNL     1       4.076   0.931   2.778  0.00  0.00    +0.155 HD
BRANCH  29  31
ATOM     31  C   UNL     1       3.334   2.664   3.604  0.00  0.00    +0.033 A 
ATOM     32  C   UNL     1       4.451   3.483   3.464  0.00  0.00    +0.024 A 
ATOM     33  C   UNL     1       4.518   4.675   4.139  0.00  0.00    +0.013 A 
ATOM     34  C   UNL     1       3.461   5.066   4.971  0.00  0.00    +0.017 A 
ATOM     35  C   UNL     1       2.340   4.238   5.108  0.00  0.00    +0.013 A 
ATOM     36  C   UNL     1       2.279   3.051   4.425  0.00  0.00    +0.024 A 
BRANCH  34  37
ATOM     37  C   UNL     1       3.528   6.341   5.696  0.00  0.00    +0.160 C 
ATOM     38  O   UNL     1       4.500   7.057   5.576  0.00  0.00    -0.292 OA
ATOM     39  C   UNL     1       2.389   6.760   6.590  0.00  0.00    +0.091 C 
ENDBRANCH  34  37
ENDBRANCH  29  31
ENDBRANCH  26  27
ENDBRANCH  10  26
TORSDOF 7
