REMARK  Name = ZINC38591801
REMARK  7 active torsions:
REMARK  status: ('A' for Active; 'I' for Inactive)
REMARK    1  A    between atoms: C_1  and  C_2
REMARK    2  A    between atoms: C_7  and  C_26
REMARK    3  A    between atoms: C_9  and  N_12
REMARK    4  A    between atoms: C_13  and  C_15
REMARK    5  A    between atoms: C_15  and  N_16
REMARK    6  A    between atoms: C_26  and  O_28
REMARK    7  A    between atoms: O_28  and  C_29
REMARK                            x       y       z     vdW  Elec       q    Type
REMARK                         _______ _______ _______ _____ _____    ______ ____
ROOT
ATOM      1  C   UNL     1       0.292  -7.990   2.103  0.00  0.00    +0.044 C 
ATOM      2  C   UNL     1       0.227  -6.615   1.489  0.00  0.00    -0.050 A 
ATOM      3  C   UNL     1       0.126  -6.493   0.100  0.00  0.00    +0.005 A 
ATOM      4  C   UNL     1       0.064  -5.285  -0.509  0.00  0.00    +0.026 A 
ATOM      5  C   UNL     1       0.102  -4.098   0.269  0.00  0.00    +0.045 A 
ATOM      6  N   UNL     1       0.059  -2.827  -0.076  0.00  0.00    -0.367 N 
ATOM      7  C   UNL     1       0.134  -2.000   1.132  0.00  0.00    +0.234 C 
ATOM      8  C   UNL     1       0.231  -2.965   2.293  0.00  0.00    +0.053 C 
ATOM      9  C   UNL     1       0.209  -4.231   1.732  0.00  0.00    +0.018 A 
ATOM     10  C   UNL     1       0.264  -5.527   2.297  0.00  0.00    +0.015 A 
ATOM     11  H   UNL     1      -0.011  -2.493  -0.984  0.00  0.00    +0.161 HD
ENDROOT
BRANCH   8  12
ATOM     12  N   UNL     1       0.322  -2.654   3.616  0.00  0.00    -0.285 N 
ATOM     13  C   UNL     1       0.160  -1.379   4.021  0.00  0.00    +0.231 C 
ATOM     14  O   UNL     1      -0.169  -0.527   3.224  0.00  0.00    -0.274 OA
ATOM     15  H   UNL     1       0.503  -3.350   4.267  0.00  0.00    +0.155 HD
BRANCH  13  16
ATOM     16  C   UNL     1       0.390  -1.012   5.464  0.00  0.00    +0.181 C 
BRANCH  16  17
ATOM     17  N   UNL     1       0.151   0.426   5.648  0.00  0.00    -0.289 NA
ATOM     18  C   UNL     1       0.570   0.864   6.989  0.00  0.00    +0.090 C 
ATOM     19  C   UNL     1       0.647   2.391   7.000  0.00  0.00    +0.051 C 
ATOM     20  C   UNL     1      -0.629   2.974   6.448  0.00  0.00    -0.042 A 
ATOM     21  C   UNL     1      -0.907   4.309   6.697  0.00  0.00    +0.004 A 
ATOM     22  C   UNL     1      -2.063   4.884   6.207  0.00  0.00    +0.000 A 
ATOM     23  C   UNL     1      -2.947   4.124   5.463  0.00  0.00    +0.000 A 
ATOM     24  C   UNL     1      -2.671   2.795   5.216  0.00  0.00    +0.005 A 
ATOM     25  C   UNL     1      -1.511   2.215   5.710  0.00  0.00    -0.030 A 
ATOM     26  C   UNL     1      -1.260   0.758   5.423  0.00  0.00    +0.120 C 
ENDBRANCH  16  17
ENDBRANCH  13  16
ENDBRANCH   8  12
BRANCH   7  27
ATOM     27  C   UNL     1       1.355  -1.119   1.084  0.00  0.00    +0.335 C 
ATOM     28  O   UNL     1       2.310  -1.447   0.419  0.00  0.00    -0.248 OA
BRANCH  27  29
ATOM     29  O   UNL     1       1.383   0.028   1.779  0.00  0.00    -0.466 OA
ATOM     30  C   UNL     1       2.574   0.814   1.687  0.00  0.00    +0.280 C 
ENDBRANCH  27  29
ENDBRANCH   7  27
TORSDOF 5
