REMARK  Name = ZINC55477678
REMARK  6 active torsions:
REMARK  status: ('A' for Active; 'I' for Inactive)
REMARK    1  A    between atoms: C_7  and  C_11
REMARK    2  A    between atoms: N_13  and  C_14
REMARK    3  A    between atoms: C_14  and  C_15
REMARK    4  A    between atoms: C_15  and  C_16
REMARK    5  A    between atoms: N_18  and  C_19
REMARK    6  A    between atoms: N_26  and  C_28
REMARK                            x       y       z     vdW  Elec       q    Type
REMARK                         _______ _______ _______ _____ _____    ______ ____
ROOT
ATOM      1  C   UNL     1       0.187  -8.137  -0.039  0.00  0.00    +0.215 C 
ATOM      2  O   UNL     1      -1.014  -7.965  -0.026  0.00  0.00    -0.276 OA
ATOM      3  N   UNL     1       0.689  -9.387  -0.051  0.00  0.00    -0.312 N 
ATOM      4  H   UNL     1       1.649  -9.524  -0.061  0.00  0.00    +0.149 HD
ENDROOT
BRANCH   3   5
ATOM      5  C   UNL     1      -0.213 -10.537  -0.047  0.00  0.00    +0.076 C 
ATOM      6  C   UNL     1      -0.595 -10.909   1.388  0.00  0.00    -0.007 C 
ATOM      7  C   UNL     1      -1.634 -12.026   1.350  0.00  0.00    +0.003 C 
ATOM      8  C   UNL     1      -1.120 -13.258   0.617  0.00  0.00    +0.001 C 
ATOM      9  C   UNL     1      -0.504 -12.922  -0.733  0.00  0.00    +0.003 C 
ATOM     10  C   UNL     1       0.474 -11.756  -0.666  0.00  0.00    -0.007 C 
ATOM     11  C   UNL     1       1.717 -12.111   0.137  0.00  0.00    -0.073 C 
ATOM     12  N   UNL     1       1.435 -12.356   1.548  0.00  0.00    +0.382 N 
ATOM     13  C   UNL     1       0.638 -11.310   2.179  0.00  0.00    -0.073 C 
ATOM     14  H   UNL     1       0.995 -13.255   1.664  0.00  0.00    -0.081 HD
BRANCH  12  15
ATOM     15  C   UNL     1       2.719 -12.437   2.257  0.00  0.00    -0.069 C 
ATOM     16  C   UNL     1       3.133 -13.800   2.815  0.00  0.00    -0.017 C 
ATOM     17  C   UNL     1       2.678 -12.691   3.765  0.00  0.00    -0.017 C 
ENDBRANCH  12  15
ENDBRANCH   3   5
BRANCH   1  18
ATOM     18  C   UNL     1       1.117  -6.951  -0.043  0.00  0.00    +0.114 C 
BRANCH  18  19
ATOM     19  C   UNL     1       0.297  -5.659  -0.028  0.00  0.00    +0.113 C 
BRANCH  19  22
ATOM     20  C   UNL     1       0.699  -3.256  -0.021  0.00  0.00    +0.246 C 
ATOM     21  O   UNL     1      -0.505  -3.084  -0.007  0.00  0.00    -0.270 OA
ATOM     22  N   UNL     1       1.201  -4.507  -0.032  0.00  0.00    -0.311 N 
ATOM     23  H   UNL     1       2.161  -4.644  -0.043  0.00  0.00    +0.149 HD
BRANCH  20  30
ATOM     24  C   UNL     1      -0.017   1.373   0.010  0.00  0.00    +0.001 A 
ATOM     25  C   UNL     1       1.172   2.090   0.002  0.00  0.00    +0.002 A 
ATOM     26  C   UNL     1       2.385   1.437  -0.013  0.00  0.00    +0.026 A 
ATOM     27  C   UNL     1       2.425   0.046  -0.021  0.00  0.00    +0.047 A 
ATOM     28  C   UNL     1       1.221  -0.677  -0.013  0.00  0.00    +0.012 A 
ATOM     29  C   UNL     1       0.002  -0.004   0.002  0.00  0.00    +0.011 A 
ATOM     30  C   UNL     1       1.606  -2.100  -0.024  0.00  0.00    +0.062 A 
ATOM     31  C   UNL     1       2.969  -2.132  -0.038  0.00  0.00    +0.096 A 
ATOM     32  N   UNL     1       3.457  -0.869  -0.036  0.00  0.00    -0.360 N 
ATOM     33  H   UNL     1       4.400  -0.639  -0.044  0.00  0.00    +0.165 HD
ENDBRANCH  20  30
ENDBRANCH  19  22
ENDBRANCH  18  19
ENDBRANCH   1  18
TORSDOF 6
