REMARK  Name = ZINC35778945
REMARK  14 active torsions:
REMARK  status: ('A' for Active; 'I' for Inactive)
REMARK    1  A    between atoms: C_1  and  C_2
REMARK    2  A    between atoms: C_6  and  O_8
REMARK    3  A    between atoms: O_8  and  C_9
REMARK    4  A    between atoms: C_9  and  C_10
REMARK    5  A    between atoms: C_20  and  C_22
REMARK    6  A    between atoms: C_22  and  N_23
REMARK    7  A    between atoms: N_23  and  C_24
REMARK    8  A    between atoms: N_23  and  C_37
REMARK    9  A    between atoms: C_24  and  C_25
REMARK   10  A    between atoms: C_25  and  C_27
REMARK   11  A    between atoms: C_25  and  O_36
REMARK   12  A    between atoms: C_27  and  O_28
REMARK   13  A    between atoms: O_28  and  C_29
REMARK   14  A    between atoms: C_34  and  C_35
REMARK                            x       y       z     vdW  Elec       q    Type
REMARK                         _______ _______ _______ _____ _____    ______ ____
ROOT
ATOM      1  C   UNL     1       0.084  -4.898   3.608  0.00  0.00    +0.144 C 
ATOM      2  C   UNL     1       1.222  -4.312   4.442  0.00  0.00    -0.014 A 
ATOM      3  C   UNL     1       2.554  -4.697   4.295  0.00  0.00    +0.013 A 
ATOM      4  C   UNL     1       3.511  -4.132   5.065  0.00  0.00    +0.046 A 
ATOM      5  S   UNL     1       2.557  -2.998   6.064  0.00  0.00    -0.101 S 
ATOM      6  C   UNL     1       0.961  -3.365   5.383  0.00  0.00    -0.004 A 
ATOM      7  C   UNL     1      -0.362  -2.779   5.754  0.00  0.00    +0.061 C 
ATOM      8  C   UNL     1      -1.372  -3.101   4.642  0.00  0.00    +0.113 C 
ATOM      9  N   UNL     1      -1.184  -4.503   4.237  0.00  0.00    -0.292 N 
ATOM     10  C   UNL     1      -2.158  -5.411   4.439  0.00  0.00    +0.200 C 
ATOM     11  O   UNL     1      -1.992  -6.564   4.102  0.00  0.00    -0.278 OA
ENDROOT
BRANCH   1  12
ATOM     12  C   UNL     1       0.150  -4.347   2.182  0.00  0.00    +0.256 C 
BRANCH  12  13
ATOM     13  O   UNL     1       0.163  -2.919   2.223  0.00  0.00    -0.490 OA
BRANCH  13  19
ATOM     14  C   UNL     1       0.309   1.285  -0.253  0.00  0.00    +0.044 C 
ATOM     15  C   UNL     1       0.293  -0.222  -0.215  0.00  0.00    -0.047 A 
ATOM     16  C   UNL     1       0.335  -0.943  -1.394  0.00  0.00    +0.003 A 
ATOM     17  C   UNL     1       0.319  -2.325  -1.363  0.00  0.00    +0.004 A 
ATOM     18  C   UNL     1       0.262  -2.989  -0.152  0.00  0.00    +0.045 A 
ATOM     19  C   UNL     1       0.220  -2.268   1.032  0.00  0.00    +0.121 A 
ATOM     20  C   UNL     1       0.241  -0.881   0.998  0.00  0.00    +0.049 A 
ENDBRANCH  13  19
ENDBRANCH  12  13
ENDBRANCH   1  12
BRANCH  10  21
ATOM     21  C   UNL     1      -3.455  -4.994   5.084  0.00  0.00    +0.019 C 
BRANCH  21  22
ATOM     22  N   UNL     1      -4.286  -6.181   5.324  0.00  0.00    +0.389 N 
ATOM     23  H   UNL     1      -4.389  -6.699   4.464  0.00  0.00    -0.081 HD
BRANCH  22  24
ATOM     24  C   UNL     1      -5.610  -5.763   5.804  0.00  0.00    -0.068 C 
ATOM     25  C   UNL     1      -6.831  -6.232   5.010  0.00  0.00    -0.017 C 
ATOM     26  C   UNL     1      -6.392  -4.768   4.945  0.00  0.00    -0.017 C 
ENDBRANCH  22  24
BRANCH  22  27
ATOM     27  C   UNL     1      -3.645  -7.032   6.335  0.00  0.00    -0.043 C 
BRANCH  27  28
ATOM     28  C   UNL     1      -4.445  -8.326   6.495  0.00  0.00    +0.135 C 
BRANCH  28  29
ATOM     29  O   UNL     1      -5.777  -8.015   6.909  0.00  0.00    -0.390 OA
ATOM     30  H   UNL     1      -5.826  -7.543   7.752  0.00  0.00    +0.210 HD
ENDBRANCH  28  29
BRANCH  28  31
ATOM     31  C   UNL     1      -3.777  -9.213   7.548  0.00  0.00    +0.258 C 
BRANCH  31  32
ATOM     32  O   UNL     1      -4.456 -10.469   7.613  0.00  0.00    -0.489 OA
BRANCH  32  33
ATOM     33  C   UNL     1      -3.985 -11.379   8.506  0.00  0.00    +0.124 A 
ATOM     34  C   UNL     1      -2.895 -11.067   9.306  0.00  0.00    +0.046 A 
ATOM     35  C   UNL     1      -2.419 -11.994  10.213  0.00  0.00    +0.004 A 
ATOM     36  C   UNL     1      -3.027 -13.231  10.324  0.00  0.00    +0.000 A 
ATOM     37  C   UNL     1      -4.112 -13.544   9.527  0.00  0.00    +0.007 A 
ATOM     38  C   UNL     1      -4.596 -12.618   8.623  0.00  0.00    -0.009 A 
ATOM     39  C   UNL     1      -5.784 -12.958   7.759  0.00  0.00    +0.047 C 
ENDBRANCH  32  33
ENDBRANCH  31  32
ENDBRANCH  28  31
ENDBRANCH  27  28
ENDBRANCH  22  27
ENDBRANCH  21  22
ENDBRANCH  10  21
TORSDOF 12
