REMARK  Name = ZINC39863891
REMARK  4 active torsions:
REMARK  status: ('A' for Active; 'I' for Inactive)
REMARK    1  A    between atoms: C_1  and  C_2
REMARK    2  A    between atoms: C_2  and  N_3
REMARK    3  A    between atoms: C_7  and  C_8
REMARK    4  A    between atoms: N_16  and  C_17
REMARK                            x       y       z     vdW  Elec       q    Type
REMARK                         _______ _______ _______ _____ _____    ______ ____
ROOT
ATOM      1  N   UNL     1       0.619  -1.029  -1.087  0.00  0.00    -0.246 N 
ATOM      2  C   UNL     1      -0.019  -0.950  -2.243  0.00  0.00    +0.259 C 
ATOM      3  O   UNL     1      -1.147  -0.503  -2.318  0.00  0.00    -0.269 OA
ATOM      4  C   UNL     1       0.706  -1.430  -3.440  0.00  0.00    +0.078 C 
ATOM      5  C   UNL     1       0.302  -1.466  -4.733  0.00  0.00    +0.028 C 
ATOM      6  S   UNL     1       2.258  -1.950  -2.722  0.00  0.00    -0.049 S 
ATOM      7  C   UNL     1       1.900  -1.534  -1.023  0.00  0.00    +0.168 C 
ATOM      8  N   UNL     1       2.669  -1.677   0.032  0.00  0.00    -0.222 NA
ENDROOT
BRANCH   8   9
ATOM      9  C   UNL     1       3.925  -2.204  -0.104  0.00  0.00    +0.103 A 
ATOM     10  C   UNL     1       4.732  -1.850  -1.193  0.00  0.00    +0.032 A 
ATOM     11  C   UNL     1       5.994  -2.411  -1.283  0.00  0.00    +0.022 A 
ATOM     12  C   UNL     1       6.415  -3.293  -0.305  0.00  0.00    +0.112 A 
ATOM     13  N   UNL     1       5.635  -3.609   0.711  0.00  0.00    -0.241 NA
ATOM     14  C   UNL     1       4.428  -3.099   0.846  0.00  0.00    +0.154 A 
ATOM     15 CL   UNL     1       3.450  -3.546   2.209  0.00  0.00    -0.060 Cl
ENDBRANCH   8   9
BRANCH   5  16
ATOM     16  C   UNL     1       1.258  -1.822  -5.793  0.00  0.00    -0.021 A 
ATOM     17  C   UNL     1       2.625  -1.967  -5.513  0.00  0.00    +0.027 A 
ATOM     18  C   UNL     1       3.485  -2.301  -6.538  0.00  0.00    +0.111 A 
ATOM     19  N   UNL     1       3.038  -2.485  -7.765  0.00  0.00    -0.263 NA
ATOM     20  C   UNL     1       1.761  -2.359  -8.074  0.00  0.00    +0.111 A 
ATOM     21  C   UNL     1       0.828  -2.032  -7.112  0.00  0.00    +0.027 A 
ENDBRANCH   5  16
BRANCH   1  23
ATOM     22  C   UNL     1       0.261   0.913   0.355  0.00  0.00    +0.025 C 
ATOM     23  C   UNL     1      -0.041  -0.571   0.138  0.00  0.00    +0.112 C 
ENDBRANCH   1  23
TORSDOF 3
