REMARK  Name = ZINC63086945
REMARK  7 active torsions:
REMARK  status: ('A' for Active; 'I' for Inactive)
REMARK    1  A    between atoms: C_1  and  C_2
REMARK    2  A    between atoms: C_2  and  C_4
REMARK    3  A    between atoms: C_2  and  N_7
REMARK    4  A    between atoms: C_4  and  C_5
REMARK    5  A    between atoms: N_7  and  C_8
REMARK    6  A    between atoms: N_7  and  C_9
REMARK    7  A    between atoms: C_18  and  N_19
REMARK                            x       y       z     vdW  Elec       q    Type
REMARK                         _______ _______ _______ _____ _____    ______ ____
ROOT
ATOM      1  C   UNL     1       0.056  -1.470   2.108  0.00  0.00    +0.061 A 
ATOM      2  C   UNL     1      -0.883  -1.056   3.080  0.00  0.00    +0.022 A 
ATOM      3  C   UNL     1      -1.522   0.190   2.992  0.00  0.00    +0.027 A 
ATOM      4  C   UNL     1      -2.422   0.554   3.948  0.00  0.00    +0.019 A 
ATOM      5  C   UNL     1      -2.716  -0.297   5.013  0.00  0.00    +0.017 A 
ATOM      6  C   UNL     1      -2.114  -1.512   5.127  0.00  0.00    +0.027 A 
ATOM      7  C   UNL     1      -1.180  -1.922   4.160  0.00  0.00    +0.048 A 
ATOM      8  N   UNL     1      -0.576  -3.112   4.250  0.00  0.00    -0.359 N 
ATOM      9  C   UNL     1       0.299  -3.512   3.356  0.00  0.00    +0.107 A 
ATOM     10  C   UNL     1       0.642  -2.721   2.261  0.00  0.00    +0.063 A 
ATOM     11 BR   UNL     1      -3.282   2.234   3.829  0.00  0.00    -0.050 Br
ATOM     12  H   UNL     1      -0.789  -3.695   4.995  0.00  0.00    +0.165 HD
ENDROOT
BRANCH  10  13
ATOM     13  N   UNL     1       1.576  -3.183   1.322  0.00  0.00    -0.355 N 
ATOM     14  H   UNL     1       1.907  -2.586   0.633  0.00  0.00    +0.142 HD
ATOM     15  H   UNL     1       1.891  -4.100   1.362  0.00  0.00    +0.142 HD
ENDBRANCH  10  13
BRANCH   1  16
ATOM     16  N   UNL     1       0.380  -0.652   1.029  0.00  0.00    -0.327 N 
ATOM     17  C   UNL     1       1.596   0.164   1.068  0.00  0.00    +0.129 C 
BRANCH  16  19
ATOM     18  C   UNL     1      -0.891   0.841  -0.432  0.00  0.00    +0.029 C 
ATOM     19  C   UNL     1      -0.495  -0.609  -0.145  0.00  0.00    +0.084 C 
BRANCH  19  20
ATOM     20  C   UNL     1       0.246  -1.184  -1.354  0.00  0.00    +0.140 C 
BRANCH  20  21
ATOM     21  C   UNL     1       0.481  -2.622  -1.147  0.00  0.00    +0.064 C 
ATOM     22  N   UNL     1       0.663  -3.732  -0.987  0.00  0.00    -0.197 NA
ENDBRANCH  20  21
ENDBRANCH  19  20
ENDBRANCH  16  19
ENDBRANCH   1  16
TORSDOF 5
