REMARK  Name = ZINC08423799
REMARK  4 active torsions:
REMARK  status: ('A' for Active; 'I' for Inactive)
REMARK    1  A    between atoms: C_1  and  C_2
REMARK    2  A    between atoms: C_6  and  C_7
REMARK    3  A    between atoms: N_12  and  S_15
REMARK    4  A    between atoms: S_15  and  C_18
REMARK                            x       y       z     vdW  Elec       q    Type
REMARK                         _______ _______ _______ _____ _____    ______ ____
ROOT
ATOM      1  C   UNL     1       4.431  -0.590  -5.616  0.00  0.00    +0.254 C 
ATOM      2  O   UNL     1       4.102   0.425  -6.201  0.00  0.00    -0.269 OA
ATOM      3  N   UNL     1       4.883  -0.520  -4.348  0.00  0.00    -0.295 N 
ATOM      4  C   UNL     1       5.071   0.782  -3.691  0.00  0.00    +0.125 C 
ATOM      5  C   UNL     1       6.517   0.873  -3.189  0.00  0.00    +0.128 C 
ATOM      6  N   UNL     1       6.831  -0.351  -2.438  0.00  0.00    -0.173 NA
ATOM      7  C   UNL     1       6.649  -1.652  -3.097  0.00  0.00    +0.128 C 
ATOM      8  C   UNL     1       5.198  -1.744  -3.598  0.00  0.00    +0.125 C 
ENDROOT
BRANCH   1  14
ATOM      9  C   UNL     1       5.378  -1.238  -8.496  0.00  0.00    +0.045 C 
ATOM     10  C   UNL     1       4.739  -2.240  -7.569  0.00  0.00    -0.031 A 
ATOM     11  C   UNL     1       4.534  -3.542  -7.953  0.00  0.00    +0.011 A 
ATOM     12  C   UNL     1       3.948  -4.405  -7.083  0.00  0.00    +0.046 A 
ATOM     13  S   UNL     1       3.666  -3.425  -5.681  0.00  0.00    -0.092 S 
ATOM     14  C   UNL     1       4.337  -1.888  -6.290  0.00  0.00    +0.077 A 
ENDBRANCH   1  14
BRANCH   6  15
ATOM     15  S   UNL     1       7.388  -0.265  -0.881  0.00  0.00    +0.067 S 
ATOM     16  O   UNL     1       7.980   1.018  -0.731  0.00  0.00    -0.152 OA
ATOM     17  O   UNL     1       8.105  -1.468  -0.639  0.00  0.00    -0.152 OA
BRANCH  15  18
ATOM     18  C   UNL     1       5.980  -0.296   0.178  0.00  0.00    +0.144 A 
ATOM     19  C   UNL     1       5.351  -1.363   0.729  0.00  0.00    +0.038 A 
ATOM     20  C   UNL     1       4.250  -1.147   1.538  0.00  0.00    +0.030 A 
ATOM     21  C   UNL     1       3.833   0.125   1.755  0.00  0.00    +0.080 A 
ATOM     22  S   UNL     1       5.011   1.068   0.801  0.00  0.00    -0.057 S 
ATOM     23 CL   UNL     1       2.495   0.690   2.707  0.00  0.00    -0.076 Cl
ENDBRANCH  15  18
ENDBRANCH   6  15
TORSDOF 3
