REMARK  Name = ZINC02049841
REMARK  6 active torsions:
REMARK  status: ('A' for Active; 'I' for Inactive)
REMARK    1  A    between atoms: C_4  and  N_7
REMARK    2  A    between atoms: C_15  and  C_18
REMARK    3  A    between atoms: C_18  and  C_19
REMARK    4  A    between atoms: C_19  and  C_20
REMARK    5  A    between atoms: C_20  and  C_21
REMARK    6  A    between atoms: C_21  and  C_36
REMARK                            x       y       z     vdW  Elec       q    Type
REMARK                         _______ _______ _______ _____ _____    ______ ____
ROOT
ATOM      1  C   UNL     1      -0.645   9.490   2.997  0.00  0.00    +0.003 C 
ENDROOT
BRANCH   1  10
ATOM      2  N   UNL     1      -1.264  11.470   8.354  0.00  0.00    -0.300 N 
ATOM      3  C   UNL     1      -2.377  12.425   8.557  0.00  0.00    +0.214 C 
ATOM      4  N   UNL     1      -3.444  12.012   7.636  0.00  0.00    -0.298 N 
ATOM      5  C   UNL     1      -2.933  11.199   6.688  0.00  0.00    +0.238 C 
ATOM      6  O   UNL     1      -3.552  10.697   5.774  0.00  0.00    -0.273 OA
ATOM      7  C   UNL     1      -1.459  11.020   6.959  0.00  0.00    +0.112 C 
ATOM      8  C   UNL     1      -0.634  11.886   6.011  0.00  0.00    +0.036 C 
ATOM      9  C   UNL     1      -0.854  11.419   4.570  0.00  0.00    +0.006 C 
ATOM     10  C   UNL     1      -0.436   9.954   4.440  0.00  0.00    -0.011 C 
ATOM     11  C   UNL     1      -1.285   9.095   5.380  0.00  0.00    +0.006 C 
ATOM     12  C   UNL     1      -1.067   9.552   6.824  0.00  0.00    +0.036 C 
ATOM     13  H   UNL     1      -4.373  12.283   7.699  0.00  0.00    +0.150 HD
BRANCH   2  17
ATOM     14  C   UNL     1       2.421  13.353   8.814  0.00  0.00    +0.000 A 
ATOM     15  C   UNL     1       1.257  14.028   9.132  0.00  0.00    +0.002 A 
ATOM     16  C   UNL     1       0.033  13.407   8.980  0.00  0.00    +0.023 A 
ATOM     17  C   UNL     1      -0.028  12.102   8.508  0.00  0.00    +0.032 A 
ATOM     18  C   UNL     1       1.144  11.425   8.195  0.00  0.00    +0.023 A 
ATOM     19  C   UNL     1       2.365  12.054   8.344  0.00  0.00    +0.002 A 
ENDBRANCH   2  17
ENDBRANCH   1  10
BRANCH   1  20
ATOM     20  C   UNL     1      -0.111   8.065   2.837  0.00  0.00    +0.002 C 
BRANCH  20  21
ATOM     21  C   UNL     1      -0.320   7.601   1.394  0.00  0.00    +0.027 C 
BRANCH  21  22
ATOM     22  C   UNL     1       0.099   6.135   1.263  0.00  0.00    +0.087 C 
ATOM     23  C   UNL     1       1.572   6.052   1.503  0.00  0.00    +0.062 C 
ATOM     24  C   UNL     1       2.160   4.747   1.074  0.00  0.00    -0.032 A 
ATOM     25  C   UNL     1       2.850   4.673  -0.130  0.00  0.00    +0.005 A 
ATOM     26  C   UNL     1       3.348   3.456  -0.558  0.00  0.00    +0.000 A 
ATOM     27  C   UNL     1       3.153   2.313   0.196  0.00  0.00    +0.001 A 
ATOM     28  C   UNL     1       2.478   2.390   1.401  0.00  0.00    +0.015 A 
ATOM     29  C   UNL     1       2.000   3.624   1.831  0.00  0.00    +0.016 A 
ATOM     30  S   UNL     1       1.201   3.773   3.389  0.00  0.00    -0.089 S 
ATOM     31  C   UNL     1      -0.433   4.322   3.052  0.00  0.00    +0.017 A 
ATOM     32  C   UNL     1      -0.777   5.319   2.173  0.00  0.00    -0.013 A 
ATOM     33  C   UNL     1      -2.132   5.668   2.063  0.00  0.00    +0.006 A 
ATOM     34  C   UNL     1      -3.112   5.036   2.788  0.00  0.00    +0.000 A 
ATOM     35  C   UNL     1      -2.765   4.016   3.656  0.00  0.00    +0.001 A 
ATOM     36  C   UNL     1      -1.443   3.670   3.781  0.00  0.00    +0.015 A 
BRANCH  22  37
ATOM     37  C   UNL     1      -0.163   5.712  -0.122  0.00  0.00    +0.074 C 
ATOM     38  N   UNL     1      -0.365   5.385  -1.191  0.00  0.00    -0.196 NA
ENDBRANCH  22  37
ENDBRANCH  21  22
ENDBRANCH  20  21
ENDBRANCH   1  20
TORSDOF 6
