REMARK  Name = ZINC45680184
REMARK  9 active torsions:
REMARK  status: ('A' for Active; 'I' for Inactive)
REMARK    1  A    between atoms: C_6  and  C_30
REMARK    2  A    between atoms: C_7  and  N_9
REMARK    3  A    between atoms: C_10  and  C_12
REMARK    4  A    between atoms: C_12  and  O_13
REMARK    5  A    between atoms: O_13  and  C_14
REMARK    6  A    between atoms: C_14  and  C_16
REMARK    7  A    between atoms: C_22  and  O_24
REMARK    8  A    between atoms: O_24  and  C_25
REMARK    9  A    between atoms: C_25  and  C_26
REMARK                            x       y       z     vdW  Elec       q    Type
REMARK                         _______ _______ _______ _____ _____    ______ ____
ROOT
ATOM      1  N   UNL     1       1.957  -3.299   3.385  0.00  0.00    -0.277 N 
ATOM      2  C   UNL     1       2.878  -3.388   4.364  0.00  0.00    +0.255 C 
ATOM      3  O   UNL     1       3.555  -2.423   4.650  0.00  0.00    -0.272 OA
ATOM      4  H   UNL     1       1.415  -4.071   3.156  0.00  0.00    +0.155 HD
ENDROOT
BRANCH   1  11
ATOM      5  C   UNL     1      -0.019   1.526   0.010  0.00  0.00    +0.005 C 
ATOM      6  C   UNL     1       1.414   2.067  -0.000  0.00  0.00    +0.005 C 
ATOM      7  C   UNL     1       2.067   1.772   1.358  0.00  0.00    +0.043 C 
ATOM      8  C   UNL     1       1.810   0.337   1.702  0.00  0.00    -0.004 A 
ATOM      9  C   UNL     1       0.907  -0.486   1.127  0.00  0.00    -0.023 A 
ATOM     10  C   UNL     1       0.892  -1.829   1.677  0.00  0.00    +0.068 A 
ATOM     11  C   UNL     1       1.783  -2.104   2.703  0.00  0.00    +0.084 A 
ATOM     12  S   UNL     1       2.603  -0.656   2.932  0.00  0.00    -0.077 S 
ATOM     13  C   UNL     1       0.002  -0.004   0.002  0.00  0.00    +0.037 C 
BRANCH  10  14
ATOM     14  C   UNL     1      -0.027  -2.853   1.169  0.00  0.00    +0.244 C 
ATOM     15  O   UNL     1       0.315  -3.576   0.252  0.00  0.00    -0.270 OA
ATOM     16  N   UNL     1      -1.249  -2.994   1.719  0.00  0.00    -0.325 N 
ATOM     17  H   UNL     1      -1.521  -2.418   2.451  0.00  0.00    +0.145 HD
ATOM     18  H   UNL     1      -1.857  -3.671   1.383  0.00  0.00    +0.145 HD
ENDBRANCH  10  14
ENDBRANCH   1  11
BRANCH   2  19
ATOM     19  C   UNL     1       3.067  -4.687   5.104  0.00  0.00    +0.328 C 
BRANCH  19  20
ATOM     20  O   UNL     1       4.093  -4.530   6.087  0.00  0.00    -0.455 OA
BRANCH  20  21
ATOM     21  C   UNL     1       4.386  -5.604   6.838  0.00  0.00    +0.311 C 
ATOM     22  O   UNL     1       3.791  -6.641   6.668  0.00  0.00    -0.251 OA
BRANCH  21  23
ATOM     23  C   UNL     1       5.457  -5.514   7.895  0.00  0.00    +0.101 C 
ATOM     24  C   UNL     1       6.790  -5.144   7.240  0.00  0.00    +0.034 C 
ATOM     25  C   UNL     1       7.868  -5.019   8.321  0.00  0.00    +0.112 C 
ATOM     26  N   UNL     1       7.903  -6.265   9.100  0.00  0.00    -0.267 N 
ATOM     27  C   UNL     1       6.655  -6.760   9.698  0.00  0.00    +0.112 C 
ATOM     28  C   UNL     1       5.591  -6.865   8.601  0.00  0.00    +0.034 C 
ATOM     29  C   UNL     1       9.057  -6.941   9.262  0.00  0.00    +0.403 C 
ATOM     30  O   UNL     1      10.082  -6.522   8.762  0.00  0.00    -0.226 OA
BRANCH  29  31
ATOM     31  O   UNL     1       9.075  -8.081   9.978  0.00  0.00    -0.441 OA
BRANCH  31  32
ATOM     32  C   UNL     1      10.334  -8.746  10.108  0.00  0.00    +0.346 C 
BRANCH  32  33
ATOM     33  C   UNL     1      10.157 -10.012  10.948  0.00  0.00    +0.424 C 
ATOM     34  F   UNL     1       9.242 -10.865  10.320  0.00  0.00    -0.167 F 
ATOM     35  F   UNL     1      11.389 -10.663  11.076  0.00  0.00    -0.167 F 
ATOM     36  F   UNL     1       9.677  -9.667  12.217  0.00  0.00    -0.167 F 
ENDBRANCH  32  33
ENDBRANCH  31  32
ENDBRANCH  29  31
ENDBRANCH  21  23
ENDBRANCH  20  21
ENDBRANCH  19  20
ENDBRANCH   2  19
TORSDOF 9
