REMARK  Name = ZINC39024742
REMARK  7 active torsions:
REMARK  status: ('A' for Active; 'I' for Inactive)
REMARK    1  A    between atoms: C_1  and  C_2
REMARK    2  A    between atoms: C_4  and  C_25
REMARK    3  A    between atoms: C_11  and  C_13
REMARK    4  A    between atoms: C_13  and  N_15
REMARK    5  A    between atoms: C_19  and  C_22
REMARK    6  A    between atoms: C_22  and  C_23
REMARK    7  A    between atoms: C_22  and  C_24
REMARK                            x       y       z     vdW  Elec       q    Type
REMARK                         _______ _______ _______ _____ _____    ______ ____
ROOT
ATOM      1  C   UNL     1      -0.018   1.503   0.010  0.00  0.00    +0.044 C 
ATOM      2  C   UNL     1       0.002  -0.004   0.002  0.00  0.00    -0.049 A 
ATOM      3  C   UNL     1       0.006  -0.688  -1.206  0.00  0.00    +0.010 A 
ATOM      4  C   UNL     1       0.021  -2.065  -1.237  0.00  0.00    -0.007 A 
ATOM      5  C   UNL     1       0.034  -2.785  -0.046  0.00  0.00    +0.142 A 
ATOM      6  C   UNL     1       0.037  -2.084   1.172  0.00  0.00    +0.064 A 
ATOM      7  C   UNL     1       0.023  -0.691   1.185  0.00  0.00    +0.018 A 
ATOM      8  C   UNL     1       0.069  -2.868   2.424  0.00  0.00    +0.193 A 
ATOM      9  O   UNL     1      -0.148  -2.359   3.510  0.00  0.00    -0.287 OA
ATOM     10  C   UNL     1       0.379  -4.299   2.281  0.00  0.00    +0.103 A 
ATOM     11  C   UNL     1       0.351  -4.841   1.037  0.00  0.00    +0.196 A 
ATOM     12  O   UNL     1       0.040  -4.131  -0.056  0.00  0.00    -0.450 OA
ATOM     13  C   UNL     1       0.022  -2.791  -2.558  0.00  0.00    +0.047 C 
ENDROOT
BRANCH  11  14
ATOM     14  C   UNL     1       0.678  -6.278   0.881  0.00  0.00    +0.305 C 
ATOM     15  O   UNL     1       0.965  -6.947   1.857  0.00  0.00    -0.265 OA
BRANCH  14  16
ATOM     16  N   UNL     1       0.659  -6.842  -0.336  0.00  0.00    -0.147 NA
ATOM     17  C   UNL     1       0.951  -8.125  -0.475  0.00  0.00    +0.204 C 
ATOM     18  N   UNL     1       0.988  -8.864  -1.628  0.00  0.00    -0.129 NA
ATOM     19  N   UNL     1       1.266 -10.044  -1.683  0.00  0.00    -0.170 NA
ATOM     20  C   UNL     1       1.581 -10.689  -0.386  0.00  0.00    +0.195 C 
ATOM     21  S   UNL     1       1.372  -9.234   0.725  0.00  0.00    -0.058 S 
BRANCH  20  22
ATOM     22  C   UNL     1       3.019 -11.211  -0.354  0.00  0.00    +0.020 C 
ATOM     23  C   UNL     1       3.267 -11.943   0.966  0.00  0.00    +0.010 C 
ATOM     24  C   UNL     1       3.236 -12.176  -1.521  0.00  0.00    +0.010 C 
ENDBRANCH  20  22
ENDBRANCH  14  16
ENDBRANCH  11  14
TORSDOF 3
