REMARK  Name = ZINC65253971
REMARK  9 active torsions:
REMARK  status: ('A' for Active; 'I' for Inactive)
REMARK    1  A    between atoms: C_1  and  C_2
REMARK    2  A    between atoms: C_2  and  C_3
REMARK    3  A    between atoms: C_3  and  C_4
REMARK    4  A    between atoms: C_4  and  N_5
REMARK    5  A    between atoms: C_6  and  C_8
REMARK    6  A    between atoms: N_12  and  C_14
REMARK    7  A    between atoms: C_14  and  C_15
REMARK    8  A    between atoms: N_17  and  C_18
REMARK    9  A    between atoms: N_17  and  C_19
REMARK                            x       y       z     vdW  Elec       q    Type
REMARK                         _______ _______ _______ _____ _____    ______ ____
ROOT
ATOM      1  C   UNL     1      -4.429  -4.420   0.021  0.00  0.00    +0.058 C 
ATOM      2  C   UNL     1      -5.169  -3.918  -1.223  0.00  0.00    +0.009 C 
ATOM      3  C   UNL     1      -6.578  -4.517  -1.242  0.00  0.00    -0.018 C 
ATOM      4  C   UNL     1      -6.479  -6.043  -1.204  0.00  0.00    -0.078 C 
ATOM      5  N   UNL     1      -5.785  -6.461   0.020  0.00  0.00    +0.386 N 
ATOM      6  C   UNL     1      -4.409  -5.950   0.012  0.00  0.00    -0.065 C 
ATOM      7  H   UNL     1      -6.274  -6.096   0.824  0.00  0.00    -0.081 HD
ENDROOT
BRANCH   1   9
ATOM      8  N   UNL     1      -2.787  -2.571   0.015  0.00  0.00    -0.315 N 
ATOM      9  C   UNL     1      -3.015  -3.899   0.010  0.00  0.00    +0.214 C 
ATOM     10  O   UNL     1      -2.083  -4.674  -0.003  0.00  0.00    -0.276 OA
ATOM     11  H   UNL     1      -3.533  -1.950   0.025  0.00  0.00    +0.149 HD
BRANCH   8  12
ATOM     12  C   UNL     1      -1.413  -2.063   0.004  0.00  0.00    +0.104 C 
BRANCH  12  13
ATOM     13  C   UNL     1      -1.433  -0.534   0.013  0.00  0.00    +0.018 C 
BRANCH  13  15
ATOM     14  C   UNL     1      -0.019   1.526   0.010  0.00  0.00    +0.004 C 
ATOM     15  C   UNL     1       0.002  -0.004   0.002  0.00  0.00    -0.002 C 
ENDBRANCH  13  15
ENDBRANCH  12  13
ENDBRANCH   8  12
ENDBRANCH   1   9
BRANCH   5  16
ATOM     16  C   UNL     1      -5.761  -7.928   0.091  0.00  0.00    +0.019 C 
BRANCH  16  17
ATOM     17  C   UNL     1      -7.169  -8.448   0.232  0.00  0.00    +0.199 C 
ATOM     18  O   UNL     1      -8.100  -7.672   0.270  0.00  0.00    -0.278 OA
ATOM     19  N   UNL     1      -7.392  -9.774   0.316  0.00  0.00    -0.299 N 
ATOM     20  C   UNL     1      -6.267 -10.711   0.270  0.00  0.00    +0.132 C 
BRANCH  19  21
ATOM     21  C   UNL     1      -8.761 -10.279   0.453  0.00  0.00    +0.106 C 
ATOM     22  C   UNL     1      -9.092 -11.168  -0.744  0.00  0.00    +0.027 C 
ATOM     23  C   UNL     1     -10.435 -11.857  -0.478  0.00  0.00    +0.007 C 
ATOM     24  C   UNL     1     -10.238 -12.882   0.637  0.00  0.00    +0.035 C 
ATOM     25  C   UNL     1      -9.558 -12.250   1.824  0.00  0.00    -0.042 A 
ATOM     26  C   UNL     1      -8.877 -11.056   1.738  0.00  0.00    -0.024 A 
ATOM     27  C   UNL     1      -8.266 -10.530   2.869  0.00  0.00    +0.006 A 
ATOM     28  C   UNL     1      -8.341 -11.192   4.078  0.00  0.00    +0.000 A 
ATOM     29  C   UNL     1      -9.028 -12.388   4.165  0.00  0.00    +0.000 A 
ATOM     30  C   UNL     1      -9.633 -12.913   3.041  0.00  0.00    +0.004 A 
ENDBRANCH  19  21
ENDBRANCH  16  17
ENDBRANCH   5  16
TORSDOF 7
