REMARK  Name = ZINC39331136
REMARK  8 active torsions:
REMARK  status: ('A' for Active; 'I' for Inactive)
REMARK    1  A    between atoms: C_1  and  N_2
REMARK    2  A    between atoms: C_9  and  C_29
REMARK    3  A    between atoms: C_11  and  C_13
REMARK    4  A    between atoms: N_15  and  C_16
REMARK    5  A    between atoms: C_16  and  C_17
REMARK    6  A    between atoms: C_17  and  C_18
REMARK    7  A    between atoms: C_21  and  O_27
REMARK    8  A    between atoms: O_27  and  C_28
REMARK                            x       y       z     vdW  Elec       q    Type
REMARK                         _______ _______ _______ _____ _____    ______ ____
ROOT
ATOM      1  C   UNL     1      -0.018   1.461   0.010  0.00  0.00    +0.130 C 
ATOM      2  N   UNL     1       0.002  -0.004   0.002  0.00  0.00    -0.321 N 
ATOM      3  C   UNL     1       0.008  -0.798  -1.147  0.00  0.00    +0.034 A 
ATOM      4  C   UNL     1      -0.003  -0.412  -2.489  0.00  0.00    +0.025 A 
ATOM      5  C   UNL     1       0.005  -1.363  -3.486  0.00  0.00    +0.022 A 
ATOM      6  C   UNL     1       0.024  -2.709  -3.165  0.00  0.00    +0.041 A 
ATOM      7  C   UNL     1       0.035  -3.099  -1.837  0.00  0.00    +0.026 A 
ATOM      8  C   UNL     1       0.028  -2.148  -0.835  0.00  0.00    -0.015 A 
ATOM      9  C   UNL     1       0.036  -2.294   0.670  0.00  0.00    +0.080 C 
ATOM     10  C   UNL     1       0.025  -0.850   1.198  0.00  0.00    +0.171 C 
ATOM     11 CL   UNL     1       0.034  -3.905  -4.423  0.00  0.00    -0.084 Cl
ENDROOT
BRANCH   9  12
ATOM     12  C   UNL     1       1.284  -3.007   1.123  0.00  0.00    -0.038 A 
ATOM     13  C   UNL     1       2.527  -2.480   0.825  0.00  0.00    +0.006 A 
ATOM     14  C   UNL     1       3.672  -3.133   1.240  0.00  0.00    +0.020 A 
ATOM     15  C   UNL     1       3.575  -4.315   1.952  0.00  0.00    +0.041 A 
ATOM     16  C   UNL     1       2.330  -4.842   2.249  0.00  0.00    +0.020 A 
ATOM     17  C   UNL     1       1.186  -4.185   1.839  0.00  0.00    +0.006 A 
ATOM     18 CL   UNL     1       5.013  -5.137   2.473  0.00  0.00    -0.084 Cl
ENDBRANCH   9  12
BRANCH  10  19
ATOM     19  C   UNL     1      -1.208  -0.611   2.032  0.00  0.00    +0.234 C 
ATOM     20  O   UNL     1      -2.181  -0.084   1.537  0.00  0.00    -0.274 OA
ATOM     21  N   UNL     1      -1.228  -0.982   3.327  0.00  0.00    -0.313 N 
ATOM     22  H   UNL     1      -0.449  -1.404   3.723  0.00  0.00    +0.149 HD
BRANCH  21  23
ATOM     23  C   UNL     1      -2.426  -0.749   4.137  0.00  0.00    +0.109 C 
BRANCH  23  24
ATOM     24  C   UNL     1      -2.187  -1.260   5.559  0.00  0.00    +0.056 C 
BRANCH  24  25
ATOM     25  C   UNL     1      -3.420  -1.020   6.393  0.00  0.00    -0.021 A 
ATOM     26  C   UNL     1      -4.592  -1.894   6.485  0.00  0.00    +0.006 A 
ATOM     27  C   UNL     1      -4.940  -3.114   5.901  0.00  0.00    +0.056 A 
ATOM     28  C   UNL     1      -6.156  -3.693   6.205  0.00  0.00    +0.121 A 
ATOM     29  C   UNL     1      -7.031  -3.066   7.087  0.00  0.00    +0.047 A 
ATOM     30  C   UNL     1      -6.699  -1.862   7.668  0.00  0.00    +0.030 A 
ATOM     31  C   UNL     1      -5.479  -1.263   7.376  0.00  0.00    +0.047 A 
ATOM     32  N   UNL     1      -4.876  -0.093   7.788  0.00  0.00    -0.360 N 
ATOM     33  C   UNL     1      -3.648   0.031   7.196  0.00  0.00    +0.087 A 
ATOM     34  H   UNL     1      -5.262   0.545   8.408  0.00  0.00    +0.165 HD
BRANCH  28  35
ATOM     35  O   UNL     1      -6.501  -4.880   5.639  0.00  0.00    -0.495 OA
ATOM     36  C   UNL     1      -7.773  -5.425   5.996  0.00  0.00    +0.277 C 
ENDBRANCH  28  35
ENDBRANCH  24  25
ENDBRANCH  23  24
ENDBRANCH  21  23
ENDBRANCH  10  19
TORSDOF 6
