REMARK  Name = ZINC08917698
REMARK  11 active torsions:
REMARK  status: ('A' for Active; 'I' for Inactive)
REMARK    1  A    between atoms: C_1  and  C_2
REMARK    2  A    between atoms: N_6  and  O_7
REMARK    3  A    between atoms: O_7  and  C_8
REMARK    4  A    between atoms: C_8  and  C_9
REMARK    5  A    between atoms: C_13  and  O_22
REMARK    6  A    between atoms: C_16  and  C_18
REMARK    7  A    between atoms: C_18  and  O_20
REMARK    8  A    between atoms: O_20  and  C_21
REMARK    9  A    between atoms: C_33  and  C_42
REMARK   10  A    between atoms: C_38  and  C_39
REMARK   11  A    between atoms: C_38  and  O_41
REMARK                            x       y       z     vdW  Elec       q    Type
REMARK                         _______ _______ _______ _____ _____    ______ ____
ROOT
ATOM      1  C   UNL     1       1.258  -2.523  -0.025  0.00  0.00    +0.016 C 
ATOM      2  C   UNL     1       0.626  -2.017  -1.323  0.00  0.00    -0.007 C 
ATOM      3  C   UNL     1      -0.819  -2.483  -1.337  0.00  0.00    +0.017 C 
ATOM      4  C   UNL     1      -0.940  -3.941  -1.780  0.00  0.00    +0.059 C 
ATOM      5  C   UNL     1      -0.315  -4.048  -3.158  0.00  0.00    +0.080 C 
ATOM      6  N   UNL     1      -0.928  -4.627  -4.142  0.00  0.00    -0.089 NA
ATOM      7  C   UNL     1       1.050  -3.464  -3.302  0.00  0.00    +0.026 C 
ATOM      8  C   UNL     1       1.464  -2.525  -2.459  0.00  0.00    -0.062 C 
ATOM      9  C   UNL     1       2.853  -1.949  -2.670  0.00  0.00    +0.031 C 
ATOM     10  C   UNL     1       2.760  -0.422  -2.644  0.00  0.00    +0.008 C 
ATOM     11  C   UNL     1       2.099   0.022  -1.335  0.00  0.00    -0.003 C 
ATOM     12  C   UNL     1       0.659  -0.483  -1.298  0.00  0.00    +0.002 C 
ATOM     13  C   UNL     1       0.002  -0.004   0.002  0.00  0.00    +0.005 C 
ATOM     14  C   UNL     1      -0.019   1.521   0.010  0.00  0.00    +0.011 C 
ATOM     15  C   UNL     1       1.408   2.077  -0.000  0.00  0.00    +0.011 C 
ATOM     16  C   UNL     1       2.176   1.525  -1.208  0.00  0.00    +0.002 C 
ATOM     17  C   UNL     1       1.573   2.254  -2.423  0.00  0.00    +0.008 C 
ATOM     18  C   UNL     1       1.398   3.688  -1.878  0.00  0.00    +0.049 C 
ATOM     19  C   UNL     1       1.296   3.586  -0.345  0.00  0.00    +0.132 C 
ATOM     20  C   UNL     1       2.124   1.831   1.330  0.00  0.00    +0.015 C 
ENDROOT
BRANCH  19  21
ATOM     21  C   UNL     1       2.398   4.331   0.286  0.00  0.00    -0.070 C 
ATOM     22  C   UNL     1       3.276   4.926   0.789  0.00  0.00    +0.007 C 
ENDBRANCH  19  21
BRANCH  19  23
ATOM     23  O   UNL     1       0.038   4.098   0.099  0.00  0.00    -0.376 OA
ATOM     24  H   UNL     1      -0.091   5.038  -0.088  0.00  0.00    +0.211 HD
ENDBRANCH  19  23
BRANCH   6  25
ATOM     25  O   UNL     1      -0.309  -4.705  -5.413  0.00  0.00    -0.384 OA
BRANCH  25  26
ATOM     26  C   UNL     1      -1.097  -5.370  -6.403  0.00  0.00    +0.358 C 
BRANCH  26  27
ATOM     27  C   UNL     1      -0.345  -5.395  -7.709  0.00  0.00    +0.257 C 
ATOM     28  O   UNL     1       0.756  -4.894  -7.785  0.00  0.00    -0.272 OA
ATOM     29  N   UNL     1      -0.898  -5.975  -8.793  0.00  0.00    -0.283 N 
ATOM     30  C   UNL     1      -2.223  -6.619  -8.842  0.00  0.00    +0.140 C 
ATOM     31  C   UNL     1      -2.642  -6.552 -10.332  0.00  0.00    +0.134 C 
ATOM     32  C   UNL     1      -1.285  -6.787 -11.047  0.00  0.00    +0.066 C 
ATOM     33  C   UNL     1      -0.281  -6.065 -10.124  0.00  0.00    +0.187 C 
BRANCH  33  34
ATOM     34  C   UNL     1       0.998  -6.858 -10.044  0.00  0.00    +0.328 C 
ATOM     35  O   UNL     1       1.203  -7.580  -9.097  0.00  0.00    -0.249 OA
BRANCH  34  36
ATOM     36  O   UNL     1       1.910  -6.762 -11.024  0.00  0.00    -0.467 OA
ATOM     37  C   UNL     1       3.118  -7.554 -10.881  0.00  0.00    +0.280 C 
ENDBRANCH  34  36
ENDBRANCH  33  34
BRANCH  31  38
ATOM     38  O   UNL     1      -3.574  -7.588 -10.648  0.00  0.00    -0.390 OA
ATOM     39  H   UNL     1      -4.402  -7.538 -10.150  0.00  0.00    +0.210 HD
ENDBRANCH  31  38
ENDBRANCH  26  27
ENDBRANCH  25  26
ENDBRANCH   6  25
TORSDOF 8
