REMARK  Name = ZINC09847504
REMARK  11 active torsions:
REMARK  status: ('A' for Active; 'I' for Inactive)
REMARK    1  A    between atoms: C_1  and  C_2
REMARK    2  A    between atoms: C_5  and  N_9
REMARK    3  A    between atoms: C_6  and  C_8
REMARK    4  A    between atoms: C_13  and  S_14
REMARK    5  A    between atoms: S_14  and  C_15
REMARK    6  A    between atoms: C_15  and  C_16
REMARK    7  A    between atoms: N_18  and  C_19
REMARK    8  A    between atoms: C_19  and  C_21
REMARK    9  A    between atoms: C_19  and  C_32
REMARK   10  A    between atoms: C_32  and  C_33
REMARK   11  A    between atoms: C_32  and  C_34
REMARK                            x       y       z     vdW  Elec       q    Type
REMARK                         _______ _______ _______ _____ _____    ______ ____
ROOT
ATOM      1  C   UNL     1       5.442   3.059  -0.034  0.00  0.00    +0.224 C 
ATOM      2  O   UNL     1       6.282   2.184  -0.046  0.00  0.00    -0.275 OA
ATOM      3  N   UNL     1       5.818   4.354  -0.030  0.00  0.00    -0.308 N 
ATOM      4  H   UNL     1       5.146   5.054  -0.020  0.00  0.00    +0.149 HD
ENDROOT
BRANCH   1   5
ATOM      5  C   UNL     1       3.979   2.700  -0.021  0.00  0.00    +0.173 C 
BRANCH   5   6
ATOM      6  S   UNL     1       3.800   0.898  -0.029  0.00  0.00    -0.076 S 
BRANCH   6  11
ATOM      7  N   UNL     1       1.315  -0.393  -0.013  0.00  0.00    -0.277 N 
ATOM      8  C   UNL     1       0.002  -0.004   0.002  0.00  0.00    +0.230 A 
ATOM      9  N   UNL     1      -0.016   1.299   0.009  0.00  0.00    -0.137 NA
ATOM     10  N   UNL     1       1.185   1.758   0.000  0.00  0.00    -0.122 NA
ATOM     11  C   UNL     1       2.043   0.765  -0.013  0.00  0.00    +0.196 A 
BRANCH   7  16
ATOM     12  C   UNL     1       3.320  -5.704  -0.064  0.00  0.00    +0.044 C 
ATOM     13  C   UNL     1       2.787  -4.294  -0.050  0.00  0.00    -0.050 A 
ATOM     14  C   UNL     1       2.059  -3.821  -1.126  0.00  0.00    +0.005 A 
ATOM     15  C   UNL     1       1.570  -2.529  -1.117  0.00  0.00    +0.027 A 
ATOM     16  C   UNL     1       1.810  -1.706  -0.025  0.00  0.00    +0.053 A 
ATOM     17  C   UNL     1       2.546  -2.181   1.051  0.00  0.00    -0.026 A 
ATOM     18  C   UNL     1       3.028  -3.476   1.038  0.00  0.00    +0.008 A 
ATOM     19  C   UNL     1       2.814  -1.288   2.235  0.00  0.00    +0.046 C 
ENDBRANCH   7  16
ENDBRANCH   6  11
ENDBRANCH   5   6
ENDBRANCH   1   5
BRANCH   3  20
ATOM     20  C   UNL     1       7.240   4.704  -0.042  0.00  0.00    +0.106 C 
BRANCH  20  21
ATOM     21  C   UNL     1       7.426   6.071   0.564  0.00  0.00    -0.023 A 
ATOM     22  C   UNL     1       6.524   7.079   0.279  0.00  0.00    +0.009 A 
ATOM     23  C   UNL     1       6.685   8.335   0.837  0.00  0.00    +0.050 A 
ATOM     24  C   UNL     1       7.761   8.582   1.673  0.00  0.00    +0.162 A 
ATOM     25  C   UNL     1       8.669   7.572   1.955  0.00  0.00    +0.162 A 
ATOM     26  C   UNL     1       8.502   6.314   1.399  0.00  0.00    +0.055 A 
ATOM     27  O   UNL     1       9.725   7.825   2.781  0.00  0.00    -0.488 OA
ATOM     28  C   UNL     1      10.717   8.718   2.271  0.00  0.00    +0.232 C 
ATOM     29  C   UNL     1      10.320  10.164   2.518  0.00  0.00    +0.082 C 
ATOM     30  C   UNL     1       9.064  10.558   1.757  0.00  0.00    +0.232 C 
ATOM     31  O   UNL     1       7.935   9.818   2.225  0.00  0.00    -0.488 OA
ENDBRANCH  20  21
BRANCH  20  32
ATOM     32  C   UNL     1       7.752   4.711  -1.484  0.00  0.00    +0.008 C 
ATOM     33  C   UNL     1       7.563   3.323  -2.099  0.00  0.00    +0.009 C 
ATOM     34  C   UNL     1       6.966   5.741  -2.298  0.00  0.00    +0.009 C 
ENDBRANCH  20  32
ENDBRANCH   3  20
TORSDOF 7
