REMARK  Name = ZINC34791599
REMARK  9 active torsions:
REMARK  status: ('A' for Active; 'I' for Inactive)
REMARK    1  A    between atoms: C_1  and  C_2
REMARK    2  A    between atoms: C_2  and  C_3
REMARK    3  A    between atoms: C_2  and  N_4
REMARK    4  A    between atoms: C_5  and  C_7
REMARK    5  A    between atoms: C_7  and  C_9
REMARK    6  A    between atoms: C_7  and  N_16
REMARK    7  A    between atoms: C_9  and  C_10
REMARK    8  A    between atoms: C_22  and  C_29
REMARK    9  A    between atoms: N_27  and  C_28
REMARK                            x       y       z     vdW  Elec       q    Type
REMARK                         _______ _______ _______ _____ _____    ______ ____
ROOT
ATOM      1  N   UNL     1      -4.141  -0.771  -2.311  0.00  0.00    -0.280 N 
ATOM      2  C   UNL     1      -4.520  -2.062  -2.905  0.00  0.00    +0.160 C 
ATOM      3  C   UNL     1      -4.865  -1.743  -4.342  0.00  0.00    +0.042 C 
ATOM      4  C   UNL     1      -4.685  -0.415  -4.489  0.00  0.00    +0.058 C 
ATOM      5  C   UNL     1      -4.259   0.160  -3.275  0.00  0.00    +0.247 C 
ATOM      6  O   UNL     1      -4.025   1.345  -3.119  0.00  0.00    -0.270 OA
ATOM      7  C   UNL     1      -4.962   0.187  -5.853  0.00  0.00    +0.143 C 
ATOM      8  N   UNL     1      -5.407  -0.736  -6.910  0.00  0.00    -0.288 N 
ATOM      9  C   UNL     1      -5.541  -2.043  -6.608  0.00  0.00    +0.307 C 
ATOM     10  O   UNL     1      -5.908  -2.812  -7.475  0.00  0.00    -0.252 OA
ATOM     11  N   UNL     1      -5.282  -2.521  -5.384  0.00  0.00    -0.260 N 
ATOM     12  C   UNL     1      -5.455  -3.957  -5.151  0.00  0.00    +0.139 C 
ATOM     13  H   UNL     1      -5.601  -0.411  -7.803  0.00  0.00    +0.151 HD
ENDROOT
BRANCH   7  14
ATOM     14  C   UNL     1      -3.702   0.863  -6.327  0.00  0.00    -0.004 A 
ATOM     15  C   UNL     1      -2.488   0.548  -5.745  0.00  0.00    +0.007 A 
ATOM     16  C   UNL     1      -1.331   1.168  -6.180  0.00  0.00    +0.000 A 
ATOM     17  C   UNL     1      -1.388   2.103  -7.198  0.00  0.00    +0.001 A 
ATOM     18  C   UNL     1      -2.601   2.418  -7.780  0.00  0.00    +0.020 A 
ATOM     19  C   UNL     1      -3.758   1.793  -7.349  0.00  0.00    +0.046 A 
ATOM     20 CL   UNL     1      -5.281   2.183  -8.085  0.00  0.00    -0.083 Cl
ENDBRANCH   7  14
BRANCH   1  21
ATOM     21  C   UNL     1      -3.721  -0.541  -0.927  0.00  0.00    +0.167 C 
BRANCH  21  23
ATOM     22  N   UNL     1      -1.735   0.338   0.258  0.00  0.00    -0.311 N 
ATOM     23  C   UNL     1      -2.332   0.043  -0.914  0.00  0.00    +0.234 C 
ATOM     24  O   UNL     1      -1.750   0.246  -1.959  0.00  0.00    -0.274 OA
ATOM     25  H   UNL     1      -2.201   0.175   1.093  0.00  0.00    +0.149 HD
BRANCH  22  27
ATOM     26  C   UNL     1      -0.467   2.423   0.097  0.00  0.00    +0.027 C 
ATOM     27  C   UNL     1      -0.385   0.905   0.270  0.00  0.00    +0.067 C 
ATOM     28  C   UNL     1       0.293   0.580   1.603  0.00  0.00    +0.027 C 
ENDBRANCH  22  27
ENDBRANCH  21  23
BRANCH  21  29
ATOM     29  C   UNL     1      -4.690   0.434  -0.255  0.00  0.00    +0.067 C 
BRANCH  29  30
ATOM     30  C   UNL     1      -6.053  -0.199  -0.157  0.00  0.00    -0.045 A 
ATOM     31  C   UNL     1      -6.964  -0.042  -1.186  0.00  0.00    +0.004 A 
ATOM     32  C   UNL     1      -8.215  -0.624  -1.096  0.00  0.00    +0.000 A 
ATOM     33  C   UNL     1      -8.555  -1.362   0.022  0.00  0.00    +0.000 A 
ATOM     34  C   UNL     1      -7.644  -1.520   1.050  0.00  0.00    +0.000 A 
ATOM     35  C   UNL     1      -6.392  -0.942   0.958  0.00  0.00    +0.004 A 
ENDBRANCH  29  30
ENDBRANCH  21  29
ENDBRANCH   1  21
TORSDOF 6
