REMARK  Name = ZINC06445357
REMARK  6 active torsions:
REMARK  status: ('A' for Active; 'I' for Inactive)
REMARK    1  A    between atoms: N_14  and  C_15
REMARK    2  A    between atoms: C_15  and  C_16
REMARK    3  A    between atoms: C_16  and  C_18
REMARK    4  A    between atoms: C_16  and  O_25
REMARK    5  A    between atoms: C_18  and  N_49
REMARK    6  A    between atoms: C_19  and  N_49
REMARK                            x       y       z     vdW  Elec       q    Type
REMARK                         _______ _______ _______ _____ _____    ______ ____
ROOT
ATOM      1  C   UNL     1       2.364   4.716   3.175  0.00  0.00    +0.017 A 
ATOM      2  C   UNL     1       1.506   3.778   2.644  0.00  0.00    +0.027 A 
ATOM      3  C   UNL     1       0.361   4.186   1.965  0.00  0.00    +0.050 A 
ATOM      4  C   UNL     1       0.101   5.556   1.819  0.00  0.00    +0.009 A 
ATOM      5  C   UNL     1       0.977   6.494   2.360  0.00  0.00    +0.026 A 
ATOM      6  C   UNL     1       2.103   6.071   3.035  0.00  0.00    +0.019 A 
ATOM      7 BR   UNL     1       3.293   7.342   3.772  0.00  0.00    -0.050 Br
ATOM      8  C   UNL     1      -1.158   5.665   1.060  0.00  0.00    +0.009 A 
ATOM      9  C   UNL     1      -1.918   6.743   0.614  0.00  0.00    +0.026 A 
ATOM     10  C   UNL     1      -3.081   6.517  -0.092  0.00  0.00    +0.019 A 
ATOM     11  C   UNL     1      -3.495   5.220  -0.358  0.00  0.00    +0.017 A 
ATOM     12  C   UNL     1      -2.752   4.144   0.077  0.00  0.00    +0.027 A 
ATOM     13  C   UNL     1      -1.575   4.352   0.791  0.00  0.00    +0.050 A 
ATOM     14  N   UNL     1      -0.651   3.480   1.338  0.00  0.00    -0.337 N 
ATOM     15 BR   UNL     1      -4.115   7.979  -0.698  0.00  0.00    -0.050 Br
ENDROOT
BRANCH  14  16
ATOM     16  C   UNL     1      -0.735   2.019   1.269  0.00  0.00    +0.151 C 
BRANCH  16  17
ATOM     17  C   UNL     1      -0.019   1.526   0.010  0.00  0.00    +0.117 C 
BRANCH  17  18
ATOM     18  O   UNL     1      -0.710   1.999  -1.147  0.00  0.00    -0.392 OA
ATOM     19  H   UNL     1      -1.628   1.702  -1.206  0.00  0.00    +0.210 HD
ENDBRANCH  17  18
BRANCH  17  20
ATOM     20  C   UNL     1       0.002  -0.004   0.002  0.00  0.00    -0.049 C 
BRANCH  20  21
ATOM     21  N   UNL     1       0.797  -0.470  -1.150  0.00  0.00    +0.383 N 
ATOM     22  H   UNL     1       1.755  -0.109  -1.069  0.00  0.00    -0.085 HD
ATOM     23  H   UNL     1       0.372  -0.123  -2.017  0.00  0.00    -0.085 HD
BRANCH  21  24
ATOM     24  C   UNL     1       0.834  -1.945  -1.183  0.00  0.00    -0.072 C 
ATOM     25  C   UNL     1       1.963  -2.447  -0.280  0.00  0.00    -0.016 C 
ATOM     26  C   UNL     1       2.006  -3.976  -0.323  0.00  0.00    -0.002 C 
ATOM     27  C   UNL     1       2.257  -4.440  -1.759  0.00  0.00    -0.000 C 
ATOM     28  C   UNL     1       1.129  -3.937  -2.661  0.00  0.00    -0.002 C 
ATOM     29  C   UNL     1       1.085  -2.408  -2.619  0.00  0.00    -0.016 C 
ENDBRANCH  21  24
ENDBRANCH  20  21
ENDBRANCH  17  20
ENDBRANCH  16  17
ENDBRANCH  14  16
TORSDOF 6
