REMARK  Name = ZINC12516933
REMARK  7 active torsions:
REMARK  status: ('A' for Active; 'I' for Inactive)
REMARK    1  A    between atoms: C_1  and  N_61
REMARK    2  A    between atoms: C_2  and  C_3
REMARK    3  A    between atoms: C_2  and  N_61
REMARK    4  A    between atoms: C_8  and  N_9
REMARK    5  A    between atoms: C_15  and  C_16
REMARK    6  A    between atoms: C_15  and  N_61
REMARK    7  A    between atoms: C_20  and  C_29
REMARK                            x       y       z     vdW  Elec       q    Type
REMARK                         _______ _______ _______ _____ _____    ______ ____
ROOT
ATOM      1  C   UNL     1      -2.788  -2.028  -1.364  0.00  0.00    +0.019 C 
ENDROOT
BRANCH   1   2
ATOM      2  C   UNL     1      -3.093  -2.422  -2.786  0.00  0.00    +0.203 C 
ATOM      3  O   UNL     1      -2.371  -2.051  -3.687  0.00  0.00    -0.277 OA
ATOM      4  N   UNL     1      -4.169  -3.187  -3.057  0.00  0.00    -0.266 N 
ATOM      5  C   UNL     1      -5.120  -3.569  -1.998  0.00  0.00    +0.168 C 
ATOM      6  C   UNL     1      -5.484  -5.045  -2.212  0.00  0.00    +0.276 C 
ATOM      7  O   UNL     1      -6.043  -5.197  -3.519  0.00  0.00    -0.476 OA
ATOM      8  C   UNL     1      -5.363  -4.656  -4.565  0.00  0.00    +0.143 A 
ATOM      9  C   UNL     1      -4.427  -3.644  -4.361  0.00  0.00    +0.078 A 
ATOM     10  C   UNL     1      -3.742  -3.103  -5.436  0.00  0.00    +0.027 A 
ATOM     11  C   UNL     1      -3.994  -3.564  -6.716  0.00  0.00    +0.002 A 
ATOM     12  C   UNL     1      -4.924  -4.566  -6.921  0.00  0.00    +0.004 A 
ATOM     13  C   UNL     1      -5.608  -5.112  -5.851  0.00  0.00    +0.047 A 
BRANCH   6  14
ATOM     14  C   UNL     1      -6.495  -5.470  -1.178  0.00  0.00    +0.253 C 
ATOM     15  O   UNL     1      -7.613  -5.791  -1.520  0.00  0.00    -0.272 OA
ATOM     16  N   UNL     1      -6.155  -5.494   0.126  0.00  0.00    -0.326 N 
ATOM     17  H   UNL     1      -5.261  -5.238   0.399  0.00  0.00    +0.145 HD
ATOM     18  H   UNL     1      -6.806  -5.768   0.791  0.00  0.00    +0.145 HD
ENDBRANCH   6  14
ENDBRANCH   1   2
BRANCH   1  20
ATOM     19  C   UNL     1      -1.924   0.142  -2.003  0.00  0.00    -0.095 C 
ATOM     20  N   UNL     1      -1.600  -1.148  -1.358  0.00  0.00    +0.386 N 
ATOM     21  H   UNL     1      -0.845  -1.603  -1.884  0.00  0.00    -0.081 HD
BRANCH  20  22
ATOM     22  C   UNL     1      -1.148  -0.920   0.030  0.00  0.00    -0.041 C 
BRANCH  22  23
ATOM     23  C   UNL     1       0.206  -0.260  -0.003  0.00  0.00    -0.043 A 
ATOM     24  C   UNL     1       0.327   1.087   0.279  0.00  0.00    +0.003 A 
ATOM     25  C   UNL     1       1.569   1.692   0.248  0.00  0.00    +0.000 A 
ATOM     26  C   UNL     1       2.696   0.953  -0.064  0.00  0.00    +0.002 A 
ATOM     27  C   UNL     1       2.582  -0.394  -0.346  0.00  0.00    +0.023 A 
ATOM     28  C   UNL     1       1.335  -1.006  -0.316  0.00  0.00    +0.031 A 
BRANCH  28  29
ATOM     29  N   UNL     1       1.218  -2.370  -0.596  0.00  0.00    -0.330 N 
ATOM     30  C   UNL     1       1.990  -3.171   0.362  0.00  0.00    +0.105 C 
ATOM     31  C   UNL     1       1.723  -4.658   0.117  0.00  0.00    +0.019 C 
ATOM     32  C   UNL     1       2.125  -5.014  -1.317  0.00  0.00    +0.003 C 
ATOM     33  C   UNL     1       1.343  -4.132  -2.292  0.00  0.00    +0.019 C 
ATOM     34  C   UNL     1       1.621  -2.660  -1.978  0.00  0.00    +0.105 C 
ENDBRANCH  28  29
ENDBRANCH  22  23
ENDBRANCH  20  22
ENDBRANCH   1  20
TORSDOF 6
