REMARK  Name = ZINC11866964
REMARK  9 active torsions:
REMARK  status: ('A' for Active; 'I' for Inactive)
REMARK    1  A    between atoms: C_1  and  C_2
REMARK    2  A    between atoms: C_6  and  C_18
REMARK    3  A    between atoms: C_7  and  C_11
REMARK    4  A    between atoms: C_11  and  C_12
REMARK    5  A    between atoms: C_19  and  O_21
REMARK    6  A    between atoms: O_21  and  C_22
REMARK    7  A    between atoms: C_22  and  C_24
REMARK    8  A    between atoms: C_22  and  C_25
REMARK    9  A    between atoms: C_30  and  O_38
REMARK                            x       y       z     vdW  Elec       q    Type
REMARK                         _______ _______ _______ _____ _____    ______ ____
ROOT
ATOM      1  C   UNL     1      -5.751   0.365   7.154  0.00  0.00    +0.044 C 
ATOM      2  C   UNL     1      -5.156   0.797   5.838  0.00  0.00    -0.043 A 
ATOM      3  C   UNL     1      -4.128   0.063   5.280  0.00  0.00    +0.050 A 
ATOM      4  C   UNL     1      -3.574   0.451   4.069  0.00  0.00    +0.143 A 
ATOM      5  C   UNL     1      -4.067   1.595   3.417  0.00  0.00    +0.062 A 
ATOM      6  C   UNL     1      -3.475   1.996   2.140  0.00  0.00    -0.026 A 
ATOM      7  C   UNL     1      -2.467   1.239   1.634  0.00  0.00    +0.045 A 
ATOM      8  C   UNL     1      -2.025   0.100   2.339  0.00  0.00    +0.341 A 
ATOM      9  O   UNL     1      -1.123  -0.573   1.872  0.00  0.00    -0.245 OA
ATOM     10  O   UNL     1      -2.569  -0.259   3.512  0.00  0.00    -0.422 OA
ATOM     11  C   UNL     1      -3.971   3.215   1.405  0.00  0.00    +0.045 C 
ATOM     12  C   UNL     1      -5.112   2.333   3.994  0.00  0.00    +0.133 A 
ATOM     13  C   UNL     1      -5.647   1.925   5.203  0.00  0.00    +0.050 A 
ENDROOT
BRANCH   7  14
ATOM     14  C   UNL     1      -1.826   1.611   0.322  0.00  0.00    +0.077 C 
BRANCH  14  15
ATOM     15  C   UNL     1      -2.599   0.984  -0.810  0.00  0.00    -0.043 A 
ATOM     16  C   UNL     1      -3.570   1.713  -1.471  0.00  0.00    +0.004 A 
ATOM     17  C   UNL     1      -4.275   1.140  -2.513  0.00  0.00    +0.000 A 
ATOM     18  C   UNL     1      -4.013  -0.164  -2.890  0.00  0.00    +0.000 A 
ATOM     19  C   UNL     1      -3.045  -0.894  -2.225  0.00  0.00    +0.000 A 
ATOM     20  C   UNL     1      -2.340  -0.321  -1.184  0.00  0.00    +0.004 A 
ENDBRANCH  14  15
ENDBRANCH   7  14
BRANCH  12  21
ATOM     21  O   UNL     1      -5.593   3.439   3.371  0.00  0.00    -0.479 OA
BRANCH  21  22
ATOM     22  C   UNL     1      -6.573   4.205   4.075  0.00  0.00    +0.256 C 
ATOM     23  C   UNL     1      -7.960   3.608   3.829  0.00  0.00    +0.062 C 
BRANCH  22  24
ATOM     24  C   UNL     1      -6.545   5.629   3.583  0.00  0.00    +0.256 C 
ATOM     25  O   UNL     1      -5.828   5.937   2.655  0.00  0.00    -0.272 OA
ATOM     26  N   UNL     1      -7.317   6.562   4.176  0.00  0.00    -0.298 N 
ATOM     27  C   UNL     1      -8.191   6.206   5.302  0.00  0.00    +0.110 C 
ATOM     28  C   UNL     1      -7.886   7.141   6.476  0.00  0.00    +0.054 C 
ATOM     29  C   UNL     1      -8.018   8.595   6.016  0.00  0.00    +0.072 C 
ATOM     30  C   UNL     1      -7.742   9.525   7.199  0.00  0.00    +0.035 C 
ATOM     31  C   UNL     1      -7.867  10.981   6.747  0.00  0.00    +0.003 C 
ATOM     32  C   UNL     1      -6.851  11.257   5.636  0.00  0.00    +0.001 C 
ATOM     33  C   UNL     1      -7.130  10.331   4.451  0.00  0.00    +0.008 C 
ATOM     34  C   UNL     1      -7.008   8.873   4.900  0.00  0.00    +0.038 C 
ATOM     35  C   UNL     1      -7.297   7.956   3.713  0.00  0.00    +0.114 C 
BRANCH  29  36
ATOM     36  O   UNL     1      -9.343   8.822   5.529  0.00  0.00    -0.388 OA
ATOM     37  H   UNL     1     -10.035   8.667   6.186  0.00  0.00    +0.210 HD
ENDBRANCH  29  36
ENDBRANCH  22  24
ENDBRANCH  21  22
ENDBRANCH  12  21
TORSDOF 6
