REMARK  Name = ZINC18050658
REMARK  12 active torsions:
REMARK  status: ('A' for Active; 'I' for Inactive)
REMARK    1  A    between atoms: C_1  and  C_2
REMARK    2  A    between atoms: C_5  and  C_34
REMARK    3  A    between atoms: C_6  and  S_8
REMARK    4  A    between atoms: S_8  and  N_11
REMARK    5  A    between atoms: N_11  and  C_12
REMARK    6  A    between atoms: C_12  and  C_13
REMARK    7  A    between atoms: C_13  and  C_14
REMARK    8  A    between atoms: N_16  and  N_17
REMARK    9  A    between atoms: C_18  and  C_20
REMARK   10  A    between atoms: C_20  and  C_22
REMARK   11  A    between atoms: C_20  and  O_23
REMARK   12  A    between atoms: O_23  and  C_24
REMARK                            x       y       z     vdW  Elec       q    Type
REMARK                         _______ _______ _______ _____ _____    ______ ____
ROOT
ATOM      1  C   UNL     1      10.291   4.034   2.534  0.00  0.00    +0.230 C 
ATOM      2  O   UNL     1      10.475   2.956   2.010  0.00  0.00    -0.274 OA
ATOM      3  N   UNL     1       9.075   4.613   2.477  0.00  0.00    -0.234 N 
ATOM      4  H   UNL     1       8.928   5.475   2.897  0.00  0.00    +0.173 HD
ENDROOT
BRANCH   3   5
ATOM      5  N   UNL     1       8.023   3.969   1.812  0.00  0.00    -0.231 N 
ATOM      6  C   UNL     1       6.807   4.548   1.755  0.00  0.00    +0.270 C 
ATOM      7  O   UNL     1       6.624   5.626   2.280  0.00  0.00    -0.270 OA
ATOM      8  H   UNL     1       8.170   3.107   1.393  0.00  0.00    +0.173 HD
BRANCH   6   9
ATOM      9  C   UNL     1       5.676   3.855   1.040  0.00  0.00    +0.257 C 
ATOM     10  C   UNL     1       6.054   3.644  -0.427  0.00  0.00    +0.062 C 
BRANCH   9  11
ATOM     11  O   UNL     1       4.499   4.662   1.117  0.00  0.00    -0.480 OA
BRANCH  11  12
ATOM     12  C   UNL     1       3.305   4.025   0.991  0.00  0.00    +0.122 A 
ATOM     13  C   UNL     1       3.280   2.655   0.712  0.00  0.00    +0.046 A 
ATOM     14  C   UNL     1       2.102   1.989   0.580  0.00  0.00    +0.012 A 
ATOM     15  C   UNL     1       0.889   2.685   0.726  0.00  0.00    -0.018 A 
ATOM     16  C   UNL     1      -0.347   2.028   0.597  0.00  0.00    +0.008 A 
ATOM     17  C   UNL     1      -1.503   2.734   0.740  0.00  0.00    +0.001 A 
ATOM     18  C   UNL     1      -1.480   4.098   1.024  0.00  0.00    +0.001 A 
ATOM     19  C   UNL     1      -0.303   4.767   1.155  0.00  0.00    +0.008 A 
ATOM     20  C   UNL     1       0.911   4.073   1.009  0.00  0.00    -0.014 A 
ATOM     21  C   UNL     1       2.146   4.731   1.139  0.00  0.00    +0.054 A 
ENDBRANCH  11  12
ENDBRANCH   9  11
ENDBRANCH   6   9
ENDBRANCH   3   5
BRANCH   1  22
ATOM     22  C   UNL     1      11.422   4.726   3.250  0.00  0.00    +0.114 C 
BRANCH  22  23
ATOM     23  C   UNL     1      12.682   3.863   3.167  0.00  0.00    +0.115 C 
BRANCH  23  24
ATOM     24  N   UNL     1      13.782   4.536   3.862  0.00  0.00    -0.189 NA
ATOM     25  H   UNL     1      13.717   5.481   4.072  0.00  0.00    +0.148 HD
BRANCH  24  26
ATOM     26  S   UNL     1      15.136   3.684   4.291  0.00  0.00    +0.059 S 
ATOM     27  O   UNL     1      16.015   4.607   4.919  0.00  0.00    -0.153 OA
ATOM     28  O   UNL     1      14.684   2.502   4.937  0.00  0.00    -0.153 OA
BRANCH  26  34
ATOM     29  C   UNL     1      16.762  -0.040   1.002  0.00  0.00    +0.044 C 
ATOM     30  C   UNL     1      16.647   1.427   1.330  0.00  0.00    -0.049 A 
ATOM     31  C   UNL     1      17.160   2.372   0.460  0.00  0.00    +0.004 A 
ATOM     32  C   UNL     1      17.055   3.717   0.760  0.00  0.00    +0.005 A 
ATOM     33  C   UNL     1      16.437   4.117   1.931  0.00  0.00    -0.024 A 
ATOM     34  C   UNL     1      15.923   3.173   2.800  0.00  0.00    +0.108 A 
ATOM     35  C   UNL     1      16.033   1.827   2.501  0.00  0.00    +0.032 A 
ATOM     36  C   UNL     1      16.323   5.584   2.258  0.00  0.00    +0.046 C 
ENDBRANCH  26  34
ENDBRANCH  24  26
ENDBRANCH  23  24
ENDBRANCH  22  23
ENDBRANCH   1  22
TORSDOF 9
