REMARK  Name = ZINC44166742
REMARK  10 active torsions:
REMARK  status: ('A' for Active; 'I' for Inactive)
REMARK    1  A    between atoms: C_1  and  C_2
REMARK    2  A    between atoms: C_2  and  N_3
REMARK    3  A    between atoms: N_3  and  C_4
REMARK    4  A    between atoms: N_3  and  C_6
REMARK    5  A    between atoms: C_4  and  C_5
REMARK    6  A    between atoms: C_9  and  C_12
REMARK    7  A    between atoms: C_17  and  C_20
REMARK    8  A    between atoms: N_22  and  C_23
REMARK    9  A    between atoms: C_23  and  C_25
REMARK   10  A    between atoms: C_23  and  C_26
REMARK                            x       y       z     vdW  Elec       q    Type
REMARK                         _______ _______ _______ _____ _____    ______ ____
ROOT
ATOM      1  C   UNL     1      -4.046  -1.247   4.829  0.00  0.00    -0.030 C 
ATOM      2  C   UNL     1      -3.785  -2.744   5.038  0.00  0.00    +0.058 C 
ATOM      3  S   UNL     1      -4.424  -3.211   6.677  0.00  0.00    -0.163 S 
ATOM      4  C   UNL     1      -6.107  -2.518   6.660  0.00  0.00    +0.062 C 
ATOM      5  C   UNL     1      -6.021  -1.056   6.208  0.00  0.00    +0.027 C 
ATOM      6  N   UNL     1      -5.487  -0.988   4.846  0.00  0.00    +0.392 N 
ATOM      7  H   UNL     1      -5.662  -0.069   4.468  0.00  0.00    -0.084 HD
ATOM      8  H   UNL     1      -5.953  -1.675   4.272  0.00  0.00    -0.084 HD
ENDROOT
BRANCH   1  12
ATOM      9  C   UNL     1      -2.430  -0.037   1.062  0.00  0.00    +0.030 A 
ATOM     10  C   UNL     1      -1.726   0.211   2.233  0.00  0.00    +0.023 A 
ATOM     11  C   UNL     1      -2.251  -0.181   3.449  0.00  0.00    +0.004 A 
ATOM     12  C   UNL     1      -3.476  -0.820   3.501  0.00  0.00    -0.060 A 
ATOM     13  C   UNL     1      -4.180  -1.069   2.336  0.00  0.00    +0.004 A 
ATOM     14  C   UNL     1      -3.663  -0.675   1.118  0.00  0.00    +0.023 A 
BRANCH   9  15
ATOM     15  N   UNL     1      -1.901   0.358  -0.170  0.00  0.00    -0.330 N 
BRANCH  15  17
ATOM     16  C   UNL     1      -0.803   2.542  -0.117  0.00  0.00    +0.024 C 
ATOM     17  C   UNL     1      -0.601   1.030  -0.227  0.00  0.00    +0.102 C 
ENDBRANCH  15  17
BRANCH  15  18
ATOM     18  C   UNL     1      -2.648   0.101  -1.403  0.00  0.00    +0.102 C 
ATOM     19  C   UNL     1      -2.253  -1.268  -1.963  0.00  0.00    +0.024 C 
ENDBRANCH  15  18
ENDBRANCH   9  15
ENDBRANCH   1  12
BRANCH   5  20
ATOM     20  C   UNL     1      -5.112  -0.297   7.141  0.00  0.00    +0.200 C 
ATOM     21  O   UNL     1      -4.377   0.563   6.704  0.00  0.00    -0.278 OA
ATOM     22  N   UNL     1      -5.116  -0.574   8.460  0.00  0.00    -0.310 N 
ATOM     23  H   UNL     1      -5.704  -1.262   8.809  0.00  0.00    +0.149 HD
BRANCH  22  24
ATOM     24  C   UNL     1      -4.232   0.164   9.366  0.00  0.00    +0.101 C 
ATOM     25  C   UNL     1      -2.853  -0.498   9.384  0.00  0.00    +0.033 C 
BRANCH  24  26
ATOM     26  C   UNL     1      -4.815   0.151  10.756  0.00  0.00    -0.020 A 
ATOM     27  C   UNL     1      -5.620  -0.873  11.151  0.00  0.00    +0.006 A 
ATOM     28  C   UNL     1      -6.167  -0.901  12.432  0.00  0.00    +0.001 A 
ATOM     29  C   UNL     1      -5.913   0.094  13.325  0.00  0.00    +0.008 A 
ATOM     30  C   UNL     1      -5.087   1.168  12.953  0.00  0.00    -0.018 A 
ATOM     31  C   UNL     1      -4.525   1.194  11.652  0.00  0.00    -0.013 A 
ATOM     32  C   UNL     1      -3.693   2.265  11.282  0.00  0.00    +0.009 A 
ATOM     33  C   UNL     1      -3.435   3.257  12.177  0.00  0.00    +0.001 A 
ATOM     34  C   UNL     1      -3.982   3.228  13.459  0.00  0.00    +0.001 A 
ATOM     35  C   UNL     1      -4.802   2.214  13.848  0.00  0.00    +0.008 A 
ENDBRANCH  24  26
ENDBRANCH  22  24
ENDBRANCH   5  20
TORSDOF 7
