REMARK  Name = ZINC36205978
REMARK  18 active torsions:
REMARK  status: ('A' for Active; 'I' for Inactive)
REMARK    1  A    between atoms: C_1  and  C_2
REMARK    2  A    between atoms: C_2  and  N_3
REMARK    3  A    between atoms: N_3  and  C_4
REMARK    4  A    between atoms: N_3  and  C_26
REMARK    5  A    between atoms: C_4  and  C_5
REMARK    6  A    between atoms: C_11  and  C_16
REMARK    7  A    between atoms: C_19  and  O_24
REMARK    8  A    between atoms: C_20  and  O_22
REMARK    9  A    between atoms: O_22  and  C_23
REMARK   10  A    between atoms: O_24  and  C_25
REMARK   11  A    between atoms: C_26  and  C_27
REMARK   12  A    between atoms: C_27  and  C_29
REMARK   13  A    between atoms: C_27  and  O_35
REMARK   14  A    between atoms: C_29  and  O_30
REMARK   15  A    between atoms: O_30  and  C_31
REMARK   16  A    between atoms: C_31  and  C_32
REMARK   17  A    between atoms: C_32  and  C_33
REMARK   18  A    between atoms: C_32  and  C_34
REMARK                            x       y       z     vdW  Elec       q    Type
REMARK                         _______ _______ _______ _____ _____    ______ ____
ROOT
ATOM      1  C   UNL     1       1.941   1.538  -1.082  0.00  0.00    +0.094 A 
ATOM      2  N   UNL     1       3.117   2.212  -0.991  0.00  0.00    -0.312 N 
ATOM      3  H   UNL     1       3.950   1.716  -1.000  0.00  0.00    +0.170 HD
ATOM      4  C   UNL     1       3.148   3.553  -0.889  0.00  0.00    +0.260 A 
ATOM      5  O   UNL     1       4.212   4.143  -0.809  0.00  0.00    -0.267 OA
ATOM      6  C   UNL     1       1.913   4.277  -0.876  0.00  0.00    +0.080 A 
ATOM      7  C   UNL     1       1.687   5.714  -0.776  0.00  0.00    +0.004 A 
ATOM      8  C   UNL     1       0.413   6.175  -0.785  0.00  0.00    +0.056 A 
ATOM      9  S   UNL     1      -0.562   4.690  -0.930  0.00  0.00    -0.076 S 
ATOM     10  C   UNL     1       0.750   3.497  -0.975  0.00  0.00    +0.116 A 
ATOM     11  N   UNL     1       0.798   2.171  -1.078  0.00  0.00    -0.229 NA
ENDROOT
BRANCH   7  12
ATOM     12  C   UNL     1       2.829   6.652  -0.666  0.00  0.00    -0.013 A 
ATOM     13  C   UNL     1       3.832   6.425   0.275  0.00  0.00    +0.012 A 
ATOM     14  C   UNL     1       4.895   7.299   0.377  0.00  0.00    +0.050 A 
ATOM     15  C   UNL     1       4.968   8.405  -0.456  0.00  0.00    +0.162 A 
ATOM     16  C   UNL     1       3.970   8.637  -1.398  0.00  0.00    +0.162 A 
ATOM     17  C   UNL     1       2.905   7.761  -1.507  0.00  0.00    +0.058 A 
BRANCH  16  18
ATOM     18  O   UNL     1       4.044   9.723  -2.214  0.00  0.00    -0.491 OA
ATOM     19  C   UNL     1       2.985   9.900  -3.157  0.00  0.00    +0.277 C 
ENDBRANCH  16  18
BRANCH  15  20
ATOM     20  O   UNL     1       6.017   9.265  -0.352  0.00  0.00    -0.491 OA
ATOM     21  C   UNL     1       7.005   8.966   0.637  0.00  0.00    +0.277 C 
ENDBRANCH  15  20
ENDBRANCH   7  12
BRANCH   1  22
ATOM     22  C   UNL     1       1.955   0.036  -1.195  0.00  0.00    -0.003 C 
BRANCH  22  23
ATOM     23  N   UNL     1       0.590  -0.450  -1.435  0.00  0.00    +0.386 N 
ATOM     24  H   UNL     1      -0.029  -0.078  -0.730  0.00  0.00    -0.081 HD
BRANCH  23  26
ATOM     25  C   UNL     1       0.918  -2.374   0.044  0.00  0.00    -0.017 C 
ATOM     26  C   UNL     1       0.574  -1.918  -1.376  0.00  0.00    -0.082 C 
ENDBRANCH  23  26
BRANCH  23  27
ATOM     27  C   UNL     1       0.140  -0.009  -2.763  0.00  0.00    -0.044 C 
BRANCH  27  28
ATOM     28  C   UNL     1      -1.324  -0.407  -2.963  0.00  0.00    +0.124 C 
BRANCH  28  29
ATOM     29  O   UNL     1      -2.143   0.302  -2.031  0.00  0.00    -0.391 OA
ATOM     30  H   UNL     1      -2.094   1.264  -2.118  0.00  0.00    +0.210 HD
ENDBRANCH  28  29
BRANCH  28  31
ATOM     31  C   UNL     1      -1.756  -0.060  -4.389  0.00  0.00    +0.189 C 
BRANCH  31  32
ATOM     32  O   UNL     1      -3.084  -0.537  -4.614  0.00  0.00    -0.377 OA
BRANCH  32  33
ATOM     33  C   UNL     1      -3.587  -0.263  -5.923  0.00  0.00    +0.163 C 
BRANCH  33  34
ATOM     34  C   UNL     1      -5.008  -0.815  -6.050  0.00  0.00    +0.009 C 
ATOM     35  C   UNL     1      -5.935  -0.060  -5.095  0.00  0.00    +0.009 C 
ATOM     36  C   UNL     1      -5.500  -0.633  -7.487  0.00  0.00    +0.009 C 
ENDBRANCH  33  34
ENDBRANCH  32  33
ENDBRANCH  31  32
ENDBRANCH  28  31
ENDBRANCH  27  28
ENDBRANCH  23  27
ENDBRANCH  22  23
ENDBRANCH   1  22
TORSDOF 13
