REMARK  Name = ZINC04082917
REMARK  2 active torsions:
REMARK  status: ('A' for Active; 'I' for Inactive)
REMARK    1  A    between atoms: C_4  and  C_7
REMARK    2  A    between atoms: C_12  and  C_22
REMARK                            x       y       z     vdW  Elec       q    Type
REMARK                         _______ _______ _______ _____ _____    ______ ____
ROOT
ATOM      1  C   UNL     1       2.947   2.106   1.569  0.00  0.00    +0.032 C 
ATOM      2  C   UNL     1       2.041   1.002   1.026  0.00  0.00    +0.059 C 
ATOM      3  C   UNL     1       1.076   1.580   0.003  0.00  0.00    +0.017 C 
ATOM      4  C   UNL     1       1.444   2.614  -0.770  0.00  0.00    +0.037 C 
ATOM      5  C   UNL     1       0.588   3.287  -1.818  0.00  0.00    +0.139 C 
ATOM      6  N   UNL     1      -0.627   2.571  -2.143  0.00  0.00    -0.331 N 
ATOM      7  C   UNL     1      -1.627   2.390  -1.193  0.00  0.00    +0.049 A 
ATOM      8  C   UNL     1      -2.869   2.991  -1.329  0.00  0.00    +0.025 A 
ATOM      9  C   UNL     1      -3.813   2.836  -0.348  0.00  0.00    +0.002 A 
ATOM     10  C   UNL     1      -3.531   2.090   0.782  0.00  0.00    +0.002 A 
ATOM     11  C   UNL     1      -2.301   1.467   0.916  0.00  0.00    +0.025 A 
ATOM     12  C   UNL     1      -1.361   1.602  -0.088  0.00  0.00    +0.052 A 
ATOM     13  N   UNL     1      -0.129   0.955  -0.050  0.00  0.00    -0.316 N 
ATOM     14  C   UNL     1       2.731   3.186  -0.632  0.00  0.00    +0.163 C 
ATOM     15  O   UNL     1       3.047   4.103  -1.365  0.00  0.00    -0.292 OA
ATOM     16  C   UNL     1       3.720   2.699   0.385  0.00  0.00    +0.088 C 
ATOM     17  H   UNL     1      -0.747   2.214  -3.037  0.00  0.00    +0.147 HD
ATOM     18  H   UNL     1      -0.131  -0.015  -0.067  0.00  0.00    +0.152 HD
ENDROOT
BRANCH   5  19
ATOM     19  C   UNL     1       0.217   4.660  -1.323  0.00  0.00    +0.013 A 
ATOM     20  C   UNL     1       0.345   4.970   0.018  0.00  0.00    +0.024 A 
ATOM     21  C   UNL     1       0.005   6.231   0.473  0.00  0.00    +0.018 A 
ATOM     22  C   UNL     1      -0.464   7.184  -0.414  0.00  0.00    +0.018 A 
ATOM     23  C   UNL     1      -0.593   6.875  -1.755  0.00  0.00    +0.040 A 
ATOM     24  C   UNL     1      -0.247   5.615  -2.212  0.00  0.00    +0.129 A 
ATOM     25  F   UNL     1      -0.368   5.314  -3.523  0.00  0.00    -0.205 F 
ATOM     26 BR   UNL     1       0.181   6.654   2.307  0.00  0.00    -0.050 Br
ENDBRANCH   5  19
BRANCH   1  30
ATOM     27  C   UNL     1       5.685   0.464   4.407  0.00  0.00    +0.000 A 
ATOM     28  C   UNL     1       4.827   1.480   4.783  0.00  0.00    +0.000 A 
ATOM     29  C   UNL     1       3.941   2.012   3.864  0.00  0.00    +0.004 A 
ATOM     30  C   UNL     1       3.913   1.526   2.570  0.00  0.00    -0.044 A 
ATOM     31  C   UNL     1       4.767   0.506   2.196  0.00  0.00    +0.004 A 
ATOM     32  C   UNL     1       5.657  -0.022   3.113  0.00  0.00    +0.000 A 
ENDBRANCH   1  30
TORSDOF 2
