REMARK  Name = ZINC36583862
REMARK  18 active torsions:
REMARK  status: ('A' for Active; 'I' for Inactive)
REMARK    1  A    between atoms: C_1  and  C_2
REMARK    2  A    between atoms: C_2  and  C_3
REMARK    3  A    between atoms: C_2  and  C_4
REMARK    4  A    between atoms: C_2  and  C_5
REMARK    5  A    between atoms: C_5  and  C_6
REMARK    6  A    between atoms: C_6  and  C_7
REMARK    7  A    between atoms: C_6  and  C_8
REMARK    8  A    between atoms: C_6  and  N_9
REMARK    9  A    between atoms: C_10  and  C_12
REMARK   10  A    between atoms: C_12  and  C_14
REMARK   11  A    between atoms: C_12  and  N_21
REMARK   12  A    between atoms: C_17  and  O_20
REMARK   13  A    between atoms: N_21  and  C_32
REMARK   14  A    between atoms: C_22  and  C_24
REMARK   15  A    between atoms: C_24  and  C_25
REMARK   16  A    between atoms: C_32  and  C_33
REMARK   17  A    between atoms: C_32  and  C_34
REMARK   18  A    between atoms: C_32  and  C_35
REMARK                            x       y       z     vdW  Elec       q    Type
REMARK                         _______ _______ _______ _____ _____    ______ ____
ROOT
ATOM      1  C   UNL     1       4.497   0.627  -5.057  0.00  0.00    +0.193 C 
ENDROOT
BRANCH   1   2
ATOM      2  C   UNL     1       4.333  -0.375  -6.170  0.00  0.00    -0.018 A 
ATOM      3  C   UNL     1       5.304  -1.336  -6.382  0.00  0.00    +0.009 A 
ATOM      4  C   UNL     1       5.157  -2.256  -7.402  0.00  0.00    +0.046 A 
ATOM      5  C   UNL     1       4.034  -2.215  -8.215  0.00  0.00    +0.117 A 
ATOM      6  C   UNL     1       3.061  -1.250  -8.001  0.00  0.00    +0.046 A 
ATOM      7  C   UNL     1       3.210  -0.335  -6.976  0.00  0.00    +0.009 A 
BRANCH   5   8
ATOM      8  O   UNL     1       3.887  -3.118  -9.219  0.00  0.00    -0.507 OA
ATOM      9  H   UNL     1       3.425  -3.926  -8.957  0.00  0.00    +0.292 HD
ENDBRANCH   5   8
ENDBRANCH   1   2
BRANCH   1  11
ATOM     10  N   UNL     1       2.768  -0.481  -3.678  0.00  0.00    -0.308 N 
ATOM     11  C   UNL     1       4.015   0.024  -3.763  0.00  0.00    +0.239 C 
ATOM     12  O   UNL     1       4.750  -0.009  -2.799  0.00  0.00    -0.273 OA
ATOM     13  H   UNL     1       2.180  -0.455  -4.449  0.00  0.00    +0.149 HD
BRANCH  10  14
ATOM     14  C   UNL     1       2.300  -1.067  -2.420  0.00  0.00    +0.030 C 
ATOM     15  C   UNL     1       2.642  -0.129  -1.260  0.00  0.00    +0.031 C 
ATOM     16  C   UNL     1       2.985  -2.418  -2.201  0.00  0.00    +0.031 C 
BRANCH  14  17
ATOM     17  C   UNL     1       0.784  -1.268  -2.483  0.00  0.00    +0.031 C 
BRANCH  17  19
ATOM     18  C   UNL     1       0.217  -0.232  -4.685  0.00  0.00    +0.010 C 
ATOM     19  C   UNL     1       0.138  -0.061  -3.166  0.00  0.00    -0.036 C 
ATOM     20  C   UNL     1       0.879   1.213  -2.757  0.00  0.00    +0.010 C 
ATOM     21  C   UNL     1      -1.327   0.042  -2.740  0.00  0.00    +0.010 C 
ENDBRANCH  17  19
ENDBRANCH  14  17
ENDBRANCH  10  14
ENDBRANCH   1  11
BRANCH   1  22
ATOM     22  N   UNL     1       5.910   0.990  -4.930  0.00  0.00    -0.281 N 
ATOM     23  C   UNL     1       6.797   0.092  -4.457  0.00  0.00    +0.221 C 
ATOM     24  O   UNL     1       6.410  -0.975  -4.030  0.00  0.00    -0.275 OA
BRANCH  22  25
ATOM     25  C   UNL     1       6.360   2.330  -5.318  0.00  0.00    +0.030 C 
ATOM     26  C   UNL     1       5.244   3.040  -6.087  0.00  0.00    +0.031 C 
ATOM     27  C   UNL     1       6.708   3.134  -4.064  0.00  0.00    +0.031 C 
ATOM     28  C   UNL     1       7.598   2.213  -6.209  0.00  0.00    +0.031 C 
ENDBRANCH  22  25
BRANCH  23  29
ATOM     29  C   UNL     1       8.269   0.415  -4.458  0.00  0.00    +0.131 C 
BRANCH  29  30
ATOM     30  C   UNL     1       9.024  -0.683  -3.753  0.00  0.00    -0.039 A 
ATOM     31  C   UNL     1       9.239  -0.609  -2.390  0.00  0.00    +0.005 A 
ATOM     32  C   UNL     1       9.931  -1.616  -1.743  0.00  0.00    +0.015 A 
ATOM     33  C   UNL     1      10.408  -2.698  -2.461  0.00  0.00    +0.018 A 
ATOM     34  C   UNL     1      10.193  -2.772  -3.825  0.00  0.00    +0.015 A 
ATOM     35  C   UNL     1       9.496  -1.767  -4.470  0.00  0.00    +0.005 A 
ATOM     36 BR   UNL     1      11.355  -4.075  -1.577  0.00  0.00    -0.050 Br
ENDBRANCH  29  30
ENDBRANCH  23  29
ENDBRANCH   1  22
TORSDOF 10
