REMARK  Name = ZINC67447349
REMARK  7 active torsions:
REMARK  status: ('A' for Active; 'I' for Inactive)
REMARK    1  A    between atoms: C_1  and  C_2
REMARK    2  A    between atoms: C_2  and  C_4
REMARK    3  A    between atoms: C_2  and  N_23
REMARK    4  A    between atoms: C_8  and  C_10
REMARK    5  A    between atoms: C_17  and  C_19
REMARK    6  A    between atoms: N_23  and  C_24
REMARK    7  A    between atoms: N_23  and  C_25
REMARK                            x       y       z     vdW  Elec       q    Type
REMARK                         _______ _______ _______ _____ _____    ______ ____
ROOT
ATOM      1  C   UNL     1      -3.936  -1.906  -2.407  0.00  0.00    +0.026 A 
ATOM      2  C   UNL     1      -3.897  -1.108  -3.544  0.00  0.00    +0.032 A 
ATOM      3  C   UNL     1      -4.485  -1.534  -4.726  0.00  0.00    +0.042 A 
ATOM      4  C   UNL     1      -5.118  -2.756  -4.790  0.00  0.00    +0.031 A 
ATOM      5  C   UNL     1      -5.168  -3.573  -3.656  0.00  0.00    +0.023 A 
ATOM      6  C   UNL     1      -4.569  -3.154  -2.455  0.00  0.00    +0.144 A 
ATOM      7  O   UNL     1      -4.759  -4.125  -1.542  0.00  0.00    -0.447 OA
ATOM      8  C   UNL     1      -5.443  -5.160  -2.076  0.00  0.00    +0.217 A 
ATOM      9  C   UNL     1      -5.740  -4.889  -3.377  0.00  0.00    +0.065 A 
ATOM     10 CL   UNL     1      -4.424  -0.520  -6.134  0.00  0.00    -0.084 Cl
ENDROOT
BRANCH   1  15
ATOM     11  C   UNL     1      -1.412  -0.526   0.013  0.00  0.00    -0.061 A 
ATOM     12  C   UNL     1      -2.122  -0.570   1.199  0.00  0.00    +0.002 A 
ATOM     13  C   UNL     1      -3.420  -1.048   1.216  0.00  0.00    +0.001 A 
ATOM     14  C   UNL     1      -4.014  -1.483   0.049  0.00  0.00    +0.008 A 
ATOM     15  C   UNL     1      -3.303  -1.440  -1.149  0.00  0.00    -0.014 A 
ATOM     16  C   UNL     1      -1.997  -0.953  -1.162  0.00  0.00    +0.010 A 
BRANCH  11  18
ATOM     17  C   UNL     1      -0.019   1.526   0.010  0.00  0.00    -0.008 C 
ATOM     18  C   UNL     1       0.002  -0.004   0.002  0.00  0.00    -0.042 C 
BRANCH  18  19
ATOM     19  N   UNL     1       0.713  -0.491   1.192  0.00  0.00    +0.380 N 
ATOM     20  C   UNL     1       0.733  -1.960   1.184  0.00  0.00    -0.096 C 
ATOM     21  C   UNL     1       2.091   0.018   1.182  0.00  0.00    -0.096 C 
ATOM     22  H   UNL     1       0.240  -0.165   2.022  0.00  0.00    -0.082 HD
ENDBRANCH  18  19
ENDBRANCH  11  18
ENDBRANCH   1  15
BRANCH   8  23
ATOM     23  C   UNL     1      -5.820  -6.382  -1.361  0.00  0.00    +0.421 C 
ATOM     24  O   UNL     1      -6.441  -7.263  -1.940  0.00  0.00    -0.237 OA
ATOM     25  O   UNL     1      -5.513  -6.521  -0.184  0.00  0.00    -0.237 OA
ENDBRANCH   8  23
TORSDOF 4
