REMARK  Name = ZINC09138047
REMARK  9 active torsions:
REMARK  status: ('A' for Active; 'I' for Inactive)
REMARK    1  A    between atoms: C_1  and  C_2
REMARK    2  A    between atoms: C_5  and  C_8
REMARK    3  A    between atoms: C_8  and  N_9
REMARK    4  A    between atoms: C_10  and  C_12
REMARK    5  A    between atoms: N_14  and  C_15
REMARK    6  A    between atoms: C_15  and  C_16
REMARK    7  A    between atoms: C_16  and  C_18
REMARK    8  A    between atoms: C_16  and  N_69
REMARK    9  A    between atoms: N_27  and  C_28
REMARK                            x       y       z     vdW  Elec       q    Type
REMARK                         _______ _______ _______ _____ _____    ______ ____
ROOT
ATOM      1  C   UNL     1       3.213  -2.375   4.250  0.00  0.00    -0.020 C 
ENDROOT
BRANCH   1   2
ATOM      2  C   UNL     1       2.555  -1.809   3.018  0.00  0.00    -0.059 A 
ATOM      3  C   UNL     1       1.710  -2.598   2.259  0.00  0.00    +0.004 A 
ATOM      4  C   UNL     1       1.112  -2.078   1.131  0.00  0.00    +0.023 A 
ATOM      5  C   UNL     1       1.353  -0.758   0.747  0.00  0.00    +0.033 A 
ATOM      6  C   UNL     1       2.196   0.028   1.512  0.00  0.00    -0.026 A 
ATOM      7  C   UNL     1       2.796  -0.502   2.644  0.00  0.00    +0.007 A 
ATOM      8  C   UNL     1       2.490   1.464   1.159  0.00  0.00    +0.038 C 
ATOM      9  C   UNL     1       2.063   1.737  -0.285  0.00  0.00    +0.024 C 
ATOM     10  C   UNL     1       0.652   1.167  -0.476  0.00  0.00    +0.105 C 
ATOM     11  N   UNL     1       0.723  -0.294  -0.407  0.00  0.00    -0.333 N 
ATOM     12  C   UNL     1      -0.610  -0.894  -0.556  0.00  0.00    +0.129 C 
ENDBRANCH   1   2
BRANCH   1  18
ATOM     13  C   UNL     1       1.049  -2.461   5.332  0.00  0.00    -0.078 C 
ATOM     14  C   UNL     1       0.015  -3.404   5.951  0.00  0.00    -0.019 C 
ATOM     15  C   UNL     1       0.614  -4.065   7.195  0.00  0.00    -0.004 C 
ATOM     16  C   UNL     1       1.893  -4.810   6.801  0.00  0.00    -0.019 C 
ATOM     17  C   UNL     1       2.873  -3.826   6.158  0.00  0.00    -0.078 C 
ATOM     18  N   UNL     1       2.245  -3.243   4.953  0.00  0.00    +0.385 N 
ATOM     19  H   UNL     1       1.961  -4.003   4.324  0.00  0.00    -0.081 HD
ENDBRANCH   1  18
BRANCH   1  20
ATOM     20  C   UNL     1       4.425  -3.215   3.841  0.00  0.00    +0.094 C 
BRANCH  20  23
ATOM     21  C   UNL     1       6.611  -2.862   2.824  0.00  0.00    +0.299 C 
ATOM     22  O   UNL     1       6.863  -4.031   3.031  0.00  0.00    -0.265 OA
ATOM     23  N   UNL     1       5.417  -2.355   3.191  0.00  0.00    -0.309 N 
ATOM     24  H   UNL     1       5.215  -1.421   3.025  0.00  0.00    +0.149 HD
BRANCH  21  26
ATOM     25  N   UNL     1       8.817  -2.492   1.793  0.00  0.00    -0.303 N 
ATOM     26  C   UNL     1       7.623  -1.985   2.161  0.00  0.00    +0.299 C 
ATOM     27  O   UNL     1       7.371  -0.816   1.953  0.00  0.00    -0.265 OA
ATOM     28  H   UNL     1       9.019  -3.426   1.959  0.00  0.00    +0.149 HD
BRANCH  25  29
ATOM     29  C   UNL     1       9.809  -1.633   1.144  0.00  0.00    +0.140 C 
BRANCH  29  34
ATOM     30  C   UNL     1      14.554  -4.714  -0.031  0.00  0.00    +0.044 C 
ATOM     31  C   UNL     1      13.317  -3.910   0.275  0.00  0.00    -0.050 A 
ATOM     32  C   UNL     1      12.297  -3.830  -0.654  0.00  0.00    +0.003 A 
ATOM     33  C   UNL     1      11.162  -3.093  -0.374  0.00  0.00    +0.005 A 
ATOM     34  C   UNL     1      11.047  -2.436   0.837  0.00  0.00    -0.030 A 
ATOM     35  C   UNL     1      12.068  -2.513   1.765  0.00  0.00    +0.005 A 
ATOM     36  C   UNL     1      13.201  -3.254   1.486  0.00  0.00    +0.003 A 
ENDBRANCH  29  34
ENDBRANCH  25  29
ENDBRANCH  21  26
ENDBRANCH  20  23
ENDBRANCH   1  20
TORSDOF 7
