REMARK  Name = ZINC54949730
REMARK  9 active torsions:
REMARK  status: ('A' for Active; 'I' for Inactive)
REMARK    1  A    between atoms: C_1  and  C_2
REMARK    2  A    between atoms: C_5  and  C_7
REMARK    3  A    between atoms: C_7  and  C_9
REMARK    4  A    between atoms: C_7  and  N_10
REMARK    5  A    between atoms: C_11  and  C_13
REMARK    6  A    between atoms: N_15  and  C_16
REMARK    7  A    between atoms: C_19  and  C_22
REMARK    8  A    between atoms: C_22  and  N_23
REMARK    9  A    between atoms: C_26  and  C_29
REMARK                            x       y       z     vdW  Elec       q    Type
REMARK                         _______ _______ _______ _____ _____    ______ ____
ROOT
ATOM      1  C   UNL     1       3.701  -7.636  -2.236  0.00  0.00    +0.303 C 
ATOM      2  O   UNL     1       4.343  -8.663  -2.311  0.00  0.00    -0.265 OA
ATOM      3  N   UNL     1       4.058  -6.562  -2.968  0.00  0.00    -0.278 N 
ATOM      4  H   UNL     1       3.507  -5.764  -2.959  0.00  0.00    +0.155 HD
ENDROOT
BRANCH   3   5
ATOM      5  C   UNL     1       5.222  -6.599  -3.740  0.00  0.00    +0.034 A 
ATOM      6  C   UNL     1       5.995  -5.455  -3.888  0.00  0.00    +0.023 A 
ATOM      7  C   UNL     1       7.145  -5.495  -4.652  0.00  0.00    +0.003 A 
ATOM      8  C   UNL     1       7.527  -6.672  -5.269  0.00  0.00    -0.064 A 
ATOM      9  C   UNL     1       6.759  -7.813  -5.124  0.00  0.00    +0.003 A 
ATOM     10  C   UNL     1       5.611  -7.782  -4.357  0.00  0.00    +0.023 A 
BRANCH   8  11
ATOM     11  C   UNL     1       8.782  -6.711  -6.102  0.00  0.00    -0.043 C 
BRANCH  11  12
ATOM     12  N   UNL     1       9.923  -7.074  -5.251  0.00  0.00    +0.382 N 
ATOM     13  C   UNL     1       9.739  -8.440  -4.745  0.00  0.00    -0.078 C 
ATOM     14  C   UNL     1      10.884  -8.794  -3.794  0.00  0.00    -0.016 C 
ATOM     15  C   UNL     1      12.214  -8.702  -4.548  0.00  0.00    -0.018 C 
ATOM     16  C   UNL     1      12.361  -7.295  -5.134  0.00  0.00    -0.016 C 
ATOM     17  C   UNL     1      11.161  -6.996  -6.036  0.00  0.00    -0.078 C 
ATOM     18  C   UNL     1      13.369  -8.977  -3.583  0.00  0.00    +0.007 C 
ATOM     19  H   UNL     1       9.978  -6.434  -4.473  0.00  0.00    -0.081 HD
ENDBRANCH  11  12
ENDBRANCH   8  11
ENDBRANCH   3   5
BRANCH   1  21
ATOM     20  N   UNL     1       2.158  -8.636  -0.599  0.00  0.00    -0.301 N 
ATOM     21  C   UNL     1       2.515  -7.562  -1.331  0.00  0.00    +0.300 C 
ATOM     22  O   UNL     1       1.873  -6.535  -1.255  0.00  0.00    -0.265 OA
ATOM     23  H   UNL     1       2.671  -9.456  -0.659  0.00  0.00    +0.150 HD
BRANCH  20  24
ATOM     24  C   UNL     1       0.995  -8.563   0.289  0.00  0.00    +0.107 C 
ATOM     25  C   UNL     1      -0.275  -8.868  -0.509  0.00  0.00    +0.033 C 
BRANCH  24  30
ATOM     26  C   UNL     1       1.919 -12.948   3.754  0.00  0.00    +0.051 C 
ATOM     27  C   UNL     1       1.585 -11.659   3.048  0.00  0.00    -0.013 A 
ATOM     28  C   UNL     1       1.065 -10.516   3.558  0.00  0.00    +0.011 A 
ATOM     29  C   UNL     1       0.840  -9.446   2.713  0.00  0.00    +0.013 A 
ATOM     30  C   UNL     1       1.145  -9.572   1.398  0.00  0.00    +0.010 A 
ATOM     31  S   UNL     1       1.779 -11.239   1.324  0.00  0.00    -0.097 S 
ENDBRANCH  24  30
ENDBRANCH  20  24
ENDBRANCH   1  21
TORSDOF 6
