REMARK  Name = ZINC08919543
REMARK  10 active torsions:
REMARK  status: ('A' for Active; 'I' for Inactive)
REMARK    1  A    between atoms: C_1  and  C_2
REMARK    2  A    between atoms: C_2  and  C_3
REMARK    3  A    between atoms: C_3  and  C_4
REMARK    4  A    between atoms: C_3  and  C_5
REMARK    5  A    between atoms: C_3  and  C_6
REMARK    6  A    between atoms: C_15  and  O_30
REMARK    7  A    between atoms: C_17  and  C_20
REMARK    8  A    between atoms: C_24  and  O_27
REMARK    9  A    between atoms: C_25  and  O_26
REMARK   10  A    between atoms: O_27  and  C_28
REMARK                            x       y       z     vdW  Elec       q    Type
REMARK                         _______ _______ _______ _____ _____    ______ ____
ROOT
ATOM      1  C   UNL     1      -0.735   2.019   1.269  0.00  0.00    -0.000 C 
ATOM      2  C   UNL     1      -0.757   3.550   1.280  0.00  0.00    +0.009 C 
ATOM      3  C   UNL     1      -1.244   4.053   2.640  0.00  0.00    +0.037 C 
ATOM      4  C   UNL     1      -2.567   3.373   2.971  0.00  0.00    -0.023 A 
ATOM      5  C   UNL     1      -2.942   2.239   2.334  0.00  0.00    -0.004 A 
ATOM      6  S   UNL     1      -4.519   1.824   3.030  0.00  0.00    -0.078 S 
ATOM      7  C   UNL     1      -4.673   3.123   4.133  0.00  0.00    +0.080 A 
ATOM      8  C   UNL     1      -3.501   3.871   3.965  0.00  0.00    +0.068 A 
ATOM      9  C   UNL     1      -3.347   5.090   4.801  0.00  0.00    +0.220 C 
ATOM     10  N   UNL     1      -4.194   5.268   5.777  0.00  0.00    -0.223 NA
ATOM     11  C   UNL     1      -5.223   4.313   6.168  0.00  0.00    +0.227 C 
ATOM     12  N   UNL     1      -5.652   3.478   5.030  0.00  0.00    -0.313 N 
ATOM     13  C   UNL     1      -2.181   1.504   1.274  0.00  0.00    +0.046 C 
ATOM     14  H   UNL     1      -6.573   3.196   4.920  0.00  0.00    +0.149 HD
ENDROOT
BRANCH  11  15
ATOM     15  C   UNL     1      -4.679   3.420   7.253  0.00  0.00    +0.041 A 
ATOM     16  C   UNL     1      -5.061   2.092   7.313  0.00  0.00    +0.026 A 
ATOM     17  C   UNL     1      -4.560   1.269   8.304  0.00  0.00    +0.022 A 
ATOM     18  C   UNL     1      -3.682   1.774   9.247  0.00  0.00    +0.064 A 
ATOM     19  C   UNL     1      -3.299   3.104   9.195  0.00  0.00    +0.163 A 
ATOM     20  C   UNL     1      -3.800   3.931   8.194  0.00  0.00    +0.165 A 
ATOM     21 BR   UNL     1      -5.081  -0.547   8.377  0.00  0.00    -0.050 Br
BRANCH  20  22
ATOM     22  O   UNL     1      -3.428   5.238   8.140  0.00  0.00    -0.503 OA
ATOM     23  H   UNL     1      -4.001   5.832   8.643  0.00  0.00    +0.292 HD
ENDBRANCH  20  22
BRANCH  19  24
ATOM     24  O   UNL     1      -2.436   3.601  10.121  0.00  0.00    -0.491 OA
ATOM     25  C   UNL     1      -1.962   2.695  11.120  0.00  0.00    +0.277 C 
ENDBRANCH  19  24
ENDBRANCH  11  15
BRANCH   1  26
ATOM     26  C   UNL     1      -0.019   1.526   0.010  0.00  0.00    -0.032 C 
ATOM     27  C   UNL     1       1.417   2.055  -0.000  0.00  0.00    +0.011 C 
ATOM     28  C   UNL     1      -0.759   2.033  -1.229  0.00  0.00    +0.011 C 
BRANCH  26  30
ATOM     29  C   UNL     1       0.718  -0.497  -1.257  0.00  0.00    +0.004 C 
ATOM     30  C   UNL     1       0.002  -0.004   0.002  0.00  0.00    +0.003 C 
ENDBRANCH  26  30
ENDBRANCH   1  26
BRANCH   9  31
ATOM     31  O   UNL     1      -2.361   5.984   4.558  0.00  0.00    -0.492 OA
ATOM     32  H   UNL     1      -2.356   6.738   5.164  0.00  0.00    +0.294 HD
ENDBRANCH   9  31
TORSDOF 6
