REMARK  Name = ZINC59462451
REMARK  9 active torsions:
REMARK  status: ('A' for Active; 'I' for Inactive)
REMARK    1  A    between atoms: C_1  and  N_2
REMARK    2  A    between atoms: C_6  and  S_7
REMARK    3  A    between atoms: S_7  and  C_8
REMARK    4  A    between atoms: C_11  and  C_17
REMARK    5  A    between atoms: C_13  and  N_14
REMARK    6  A    between atoms: N_18  and  C_19
REMARK    7  A    between atoms: C_26  and  S_28
REMARK    8  A    between atoms: S_28  and  C_29
REMARK    9  A    between atoms: C_29  and  C_30
REMARK                            x       y       z     vdW  Elec       q    Type
REMARK                         _______ _______ _______ _____ _____    ______ ____
ROOT
ATOM      1  C   UNL     1       0.265  -5.082   6.285  0.00  0.00    +0.119 C 
ATOM      2  N   UNL     1       0.372  -6.283   5.753  0.00  0.00    -0.255 NA
ENDROOT
BRANCH   2   3
ATOM      3  C   UNL     1       0.425  -7.363   6.544  0.00  0.00    +0.065 A 
ATOM      4  C   UNL     1       1.248  -7.363   7.696  0.00  0.00    +0.030 A 
ATOM      5  C   UNL     1       1.327  -8.431   8.514  0.00  0.00    +0.031 A 
ATOM      6  C   UNL     1       0.571  -9.615   8.243  0.00  0.00    +0.080 A 
ATOM      7  C   UNL     1      -0.278  -9.587   7.038  0.00  0.00    +0.042 A 
ATOM      8  C   UNL     1      -0.348  -8.510   6.236  0.00  0.00    +0.045 A 
ATOM      9  S   UNL     1      -1.019 -11.201   7.074  0.00  0.00    -0.061 S 
ATOM     10  C   UNL     1      -0.226 -11.781   8.567  0.00  0.00    +0.136 A 
ATOM     11  N   UNL     1       0.524 -10.747   8.928  0.00  0.00    -0.233 NA
BRANCH  10  12
ATOM     12  S   UNL     1      -0.398 -13.343   9.364  0.00  0.00    -0.094 S 
BRANCH  12  13
ATOM     13  C   UNL     1       0.694 -13.221  10.808  0.00  0.00    +0.111 C 
BRANCH  13  14
ATOM     14  C   UNL     1       0.640 -14.509  11.589  0.00  0.00    -0.037 A 
ATOM     15  C   UNL     1      -0.296 -14.670  12.593  0.00  0.00    +0.004 A 
ATOM     16  C   UNL     1      -0.345 -15.851  13.309  0.00  0.00    +0.000 A 
ATOM     17  C   UNL     1       0.541 -16.872  13.020  0.00  0.00    +0.000 A 
ATOM     18  C   UNL     1       1.477 -16.711  12.016  0.00  0.00    +0.000 A 
ATOM     19  C   UNL     1       1.524 -15.531  11.297  0.00  0.00    +0.004 A 
ENDBRANCH  13  14
ENDBRANCH  12  13
ENDBRANCH  10  12
ENDBRANCH   2   3
BRANCH   1  23
ATOM     20  C   UNL     1       0.101  -1.712   3.817  0.00  0.00    +0.046 A 
ATOM     21  C   UNL     1       0.216  -2.994   3.249  0.00  0.00    +0.018 A 
ATOM     22  C   UNL     1       0.270  -4.090   4.048  0.00  0.00    +0.010 A 
ATOM     23  C   UNL     1       0.209  -3.943   5.451  0.00  0.00    -0.005 A 
ATOM     24  C   UNL     1       0.093  -2.656   6.019  0.00  0.00    +0.043 A 
ATOM     25  C   UNL     1       0.046  -1.562   5.215  0.00  0.00    +0.141 A 
BRANCH  25  26
ATOM     26  N   UNL     1      -0.070  -0.212   5.809  0.00  0.00    +0.058 N 
ATOM     27  O   UNL     1      -0.121  -0.070   7.118  0.00  0.00    -0.126 OA
ATOM     28  O   UNL     1      -0.121   0.849   5.030  0.00  0.00    -0.126 OA
ENDBRANCH  25  26
BRANCH  20  29
ATOM     29  S   UNL     1       0.032  -0.292   2.777  0.00  0.00    -0.049 S 
BRANCH  29  35
ATOM     30  C   UNL     1      -1.474   2.289   1.436  0.00  0.00    +0.151 C 
ATOM     31  N   UNL     1      -2.207   1.264   2.183  0.00  0.00    -0.328 N 
ATOM     32  C   UNL     1      -3.550   1.232   2.410  0.00  0.00    +0.107 A 
ATOM     33  C   UNL     1      -3.803   0.097   3.149  0.00  0.00    +0.131 A 
ATOM     34  N   UNL     1      -2.649  -0.527   3.354  0.00  0.00    -0.230 NA
ATOM     35  C   UNL     1      -1.673   0.154   2.777  0.00  0.00    +0.173 A 
ENDBRANCH  29  35
ENDBRANCH  20  29
ENDBRANCH   1  23
TORSDOF 8
