REMARK  Name = ZINC63798221
REMARK  10 active torsions:
REMARK  status: ('A' for Active; 'I' for Inactive)
REMARK    1  A    between atoms: C_1  and  O_2
REMARK    2  A    between atoms: O_2  and  C_3
REMARK    3  A    between atoms: C_6  and  C_9
REMARK    4  A    between atoms: C_9  and  C_11
REMARK    5  A    between atoms: C_9  and  C_26
REMARK    6  A    between atoms: C_11  and  N_12
REMARK    7  A    between atoms: N_12  and  C_13
REMARK    8  A    between atoms: C_16  and  S_22
REMARK    9  A    between atoms: C_18  and  N_19
REMARK   10  A    between atoms: S_22  and  C_25
REMARK                            x       y       z     vdW  Elec       q    Type
REMARK                         _______ _______ _______ _____ _____    ______ ____
ROOT
ATOM      1  C   UNL     1      -4.801  -3.493  -0.492  0.00  0.00    +0.064 C 
ENDROOT
BRANCH   1   2
ATOM      2  C   UNL     1      -5.097  -4.507  -1.566  0.00  0.00    -0.033 C 
ATOM      3  C   UNL     1      -6.066  -4.435  -2.507  0.00  0.00    -0.000 A 
ATOM      4  C   UNL     1      -7.095  -3.430  -2.801  0.00  0.00    +0.010 A 
ATOM      5  C   UNL     1      -7.943  -3.642  -3.832  0.00  0.00    +0.001 A 
ATOM      6  C   UNL     1      -7.866  -4.794  -4.626  0.00  0.00    +0.002 A 
ATOM      7  C   UNL     1      -6.948  -5.762  -4.418  0.00  0.00    +0.026 A 
ATOM      8  C   UNL     1      -6.005  -5.643  -3.361  0.00  0.00    +0.043 A 
ATOM      9  N   UNL     1      -5.036  -6.431  -2.963  0.00  0.00    -0.380 N 
ATOM     10  C   UNL     1      -4.368  -5.809  -1.814  0.00  0.00    +0.145 C 
ATOM     11  H   UNL     1      -4.797  -7.282  -3.363  0.00  0.00    +0.160 HD
ENDBRANCH   1   2
BRANCH   1  15
ATOM     12  C   UNL     1      -0.809  -2.042  -0.966  0.00  0.00    +0.120 A 
ATOM     13  C   UNL     1      -1.880  -1.163  -1.031  0.00  0.00    +0.046 A 
ATOM     14  C   UNL     1      -3.169  -1.635  -0.878  0.00  0.00    +0.008 A 
ATOM     15  C   UNL     1      -3.393  -2.981  -0.659  0.00  0.00    -0.038 A 
ATOM     16  C   UNL     1      -2.327  -3.860  -0.593  0.00  0.00    +0.008 A 
ATOM     17  C   UNL     1      -1.036  -3.394  -0.752  0.00  0.00    +0.046 A 
BRANCH  12  19
ATOM     18  C   UNL     1       0.620  -0.178  -1.333  0.00  0.00    +0.277 C 
ATOM     19  O   UNL     1       0.461  -1.581  -1.116  0.00  0.00    -0.495 OA
ENDBRANCH  12  19
ENDBRANCH   1  15
BRANCH   1  20
ATOM     20  C   UNL     1      -4.945  -4.149   0.883  0.00  0.00    +0.114 C 
BRANCH  20  21
ATOM     21  N   UNL     1      -6.341  -4.539   1.093  0.00  0.00    -0.341 N 
ATOM     22  H   UNL     1      -7.003  -4.365   0.405  0.00  0.00    +0.146 HD
BRANCH  21  23
ATOM     23  C   UNL     1      -6.721  -5.161   2.285  0.00  0.00    +0.058 A 
ATOM     24  C   UNL     1      -5.758  -5.520   3.220  0.00  0.00    +0.027 A 
ATOM     25  C   UNL     1      -6.136  -6.135   4.397  0.00  0.00    +0.029 A 
ATOM     26  C   UNL     1      -7.472  -6.392   4.646  0.00  0.00    +0.090 A 
ATOM     27  C   UNL     1      -8.433  -6.036   3.718  0.00  0.00    +0.061 A 
ATOM     28  C   UNL     1      -8.062  -5.416   2.541  0.00  0.00    +0.149 A 
BRANCH  26  29
ATOM     29  S   UNL     1      -7.950  -7.176   6.150  0.00  0.00    -0.006 S 
ATOM     30  O   UNL     1      -9.177  -7.826   5.846  0.00  0.00    -0.170 OA
ATOM     31  O   UNL     1      -6.811  -7.928   6.545  0.00  0.00    -0.170 OA
ATOM     32  C   UNL     1      -8.236  -5.816   7.315  0.00  0.00    +0.200 C 
ENDBRANCH  26  29
BRANCH  28  33
ATOM     33  N   UNL     1      -9.091  -5.030   1.551  0.00  0.00    +0.058 N 
ATOM     34  O   UNL     1      -8.977  -3.999   0.930  0.00  0.00    -0.126 OA
ATOM     35  O   UNL     1     -10.047  -5.745   1.362  0.00  0.00    -0.126 OA
ENDBRANCH  28  33
ENDBRANCH  21  23
ENDBRANCH  20  21
ENDBRANCH   1  20
TORSDOF 8
