REMARK  Name = ZINC23408941
REMARK  12 active torsions:
REMARK  status: ('A' for Active; 'I' for Inactive)
REMARK    1  A    between atoms: C_1  and  C_2
REMARK    2  A    between atoms: C_7  and  C_8
REMARK    3  A    between atoms: C_8  and  C_10
REMARK    4  A    between atoms: C_8  and  O_16
REMARK    5  A    between atoms: O_16  and  C_17
REMARK    6  A    between atoms: C_17  and  C_18
REMARK    7  A    between atoms: C_18  and  C_20
REMARK    8  A    between atoms: C_18  and  O_30
REMARK    9  A    between atoms: C_20  and  N_21
REMARK   10  A    between atoms: N_21  and  C_22
REMARK   11  A    between atoms: N_21  and  C_23
REMARK   12  A    between atoms: N_26  and  C_29
REMARK                            x       y       z     vdW  Elec       q    Type
REMARK                         _______ _______ _______ _____ _____    ______ ____
ROOT
ATOM      1  O   UNL     1      -0.469  -0.266   4.015  0.00  0.00    -0.365 OA
ENDROOT
BRANCH   1   2
ATOM      2  C   UNL     1       0.085   0.686   3.106  0.00  0.00    +0.179 C 
BRANCH   2   9
ATOM      3  C   UNL     1       0.159   2.261   0.685  0.00  0.00    +0.044 C 
ATOM      4  C   UNL     1       0.387   0.773   0.623  0.00  0.00    -0.044 A 
ATOM      5  C   UNL     1       0.636   0.162  -0.592  0.00  0.00    +0.004 A 
ATOM      6  C   UNL     1       0.845  -1.203  -0.649  0.00  0.00    +0.000 A 
ATOM      7  C   UNL     1       0.805  -1.957   0.508  0.00  0.00    +0.000 A 
ATOM      8  C   UNL     1       0.556  -1.347   1.723  0.00  0.00    +0.007 A 
ATOM      9  C   UNL     1       0.351   0.019   1.781  0.00  0.00    -0.012 A 
ENDBRANCH   2   9
BRANCH   2  10
ATOM     10  C   UNL     1       1.377   1.223   3.666  0.00  0.00    -0.014 A 
ATOM     11  C   UNL     1       2.260   0.373   4.305  0.00  0.00    +0.006 A 
ATOM     12  C   UNL     1       3.445   0.865   4.819  0.00  0.00    +0.000 A 
ATOM     13  C   UNL     1       3.747   2.208   4.694  0.00  0.00    +0.000 A 
ATOM     14  C   UNL     1       2.864   3.059   4.055  0.00  0.00    +0.000 A 
ATOM     15  C   UNL     1       1.681   2.566   3.537  0.00  0.00    +0.006 A 
ENDBRANCH   2  10
ENDBRANCH   1   2
BRANCH   1  16
ATOM     16  C   UNL     1      -1.896  -0.337   3.985  0.00  0.00    +0.193 C 
BRANCH  16  17
ATOM     17  C   UNL     1      -2.377  -1.383   4.993  0.00  0.00    +0.154 C 
BRANCH  17  18
ATOM     18  O   UNL     1      -1.925  -2.677   4.588  0.00  0.00    -0.388 OA
ATOM     19  H   UNL     1      -2.246  -2.951   3.718  0.00  0.00    +0.210 HD
ENDBRANCH  17  18
BRANCH  17  20
ATOM     20  C   UNL     1      -3.906  -1.371   5.050  0.00  0.00    +0.118 C 
BRANCH  20  21
ATOM     21  N   UNL     1      -4.362  -2.265   6.122  0.00  0.00    -0.300 NA
ATOM     22  C   UNL     1      -4.261  -3.672   5.713  0.00  0.00    +0.105 C 
BRANCH  21  23
ATOM     23  C   UNL     1      -5.732  -1.934   6.536  0.00  0.00    +0.053 C 
ATOM     24  C   UNL     1      -5.776  -0.494   7.057  0.00  0.00    +0.000 C 
ATOM     25  C   UNL     1      -7.187  -0.182   7.560  0.00  0.00    -0.078 C 
ATOM     26  N   UNL     1      -7.540  -1.108   8.644  0.00  0.00    +0.378 N 
ATOM     27  C   UNL     1      -7.570  -2.484   8.134  0.00  0.00    -0.078 C 
ATOM     28  C   UNL     1      -6.174  -2.884   7.653  0.00  0.00    +0.000 C 
ATOM     29  C   UNL     1      -8.864  -0.755   9.175  0.00  0.00    -0.096 C 
ATOM     30  H   UNL     1      -6.855  -1.038   9.381  0.00  0.00    -0.082 HD
ENDBRANCH  21  23
ENDBRANCH  20  21
ENDBRANCH  17  20
ENDBRANCH  16  17
ENDBRANCH   1  16
TORSDOF 9
