REMARK  Name = ZINC05956752
REMARK  9 active torsions:
REMARK  status: ('A' for Active; 'I' for Inactive)
REMARK    1  A    between atoms: C_1  and  C_2
REMARK    2  A    between atoms: C_5  and  S_8
REMARK    3  A    between atoms: S_8  and  N_11
REMARK    4  A    between atoms: N_11  and  N_12
REMARK    5  A    between atoms: N_12  and  C_13
REMARK    6  A    between atoms: C_15  and  C_37
REMARK    7  A    between atoms: C_17  and  C_29
REMARK    8  A    between atoms: C_32  and  O_35
REMARK    9  A    between atoms: O_35  and  C_36
REMARK                            x       y       z     vdW  Elec       q    Type
REMARK                         _______ _______ _______ _____ _____    ______ ____
ROOT
ATOM      1  C   UNL     1       0.131   4.101  -0.260  0.00  0.00    +0.261 C 
ATOM      2  C   UNL     1      -1.000   3.488   0.576  0.00  0.00    +0.055 C 
ATOM      3  C   UNL     1      -1.302   2.093   0.023  0.00  0.00    +0.060 C 
ATOM      4  C   UNL     1      -0.016   1.325  -0.149  0.00  0.00    +0.006 A 
ATOM      5  C   UNL     1      -0.075  -0.054  -0.271  0.00  0.00    +0.057 A 
ATOM      6  C   UNL     1       1.082  -0.793  -0.440  0.00  0.00    +0.167 A 
ATOM      7  C   UNL     1       2.315  -0.146  -0.488  0.00  0.00    +0.170 A 
ATOM      8  C   UNL     1       2.373   1.231  -0.365  0.00  0.00    +0.095 A 
ATOM      9  C   UNL     1       1.207   1.970  -0.193  0.00  0.00    +0.130 A 
ATOM     10  O   UNL     1       1.310   3.320  -0.065  0.00  0.00    -0.472 OA
ATOM     11  O   UNL     1       3.293  -1.083  -0.661  0.00  0.00    -0.452 OA
ATOM     12  C   UNL     1       2.687  -2.340  -0.307  0.00  0.00    +0.466 C 
ATOM     13  O   UNL     1       1.289  -2.136  -0.581  0.00  0.00    -0.453 OA
ATOM     14  C   UNL     1      -0.561   3.381   2.038  0.00  0.00    +0.013 C 
ENDROOT
BRANCH   3  15
ATOM     15  C   UNL     1      -2.200   1.357   0.985  0.00  0.00    -0.039 A 
ATOM     16  C   UNL     1      -3.551   1.240   0.715  0.00  0.00    +0.008 A 
ATOM     17  C   UNL     1      -4.375   0.561   1.592  0.00  0.00    +0.046 A 
ATOM     18  C   UNL     1      -3.848   0.005   2.749  0.00  0.00    +0.120 A 
ATOM     19  C   UNL     1      -2.493   0.129   3.019  0.00  0.00    +0.046 A 
ATOM     20  C   UNL     1      -1.672   0.804   2.137  0.00  0.00    +0.008 A 
BRANCH  18  21
ATOM     21  O   UNL     1      -4.657  -0.658   3.616  0.00  0.00    -0.495 OA
ATOM     22  C   UNL     1      -6.041  -0.746   3.273  0.00  0.00    +0.277 C 
ENDBRANCH  18  21
ENDBRANCH   3  15
BRANCH   1  23
ATOM     23  N   UNL     1       0.375   5.483   0.176  0.00  0.00    -0.200 NA
ATOM     24  H   UNL     1      -0.459   5.890   0.572  0.00  0.00    +0.146 HD
BRANCH  23  25
ATOM     25  N   UNL     1       0.850   6.244  -0.855  0.00  0.00    -0.122 NA
ATOM     26  H   UNL     1       1.642   5.963  -1.340  0.00  0.00    +0.168 HD
BRANCH  25  27
ATOM     27  S   UNL     1       0.075   7.645  -1.275  0.00  0.00    +0.071 S 
ATOM     28  O   UNL     1       0.878   8.272  -2.265  0.00  0.00    -0.152 OA
ATOM     29  O   UNL     1      -1.286   7.304  -1.501  0.00  0.00    -0.152 OA
BRANCH  27  34
ATOM     30  C   UNL     1       0.168  11.254   3.560  0.00  0.00    +0.044 C 
ATOM     31  C   UNL     1       0.144  10.353   2.352  0.00  0.00    -0.050 A 
ATOM     32  C   UNL     1       1.174  10.405   1.431  0.00  0.00    +0.005 A 
ATOM     33  C   UNL     1       1.153   9.578   0.323  0.00  0.00    +0.029 A 
ATOM     34  C   UNL     1       0.102   8.699   0.137  0.00  0.00    +0.107 A 
ATOM     35  C   UNL     1      -0.930   8.651   1.055  0.00  0.00    +0.029 A 
ATOM     36  C   UNL     1      -0.906   9.474   2.166  0.00  0.00    +0.005 A 
ENDBRANCH  27  34
ENDBRANCH  25  27
ENDBRANCH  23  25
ENDBRANCH   1  23
TORSDOF 6
