REMARK  Name = ZINC37029334
REMARK  6 active torsions:
REMARK  status: ('A' for Active; 'I' for Inactive)
REMARK    1  A    between atoms: C_1  and  S_2
REMARK    2  A    between atoms: S_2  and  N_5
REMARK    3  A    between atoms: N_5  and  C_6
REMARK    4  A    between atoms: C_10  and  N_12
REMARK    5  A    between atoms: N_12  and  C_13
REMARK    6  A    between atoms: C_13  and  C_14
REMARK                            x       y       z     vdW  Elec       q    Type
REMARK                         _______ _______ _______ _____ _____    ______ ____
ROOT
ATOM      1  C   UNL     1       2.239   0.024  -1.414  0.00  0.00    +0.049 A 
ATOM      2  C   UNL     1       2.688   1.205  -0.837  0.00  0.00    +0.026 A 
ATOM      3  C   UNL     1       4.030   1.531  -0.881  0.00  0.00    +0.024 A 
ATOM      4  C   UNL     1       4.930   0.683  -1.500  0.00  0.00    +0.062 A 
ATOM      5  C   UNL     1       4.486  -0.500  -2.079  0.00  0.00    +0.048 A 
ATOM      6  C   UNL     1       3.140  -0.832  -2.031  0.00  0.00    +0.049 A 
ATOM      7 CL   UNL     1       6.615   1.097  -1.554  0.00  0.00    -0.082 Cl
ENDROOT
BRANCH   1   8
ATOM      8  N   UNL     1       0.881  -0.304  -1.369  0.00  0.00    -0.221 N 
ATOM      9  H   UNL     1       0.334  -0.215  -2.165  0.00  0.00    +0.173 HD
BRANCH   8  11
ATOM     10  C   UNL     1       1.053  -2.412   0.394  0.00  0.00    +0.218 C 
ATOM     11  S   UNL     1       0.207  -0.846   0.044  0.00  0.00    +0.040 S 
ATOM     12  O   UNL     1      -1.157  -1.086  -0.274  0.00  0.00    -0.155 OA
ATOM     13  O   UNL     1       0.564   0.131   1.013  0.00  0.00    -0.155 OA
ENDBRANCH   8  11
ENDBRANCH   1   8
BRANCH   5  14
ATOM     14  N   UNL     1       5.396  -1.357  -2.705  0.00  0.00    -0.338 N 
ATOM     15  H   UNL     1       6.338  -1.126  -2.735  0.00  0.00    +0.146 HD
BRANCH  14  16
ATOM     16  C   UNL     1       4.928  -2.604  -3.315  0.00  0.00    +0.144 C 
BRANCH  16  17
ATOM     17  C   UNL     1       6.098  -3.339  -3.917  0.00  0.00    +0.008 A 
ATOM     18  C   UNL     1       6.909  -4.262  -3.348  0.00  0.00    +0.014 A 
ATOM     19  C   UNL     1       7.932  -4.811  -4.099  0.00  0.00    +0.028 A 
ATOM     20  C   UNL     1       8.092  -4.407  -5.384  0.00  0.00    +0.078 A 
ATOM     21  S   UNL     1       6.769  -3.224  -5.567  0.00  0.00    -0.080 S 
ATOM     22 CL   UNL     1       9.274  -4.915  -6.550  0.00  0.00    -0.076 Cl
ENDBRANCH  16  17
ENDBRANCH  14  16
ENDBRANCH   5  14
TORSDOF 5
