REMARK  Name = ZINC38652310
REMARK  8 active torsions:
REMARK  status: ('A' for Active; 'I' for Inactive)
REMARK    1  A    between atoms: C_5  and  C_7
REMARK    2  A    between atoms: C_12  and  O_21
REMARK    3  A    between atoms: C_16  and  N_20
REMARK    4  A    between atoms: C_17  and  C_18
REMARK    5  A    between atoms: O_21  and  C_22
REMARK    6  A    between atoms: C_22  and  C_24
REMARK    7  A    between atoms: C_24  and  O_25
REMARK    8  A    between atoms: O_25  and  C_26
REMARK                            x       y       z     vdW  Elec       q    Type
REMARK                         _______ _______ _______ _____ _____    ______ ____
ROOT
ATOM      1  C   UNL     1       1.190  -2.224   0.014  0.00  0.00    +0.101 C 
ATOM      2  C   UNL     1       0.492  -2.716  -1.226  0.00  0.00    +0.008 A 
ATOM      3  C   UNL     1       1.104  -2.565  -2.457  0.00  0.00    +0.012 A 
ATOM      4  C   UNL     1       0.478  -3.010  -3.605  0.00  0.00    +0.047 A 
ATOM      5  C   UNL     1      -0.770  -3.612  -3.526  0.00  0.00    +0.135 A 
ATOM      6  C   UNL     1      -1.385  -3.765  -2.294  0.00  0.00    +0.093 A 
ATOM      7  C   UNL     1      -0.755  -3.316  -1.141  0.00  0.00    +0.138 A 
ATOM      8  O   UNL     1      -1.371  -3.473   0.057  0.00  0.00    -0.441 OA
ATOM      9  C   UNL     1      -0.654  -3.415   1.192  0.00  0.00    +0.199 C 
ATOM     10  C   UNL     1       0.565  -2.836   1.236  0.00  0.00    +0.098 C 
ENDROOT
BRANCH   1  15
ATOM     11  C   UNL     1      -0.282   1.246   0.227  0.00  0.00    +0.000 A 
ATOM     12  C   UNL     1       0.857   2.031   0.232  0.00  0.00    +0.003 A 
ATOM     13  C   UNL     1       2.104   1.440   0.167  0.00  0.00    +0.038 A 
ATOM     14  C   UNL     1       2.213   0.061   0.096  0.00  0.00    +0.127 A 
ATOM     15  C   UNL     1       1.073  -0.724   0.091  0.00  0.00    +0.000 A 
ATOM     16  C   UNL     1      -0.174  -0.130   0.157  0.00  0.00    +0.007 A 
ATOM     17  F   UNL     1       3.432  -0.518   0.032  0.00  0.00    -0.205 F 
ENDBRANCH   1  15
BRANCH   9  18
ATOM     18  N   UNL     1      -1.177  -3.959   2.338  0.00  0.00    -0.328 N 
ATOM     19  H   UNL     1      -2.053  -4.378   2.321  0.00  0.00    +0.145 HD
ATOM     20  H   UNL     1      -0.672  -3.925   3.166  0.00  0.00    +0.145 HD
ENDBRANCH   9  18
BRANCH  10  21
ATOM     21  C   UNL     1       1.277  -2.806   2.478  0.00  0.00    +0.101 C 
ATOM     22  N   UNL     1       1.842  -2.783   3.463  0.00  0.00    -0.191 NA
ENDBRANCH  10  21
BRANCH   5  23
ATOM     23  O   UNL     1      -1.387  -4.050  -4.654  0.00  0.00    -0.423 OA
BRANCH  23  24
ATOM     24  C   UNL     1      -2.484  -3.396  -5.067  0.00  0.00    +0.350 C 
ATOM     25  O   UNL     1      -2.835  -2.387  -4.502  0.00  0.00    -0.247 OA
BRANCH  24  26
ATOM     26  C   UNL     1      -3.278  -3.919  -6.236  0.00  0.00    +0.350 C 
BRANCH  26  27
ATOM     27  O   UNL     1      -4.391  -3.056  -6.481  0.00  0.00    -0.475 OA
BRANCH  27  28
ATOM     28  C   UNL     1      -5.216  -3.389  -7.511  0.00  0.00    +0.197 A 
ATOM     29  C   UNL     1      -4.960  -2.908  -8.788  0.00  0.00    +0.206 A 
ATOM     30  C   UNL     1      -5.801  -3.248  -9.835  0.00  0.00    +0.200 A 
ATOM     31  C   UNL     1      -6.896  -4.067  -9.609  0.00  0.00    +0.199 A 
ATOM     32  C   UNL     1      -7.151  -4.547  -8.335  0.00  0.00    +0.200 A 
ATOM     33  C   UNL     1      -6.309  -4.213  -7.286  0.00  0.00    +0.206 A 
ATOM     34  F   UNL     1      -6.556  -4.686  -6.045  0.00  0.00    -0.198 F 
ATOM     35  F   UNL     1      -8.220  -5.344  -8.115  0.00  0.00    -0.199 F 
ATOM     36  F   UNL     1      -7.714  -4.397 -10.632  0.00  0.00    -0.199 F 
ATOM     37  F   UNL     1      -5.553  -2.780 -11.079  0.00  0.00    -0.199 F 
ATOM     38  F   UNL     1      -3.893  -2.110  -9.008  0.00  0.00    -0.198 F 
ENDBRANCH  27  28
ENDBRANCH  26  27
ENDBRANCH  24  26
ENDBRANCH  23  24
ENDBRANCH   5  23
TORSDOF 8
