REMARK  Name = ZINC04485758
REMARK  7 active torsions:
REMARK  status: ('A' for Active; 'I' for Inactive)
REMARK    1  A    between atoms: C_1  and  C_2
REMARK    2  A    between atoms: C_3  and  C_25
REMARK    3  A    between atoms: C_11  and  C_13
REMARK    4  A    between atoms: C_13  and  C_15
REMARK    5  A    between atoms: C_13  and  O_16
REMARK    6  A    between atoms: O_16  and  C_17
REMARK    7  A    between atoms: C_17  and  C_19
REMARK                            x       y       z     vdW  Elec       q    Type
REMARK                         _______ _______ _______ _____ _____    ______ ____
ROOT
ATOM      1  C   UNL     1       2.262  -3.071  -0.035  0.00  0.00    +0.045 C 
ATOM      2  C   UNL     1       1.051  -2.174  -0.020  0.00  0.00    -0.026 A 
ATOM      3  C   UNL     1      -0.184  -2.701  -0.011  0.00  0.00    -0.008 A 
ATOM      4  S   UNL     1      -1.244  -1.267   0.007  0.00  0.00    -0.073 S 
ATOM      5  C   UNL     1       0.002  -0.004   0.002  0.00  0.00    +0.116 A 
ATOM      6  C   UNL     1       1.206  -0.732  -0.013  0.00  0.00    +0.075 A 
ATOM      7  C   UNL     1       2.404   0.054  -0.020  0.00  0.00    +0.260 A 
ATOM      8  O   UNL     1       3.498  -0.485  -0.034  0.00  0.00    -0.267 OA
ATOM      9  N   UNL     1       2.304   1.396  -0.012  0.00  0.00    -0.307 N 
ATOM     10  H   UNL     1       3.136   1.950  -0.016  0.00  0.00    +0.170 HD
ATOM     11  C   UNL     1       1.094   2.014   0.002  0.00  0.00    +0.152 A 
ATOM     12  N   UNL     1      -0.016   1.326   0.009  0.00  0.00    -0.223 NA
ATOM     13  C   UNL     1      -0.580  -4.155  -0.015  0.00  0.00    +0.052 C 
ENDROOT
BRANCH  11  14
ATOM     14  C   UNL     1       1.032   3.519   0.011  0.00  0.00    +0.239 C 
ATOM     15  C   UNL     1      -0.385   3.973  -0.347  0.00  0.00    +0.060 C 
BRANCH  14  16
ATOM     16  O   UNL     1       1.373   4.003   1.311  0.00  0.00    -0.448 OA
BRANCH  16  17
ATOM     17  C   UNL     1       1.964   5.214   1.379  0.00  0.00    +0.376 C 
ATOM     18  O   UNL     1       2.184   5.841   0.360  0.00  0.00    -0.241 OA
BRANCH  17  19
ATOM     19  C   UNL     1       2.341   5.772   2.678  0.00  0.00    +0.213 A 
ATOM     20  C   UNL     1       2.943   6.982   2.888  0.00  0.00    +0.058 A 
ATOM     21  C   UNL     1       3.118   7.110   4.274  0.00  0.00    +0.058 A 
ATOM     22  C   UNL     1       2.622   5.987   4.844  0.00  0.00    +0.171 A 
ATOM     23  O   UNL     1       2.150   5.187   3.879  0.00  0.00    -0.442 OA
ATOM     24 BR   UNL     1       2.592   5.614   6.697  0.00  0.00    -0.008 Br
ENDBRANCH  17  19
ENDBRANCH  16  17
ENDBRANCH  14  16
ENDBRANCH  11  14
TORSDOF 4
