REMARK  Name = ZINC20259490
REMARK  11 active torsions:
REMARK  status: ('A' for Active; 'I' for Inactive)
REMARK    1  A    between atoms: C_1  and  O_2
REMARK    2  A    between atoms: O_2  and  C_3
REMARK    3  A    between atoms: C_13  and  C_23
REMARK    4  A    between atoms: C_16  and  C_19
REMARK    5  A    between atoms: C_19  and  O_21
REMARK    6  A    between atoms: O_21  and  C_22
REMARK    7  A    between atoms: C_26  and  O_38
REMARK    8  A    between atoms: C_27  and  C_29
REMARK    9  A    between atoms: C_29  and  O_30
REMARK   10  A    between atoms: O_30  and  C_31
REMARK   11  A    between atoms: O_38  and  C_39
REMARK                            x       y       z     vdW  Elec       q    Type
REMARK                         _______ _______ _______ _____ _____    ______ ____
ROOT
ATOM      1  C   UNL     1       7.582   1.716   8.709  0.00  0.00    +0.121 A 
ATOM      2  C   UNL     1       7.200   3.027   8.451  0.00  0.00    +0.047 A 
ATOM      3  C   UNL     1       5.976   3.341   7.888  0.00  0.00    +0.030 A 
ATOM      4  C   UNL     1       5.125   2.280   7.584  0.00  0.00    +0.047 A 
ATOM      5  C   UNL     1       5.512   0.941   7.846  0.00  0.00    +0.006 A 
ATOM      6  C   UNL     1       6.755   0.642   8.415  0.00  0.00    +0.056 A 
ATOM      7  C   UNL     1       4.406   0.116   7.415  0.00  0.00    -0.021 A 
ATOM      8  C   UNL     1       3.451   0.945   6.936  0.00  0.00    +0.010 A 
ATOM      9  N   UNL     1       3.873   2.243   7.033  0.00  0.00    -0.359 N 
ATOM     10  H   UNL     1       3.370   3.178   6.747  0.00  0.00    +0.166 HD
ATOM     11  C   UNL     1       2.133   0.452   6.386  0.00  0.00    +0.008 C 
ATOM     12  N   UNL     1       2.255  -0.987   6.101  0.00  0.00    +0.396 N 
ATOM     13  C   UNL     1       2.774  -1.721   7.263  0.00  0.00    +0.045 C 
ATOM     14  C   UNL     1       4.259  -1.385   7.459  0.00  0.00    +0.033 C 
ATOM     15  H   UNL     1       1.266  -1.394   5.844  0.00  0.00    -0.083 HD
ATOM     16  H   UNL     1       2.945  -1.136   5.257  0.00  0.00    -0.083 HD
ENDROOT
BRANCH  11  17
ATOM     17  C   UNL     1       1.805   1.194   5.116  0.00  0.00    -0.055 A 
ATOM     18  C   UNL     1       2.401   0.821   3.925  0.00  0.00    +0.006 A 
ATOM     19  C   UNL     1       2.097   1.495   2.758  0.00  0.00    +0.046 A 
ATOM     20  C   UNL     1       1.203   2.555   2.784  0.00  0.00    +0.126 A 
ATOM     21  C   UNL     1       0.608   2.929   3.980  0.00  0.00    +0.031 A 
ATOM     22  C   UNL     1       0.910   2.247   5.143  0.00  0.00    +0.013 A 
BRANCH  20  23
ATOM     23  O   UNL     1       0.908   3.224   1.639  0.00  0.00    -0.495 OA
ATOM     24  C   UNL     1       1.558   2.785   0.444  0.00  0.00    +0.277 C 
ENDBRANCH  20  23
BRANCH  21  25
ATOM     25  C   UNL     1      -0.369   4.076   4.010  0.00  0.00    +0.268 C 
BRANCH  25  26
ATOM     26  O   UNL     1      -0.841   4.264   5.346  0.00  0.00    -0.484 OA
BRANCH  26  27
ATOM     27  C   UNL     1      -1.736   5.267   5.548  0.00  0.00    +0.156 A 
ATOM     28  C   UNL     1      -2.147   6.057   4.485  0.00  0.00    +0.048 A 
ATOM     29  C   UNL     1      -3.061   7.072   4.692  0.00  0.00    +0.004 A 
ATOM     30  C   UNL     1      -3.559   7.309   5.960  0.00  0.00    +0.003 A 
ATOM     31  C   UNL     1      -3.148   6.528   7.024  0.00  0.00    +0.042 A 
ATOM     32  C   UNL     1      -2.237   5.506   6.821  0.00  0.00    +0.165 A 
ATOM     33  F   UNL     1      -1.836   4.742   7.861  0.00  0.00    -0.202 F 
ENDBRANCH  26  27
ENDBRANCH  25  26
ENDBRANCH  21  25
ENDBRANCH  11  17
BRANCH   1  35
ATOM     34  C   UNL     1       9.616   2.618   9.547  0.00  0.00    +0.277 C 
ATOM     35  O   UNL     1       8.801   1.479   9.264  0.00  0.00    -0.495 OA
ENDBRANCH   1  35
BRANCH  13  36
ATOM     36  C   UNL     1       2.002  -1.324   8.495  0.00  0.00    +0.293 C 
ATOM     37  O   UNL     1       0.968  -0.709   8.387  0.00  0.00    -0.253 OA
BRANCH  36  38
ATOM     38  O   UNL     1       2.464  -1.653   9.711  0.00  0.00    -0.469 OA
ATOM     39  C   UNL     1       1.668  -1.237  10.853  0.00  0.00    +0.280 C 
ENDBRANCH  36  38
ENDBRANCH  13  36
TORSDOF 8
