REMARK  Name = ZINC14658792
REMARK  4 active torsions:
REMARK  status: ('A' for Active; 'I' for Inactive)
REMARK    1  A    between atoms: C_4  and  C_7
REMARK    2  A    between atoms: C_7  and  C_8
REMARK    3  A    between atoms: N_10  and  N_11
REMARK    4  A    between atoms: C_12  and  C_14
REMARK                            x       y       z     vdW  Elec       q    Type
REMARK                         _______ _______ _______ _____ _____    ______ ____
ROOT
ATOM      1  N   UNL     1       2.246   1.280   0.998  0.00  0.00    -0.234 N 
ATOM      2  C   UNL     1       1.403   1.602  -0.003  0.00  0.00    +0.241 C 
ATOM      3  O   UNL     1       1.784   2.308  -0.912  0.00  0.00    -0.273 OA
ATOM      4  H   UNL     1       1.941   0.715   1.726  0.00  0.00    +0.173 HD
ENDROOT
BRANCH   2   5
ATOM      5  C   UNL     1      -0.013   1.086   0.008  0.00  0.00    +0.143 C 
ATOM      6  C   UNL     1      -0.707   1.566   1.253  0.00  0.00    +0.011 A 
ATOM      7  C   UNL     1      -0.450   0.936   2.459  0.00  0.00    +0.008 A 
ATOM      8  C   UNL     1      -1.078   1.363   3.614  0.00  0.00    +0.001 A 
ATOM      9  C   UNL     1      -1.966   2.421   3.568  0.00  0.00    +0.004 A 
ATOM     10  C   UNL     1      -2.226   3.053   2.369  0.00  0.00    +0.046 A 
ATOM     11  C   UNL     1      -1.595   2.628   1.205  0.00  0.00    +0.133 A 
ATOM     12  O   UNL     1      -1.863   3.261   0.038  0.00  0.00    -0.455 OA
ATOM     13  C   UNL     1      -1.618   2.640  -1.141  0.00  0.00    +0.133 A 
ATOM     14  C   UNL     1      -0.731   1.579  -1.219  0.00  0.00    +0.011 A 
ATOM     15  C   UNL     1      -0.499   0.963  -2.435  0.00  0.00    +0.008 A 
ATOM     16  C   UNL     1      -1.149   1.401  -3.573  0.00  0.00    +0.001 A 
ATOM     17  C   UNL     1      -2.036   2.460  -3.499  0.00  0.00    +0.004 A 
ATOM     18  C   UNL     1      -2.271   3.079  -2.288  0.00  0.00    +0.046 A 
ENDBRANCH   2   5
BRANCH   1  21
ATOM     19  C   UNL     1       4.404   1.437   1.990  0.00  0.00    +0.233 C 
ATOM     20  O   UNL     1       4.024   0.731   2.899  0.00  0.00    -0.274 OA
ATOM     21  N   UNL     1       3.562   1.760   0.988  0.00  0.00    -0.234 N 
ATOM     22  H   UNL     1       3.866   2.325   0.261  0.00  0.00    +0.173 HD
BRANCH  19  23
ATOM     23  C   UNL     1       5.820   1.954   1.979  0.00  0.00    +0.132 C 
BRANCH  23  27
ATOM     24  C   UNL     1       7.881   0.532   5.439  0.00  0.00    +0.000 A 
ATOM     25  C   UNL     1       7.898  -0.209   4.272  0.00  0.00    +0.000 A 
ATOM     26  C   UNL     1       7.230   0.251   3.152  0.00  0.00    +0.004 A 
ATOM     27  C   UNL     1       6.547   1.452   3.200  0.00  0.00    -0.039 A 
ATOM     28  C   UNL     1       6.536   2.195   4.365  0.00  0.00    +0.004 A 
ATOM     29  C   UNL     1       7.199   1.733   5.486  0.00  0.00    +0.000 A 
ENDBRANCH  23  27
ENDBRANCH  19  23
ENDBRANCH   1  21
TORSDOF 4
