REMARK  Name = ZINC63577421
REMARK  9 active torsions:
REMARK  status: ('A' for Active; 'I' for Inactive)
REMARK    1  A    between atoms: C_1  and  C_2
REMARK    2  A    between atoms: C_5  and  S_10
REMARK    3  A    between atoms: C_6  and  C_9
REMARK    4  A    between atoms: C_7  and  C_8
REMARK    5  A    between atoms: S_10  and  N_13
REMARK    6  A    between atoms: N_13  and  C_14
REMARK    7  A    between atoms: C_14  and  C_15
REMARK    8  A    between atoms: C_15  and  C_16
REMARK    9  A    between atoms: C_24  and  C_26
REMARK                            x       y       z     vdW  Elec       q    Type
REMARK                         _______ _______ _______ _____ _____    ______ ____
ROOT
ATOM      1  N   UNL     1       1.803  -4.829   0.799  0.00  0.00    -0.190 NA
ATOM      2  H   UNL     1       2.496  -5.212   0.239  0.00  0.00    +0.148 HD
ENDROOT
BRANCH   1   3
ATOM      3  S   UNL     1       0.374  -4.332   0.125  0.00  0.00    +0.059 S 
ATOM      4  O   UNL     1       0.444  -4.654  -1.257  0.00  0.00    -0.153 OA
ATOM      5  O   UNL     1       0.145  -3.009   0.589  0.00  0.00    -0.153 OA
BRANCH   3  10
ATOM      6  C   UNL     1      -3.998  -7.763   2.475  0.00  0.00    +0.044 C 
ATOM      7  C   UNL     1      -2.905  -6.906   1.888  0.00  0.00    -0.047 A 
ATOM      8  C   UNL     1      -2.897  -5.543   2.119  0.00  0.00    +0.005 A 
ATOM      9  C   UNL     1      -1.896  -4.757   1.581  0.00  0.00    +0.029 A 
ATOM     10  C   UNL     1      -0.902  -5.334   0.812  0.00  0.00    +0.108 A 
ATOM     11  C   UNL     1      -0.909  -6.697   0.582  0.00  0.00    -0.021 A 
ATOM     12  C   UNL     1      -1.909  -7.484   1.124  0.00  0.00    -0.043 A 
ATOM     13  C   UNL     1      -1.915  -8.971   0.878  0.00  0.00    +0.044 C 
ATOM     14  C   UNL     1       0.174  -7.326  -0.256  0.00  0.00    +0.046 C 
ENDBRANCH   3  10
ENDBRANCH   1   3
BRANCH   1  15
ATOM     15  C   UNL     1       2.020  -4.690   2.241  0.00  0.00    +0.110 C 
BRANCH  15  16
ATOM     16  C   UNL     1       3.228  -5.531   2.659  0.00  0.00    +0.050 C 
BRANCH  16  17
ATOM     17  C   UNL     1       3.441  -5.402   4.145  0.00  0.00    -0.037 C 
ATOM     18  C   UNL     1       2.694  -4.684   5.014  0.00  0.00    +0.001 A 
ATOM     19  C   UNL     1       1.506  -3.839   4.845  0.00  0.00    +0.010 A 
ATOM     20  C   UNL     1       0.963  -3.231   5.922  0.00  0.00    +0.002 A 
ATOM     21  C   UNL     1       1.492  -3.373   7.211  0.00  0.00    +0.022 A 
ATOM     22  C   UNL     1       2.583  -4.127   7.471  0.00  0.00    +0.064 A 
ATOM     23  C   UNL     1       3.255  -4.835   6.376  0.00  0.00    +0.062 A 
ATOM     24  N   UNL     1       4.306  -5.615   6.350  0.00  0.00    -0.377 N 
ATOM     25  C   UNL     1       4.529  -6.054   4.968  0.00  0.00    +0.103 C 
ATOM     26  C   UNL     1       4.422  -7.577   4.871  0.00  0.00    +0.035 C 
ATOM     27 CL   UNL     1       3.187  -4.258   9.094  0.00  0.00    -0.081 Cl
ATOM     28  H   UNL     1       4.845  -5.865   7.117  0.00  0.00    +0.160 HD
ENDBRANCH  16  17
ENDBRANCH  15  16
ENDBRANCH   1  15
TORSDOF 5
