REMARK  Name = ZINC45866102
REMARK  8 active torsions:
REMARK  status: ('A' for Active; 'I' for Inactive)
REMARK    1  A    between atoms: C_1  and  C_2
REMARK    2  A    between atoms: C_7  and  N_8
REMARK    3  A    between atoms: C_9  and  C_11
REMARK    4  A    between atoms: C_11  and  C_12
REMARK    5  A    between atoms: C_24  and  C_26
REMARK    6  A    between atoms: C_26  and  N_27
REMARK    7  A    between atoms: N_27  and  C_28
REMARK    8  A    between atoms: N_27  and  C_29
REMARK                            x       y       z     vdW  Elec       q    Type
REMARK                         _______ _______ _______ _____ _____    ______ ____
ROOT
ATOM      1  C   UNL     1      -0.224  -1.063   6.317  0.00  0.00    +0.176 C 
ATOM      2  C   UNL     1      -0.052  -0.629   7.750  0.00  0.00    +0.239 C 
ATOM      3  O   UNL     1       1.063  -0.443   8.190  0.00  0.00    -0.273 OA
ATOM      4  N   UNL     1      -1.121  -0.445   8.548  0.00  0.00    -0.282 N 
ATOM      5  C   UNL     1      -2.414  -0.702   8.081  0.00  0.00    +0.055 A 
ATOM      6  C   UNL     1      -3.522  -0.248   8.777  0.00  0.00    +0.025 A 
ATOM      7  C   UNL     1      -4.792  -0.517   8.301  0.00  0.00    +0.002 A 
ATOM      8  C   UNL     1      -4.963  -1.238   7.134  0.00  0.00    +0.002 A 
ATOM      9  C   UNL     1      -3.862  -1.694   6.431  0.00  0.00    +0.025 A 
ATOM     10  C   UNL     1      -2.589  -1.426   6.900  0.00  0.00    +0.058 A 
ATOM     11  N   UNL     1      -1.451  -1.865   6.202  0.00  0.00    -0.259 N 
ATOM     12  C   UNL     1      -1.482  -2.985   5.452  0.00  0.00    +0.204 C 
ATOM     13  O   UNL     1      -0.464  -3.401   4.941  0.00  0.00    -0.277 OA
ATOM     14  H   UNL     1      -0.992  -0.131   9.457  0.00  0.00    +0.155 HD
ENDROOT
BRANCH   1  15
ATOM     15  C   UNL     1      -0.332   0.170   5.418  0.00  0.00    +0.128 C 
BRANCH  15  17
ATOM     16  N   UNL     1      -0.482   0.660   2.998  0.00  0.00    -0.285 N 
ATOM     17  C   UNL     1      -0.386  -0.263   3.976  0.00  0.00    +0.219 C 
ATOM     18  O   UNL     1      -0.341  -1.442   3.695  0.00  0.00    -0.275 OA
ATOM     19  H   UNL     1      -0.456   1.604   3.219  0.00  0.00    +0.155 HD
BRANCH  16  26
ATOM     20  C   UNL     1      -2.074   2.262   1.267  0.00  0.00    +0.045 C 
ATOM     21  C   UNL     1      -1.389   1.008   0.787  0.00  0.00    -0.029 A 
ATOM     22  C   UNL     1      -1.519   0.610  -0.529  0.00  0.00    +0.005 A 
ATOM     23  C   UNL     1      -0.891  -0.540  -0.970  0.00  0.00    +0.000 A 
ATOM     24  C   UNL     1      -0.130  -1.295  -0.096  0.00  0.00    +0.002 A 
ATOM     25  C   UNL     1       0.005  -0.901   1.221  0.00  0.00    +0.023 A 
ATOM     26  C   UNL     1      -0.621   0.256   1.666  0.00  0.00    +0.036 A 
ENDBRANCH  16  26
ENDBRANCH  15  17
ENDBRANCH   1  15
BRANCH  12  27
ATOM     27  C   UNL     1      -2.781  -3.720   5.249  0.00  0.00    +0.019 C 
BRANCH  27  28
ATOM     28  N   UNL     1      -2.516  -5.016   4.610  0.00  0.00    +0.385 N 
ATOM     29  C   UNL     1      -1.730  -5.860   5.520  0.00  0.00    -0.095 C 
ATOM     30  H   UNL     1      -1.999  -4.870   3.756  0.00  0.00    -0.081 HD
BRANCH  28  31
ATOM     31  C   UNL     1      -3.790  -5.681   4.303  0.00  0.00    -0.068 C 
ATOM     32  C   UNL     1      -3.514  -7.030   3.637  0.00  0.00    -0.015 C 
ATOM     33  C   UNL     1      -4.840  -7.723   3.318  0.00  0.00    -0.002 C 
ATOM     34  C   UNL     1      -5.659  -6.844   2.370  0.00  0.00    -0.000 C 
ATOM     35  C   UNL     1      -5.935  -5.494   3.036  0.00  0.00    -0.002 C 
ATOM     36  C   UNL     1      -4.609  -4.802   3.355  0.00  0.00    -0.015 C 
ENDBRANCH  28  31
ENDBRANCH  27  28
ENDBRANCH  12  27
TORSDOF 6
