REMARK  Name = ZINC31811215
REMARK  9 active torsions:
REMARK  status: ('A' for Active; 'I' for Inactive)
REMARK    1  A    between atoms: C_1  and  O_2
REMARK    2  A    between atoms: O_2  and  C_3
REMARK    3  A    between atoms: C_3  and  C_5
REMARK    4  A    between atoms: C_5  and  C_6
REMARK    5  A    between atoms: C_6  and  C_8
REMARK    6  A    between atoms: C_6  and  N_12
REMARK    7  A    between atoms: C_8  and  O_10
REMARK    8  A    between atoms: O_10  and  C_11
REMARK    9  A    between atoms: C_24  and  C_26
REMARK                            x       y       z     vdW  Elec       q    Type
REMARK                         _______ _______ _______ _____ _____    ______ ____
ROOT
ATOM      1  N   UNL     1      -5.792  -2.284   0.103  0.00  0.00    -0.286 N 
ATOM      2  C   UNL     1      -4.878  -2.066   1.069  0.00  0.00    +0.304 C 
ATOM      3  O   UNL     1      -3.708  -2.332   0.870  0.00  0.00    -0.253 OA
ATOM      4  N   UNL     1      -5.260  -1.554   2.256  0.00  0.00    -0.273 N 
ATOM      5  C   UNL     1      -4.265  -1.198   3.278  0.00  0.00    +0.116 C 
ATOM      6  C   UNL     1      -4.465  -2.094   4.507  0.00  0.00    +0.074 C 
ATOM      7  C   UNL     1      -5.936  -2.163   4.824  0.00  0.00    +0.040 A 
ATOM      8  C   UNL     1      -6.926  -1.834   3.966  0.00  0.00    +0.062 A 
ATOM      9  N   UNL     1      -8.092  -2.023   4.587  0.00  0.00    -0.348 N 
ATOM     10  C   UNL     1      -7.866  -2.455   5.800  0.00  0.00    +0.171 A 
ATOM     11  N   UNL     1      -6.530  -2.554   5.985  0.00  0.00    -0.349 N 
ATOM     12  H   UNL     1      -6.080  -2.848   6.793  0.00  0.00    +0.166 HD
ATOM     13  C   UNL     1      -6.686  -1.332   2.558  0.00  0.00    +0.156 C 
ATOM     14  H   UNL     1      -6.734  -2.140   0.286  0.00  0.00    +0.151 HD
ATOM     15  H   UNL     1      -8.967  -1.866   4.199  0.00  0.00    +0.167 HD
ENDROOT
BRANCH  13  16
ATOM     16  C   UNL     1      -7.005   0.139   2.473  0.00  0.00    -0.021 A 
ATOM     17  C   UNL     1      -6.406   1.028   3.346  0.00  0.00    +0.007 A 
ATOM     18  C   UNL     1      -6.698   2.376   3.268  0.00  0.00    +0.015 A 
ATOM     19  C   UNL     1      -7.590   2.837   2.316  0.00  0.00    +0.018 A 
ATOM     20  C   UNL     1      -8.188   1.947   1.442  0.00  0.00    +0.015 A 
ATOM     21  C   UNL     1      -7.892   0.599   1.517  0.00  0.00    +0.007 A 
ATOM     22 BR   UNL     1      -7.990   4.682   2.209  0.00  0.00    -0.050 Br
ENDBRANCH  13  16
BRANCH   1  23
ATOM     23  C   UNL     1      -5.364  -2.737  -1.222  0.00  0.00    +0.194 C 
BRANCH  23  24
ATOM     24  C   UNL     1      -4.975  -1.546  -2.059  0.00  0.00    +0.328 C 
ATOM     25  O   UNL     1      -5.048  -0.433  -1.596  0.00  0.00    -0.249 OA
BRANCH  24  26
ATOM     26  O   UNL     1      -4.547  -1.722  -3.319  0.00  0.00    -0.467 OA
ATOM     27  C   UNL     1      -4.195  -0.549  -4.055  0.00  0.00    +0.280 C 
ENDBRANCH  24  26
ENDBRANCH  23  24
BRANCH  23  28
ATOM     28  C   UNL     1      -6.513  -3.485  -1.901  0.00  0.00    +0.154 C 
BRANCH  28  29
ATOM     29  C   UNL     1      -6.820  -4.742  -1.130  0.00  0.00    +0.309 C 
ATOM     30  O   UNL     1      -6.185  -5.013  -0.138  0.00  0.00    -0.251 OA
BRANCH  29  32
ATOM     31  C   UNL     1      -8.036  -6.736  -0.765  0.00  0.00    +0.280 C 
ATOM     32  O   UNL     1      -7.799  -5.562  -1.544  0.00  0.00    -0.468 OA
ENDBRANCH  29  32
ENDBRANCH  28  29
ENDBRANCH  23  28
ENDBRANCH   1  23
TORSDOF 7
