REMARK  Name = ZINC06923180
REMARK  4 active torsions:
REMARK  status: ('A' for Active; 'I' for Inactive)
REMARK    1  A    between atoms: C_3  and  N_11
REMARK    2  A    between atoms: C_6  and  C_7
REMARK    3  A    between atoms: N_11  and  N_12
REMARK    4  A    between atoms: C_21  and  O_22
REMARK                            x       y       z     vdW  Elec       q    Type
REMARK                         _______ _______ _______ _____ _____    ______ ____
ROOT
ATOM      1  N   UNL     1       4.697   1.328  -0.036  0.00  0.00    -0.175 NA
ATOM      2  C   UNL     1       5.851   1.959  -0.043  0.00  0.00    +0.152 C 
ATOM      3  C   UNL     1       7.209   1.371  -0.066  0.00  0.00    +0.035 A 
ATOM      4  C   UNL     1       7.696   0.071  -0.083  0.00  0.00    +0.032 A 
ATOM      5  C   UNL     1       9.060  -0.150  -0.102  0.00  0.00    +0.043 A 
ATOM      6  C   UNL     1       9.941   0.922  -0.102  0.00  0.00    +0.042 A 
ATOM      7  C   UNL     1       9.474   2.219  -0.084  0.00  0.00    +0.068 A 
ATOM      8  C   UNL     1       8.096   2.467  -0.066  0.00  0.00    +0.095 A 
ATOM      9  N   UNL     1       7.379   3.621  -0.047  0.00  0.00    -0.210 NA
ATOM     10  C   UNL     1       6.088   3.413  -0.038  0.00  0.00    +0.241 C 
ATOM     11 CL   UNL     1      10.594   3.545  -0.084  0.00  0.00    -0.081 Cl
ATOM     12 CL   UNL     1       9.674  -1.774  -0.124  0.00  0.00    -0.083 Cl
ENDROOT
BRANCH   1  13
ATOM     13  N   UNL     1       3.595   1.999  -0.021  0.00  0.00    -0.220 N 
ATOM     14  H   UNL     1       3.618   2.969  -0.017  0.00  0.00    +0.176 HD
BRANCH  13  17
ATOM     15  C   UNL     1      -0.017   1.384   0.010  0.00  0.00    +0.017 A 
ATOM     16  C   UNL     1       1.191   2.061   0.002  0.00  0.00    +0.045 A 
ATOM     17  C   UNL     1       2.375   1.331  -0.013  0.00  0.00    +0.138 A 
ATOM     18  N   UNL     1       2.351   0.007  -0.021  0.00  0.00    -0.238 NA
ATOM     19  C   UNL     1       1.216  -0.664  -0.014  0.00  0.00    +0.125 A 
ATOM     20  C   UNL     1       0.002  -0.004   0.002  0.00  0.00    +0.073 A 
BRANCH  20  21
ATOM     21  C   UNL     1      -1.288  -0.783   0.011  0.00  0.00    +0.419 C 
ATOM     22  F   UNL     1      -1.700  -1.017  -1.306  0.00  0.00    -0.166 F 
ATOM     23  F   UNL     1      -1.090  -2.005   0.662  0.00  0.00    -0.166 F 
ATOM     24  F   UNL     1      -2.271  -0.050   0.684  0.00  0.00    -0.166 F 
ENDBRANCH  20  21
ENDBRANCH  13  17
ENDBRANCH   1  13
BRANCH  10  25
ATOM     25  O   UNL     1       5.130   4.373  -0.024  0.00  0.00    -0.491 OA
ATOM     26  H   UNL     1       5.478   5.275  -0.023  0.00  0.00    +0.294 HD
ENDBRANCH  10  25
TORSDOF 4
