REMARK  Name = ZINC03286915
REMARK  3 active torsions:
REMARK  status: ('A' for Active; 'I' for Inactive)
REMARK    1  A    between atoms: C_3  and  C_17
REMARK    2  A    between atoms: C_5  and  C_11
REMARK    3  A    between atoms: N_19  and  C_20
REMARK                            x       y       z     vdW  Elec       q    Type
REMARK                         _______ _______ _______ _____ _____    ______ ____
ROOT
ATOM      1  C   UNL     1       2.944  -1.408   0.730  0.00  0.00    +0.029 C 
ATOM      2  C   UNL     1       2.542  -0.236   0.275  0.00  0.00    +0.016 C 
ATOM      3  C   UNL     1       1.552   0.614   1.047  0.00  0.00    +0.143 C 
ATOM      4  C   UNL     1       2.118   2.039   1.111  0.00  0.00    +0.120 C 
ATOM      5  N   UNL     1       2.521   2.464  -0.229  0.00  0.00    -0.318 N 
ATOM      6  C   UNL     1       2.970   1.603  -1.152  0.00  0.00    +0.135 C 
ATOM      7  S   UNL     1       3.510   2.214  -2.657  0.00  0.00    -0.019 S 
ATOM      8  N   UNL     1       3.014   0.277  -0.937  0.00  0.00    -0.300 N 
ATOM      9  H   UNL     1       2.462   3.405  -0.458  0.00  0.00    +0.148 HD
ATOM     10  H   UNL     1       3.368  -0.318  -1.617  0.00  0.00    +0.154 HD
ENDROOT
BRANCH   4  11
ATOM     11  C   UNL     1       1.062   2.975   1.639  0.00  0.00    -0.026 A 
ATOM     12  C   UNL     1       1.023   3.285   2.986  0.00  0.00    +0.005 A 
ATOM     13  C   UNL     1       0.057   4.147   3.469  0.00  0.00    +0.000 A 
ATOM     14  C   UNL     1      -0.875   4.694   2.608  0.00  0.00    +0.000 A 
ATOM     15  C   UNL     1      -0.840   4.380   1.262  0.00  0.00    +0.000 A 
ATOM     16  C   UNL     1       0.129   3.521   0.777  0.00  0.00    +0.005 A 
ENDBRANCH   4  11
BRANCH   3  17
ATOM     17  C   UNL     1       0.223   0.624   0.337  0.00  0.00    +0.228 C 
ATOM     18  O   UNL     1       0.178   0.498  -0.869  0.00  0.00    -0.275 OA
ATOM     19  N   UNL     1      -0.916   0.772   1.042  0.00  0.00    -0.285 N 
ATOM     20  H   UNL     1      -0.877   0.954   1.994  0.00  0.00    +0.155 HD
BRANCH  19  21
ATOM     21  C   UNL     1      -2.156   0.662   0.400  0.00  0.00    +0.036 A 
ATOM     22  C   UNL     1      -2.296  -0.168  -0.705  0.00  0.00    +0.026 A 
ATOM     23  C   UNL     1      -3.519  -0.275  -1.338  0.00  0.00    +0.043 A 
ATOM     24  C   UNL     1      -4.606   0.444  -0.872  0.00  0.00    +0.159 A 
ATOM     25  C   UNL     1      -4.470   1.273   0.231  0.00  0.00    +0.160 A 
ATOM     26  C   UNL     1      -3.248   1.379   0.870  0.00  0.00    +0.064 A 
ATOM     27  F   UNL     1      -5.532   1.974   0.685  0.00  0.00    -0.202 F 
ATOM     28  F   UNL     1      -5.801   0.337  -1.493  0.00  0.00    -0.202 F 
ENDBRANCH  19  21
ENDBRANCH   3  17
TORSDOF 3
