REMARK  Name = ZINC35908897
REMARK  6 active torsions:
REMARK  status: ('A' for Active; 'I' for Inactive)
REMARK    1  A    between atoms: C_1  and  C_2
REMARK    2  A    between atoms: C_2  and  C_3
REMARK    3  A    between atoms: N_7  and  C_17
REMARK    4  A    between atoms: C_11  and  N_16
REMARK    5  A    between atoms: C_17  and  C_19
REMARK    6  A    between atoms: C_17  and  C_20
REMARK                            x       y       z     vdW  Elec       q    Type
REMARK                         _______ _______ _______ _____ _____    ______ ____
ROOT
ATOM      1  C   UNL     1       0.848  -0.526  -1.430  0.00  0.00    +0.259 C 
ATOM      2  C   UNL     1       0.925  -2.018  -1.319  0.00  0.00    +0.257 C 
ATOM      3  O   UNL     1       2.050  -2.433  -1.139  0.00  0.00    -0.272 OA
ATOM      4  N   UNL     1       0.048  -2.935  -1.375  0.00  0.00    -0.287 N 
ATOM      5  C   UNL     1      -1.313  -2.954  -1.797  0.00  0.00    +0.147 C 
ATOM      6  C   UNL     1      -1.917  -1.704  -2.357  0.00  0.00    +0.013 A 
ATOM      7  C   UNL     1      -3.279  -1.848  -2.667  0.00  0.00    +0.031 A 
ATOM      8  C   UNL     1      -4.025  -0.788  -3.143  0.00  0.00    +0.025 A 
ATOM      9  C   UNL     1      -3.406   0.445  -3.308  0.00  0.00    +0.026 A 
ATOM     10  C   UNL     1      -2.072   0.570  -3.022  0.00  0.00    +0.048 A 
ATOM     11  C   UNL     1      -1.299  -0.526  -2.567  0.00  0.00    +0.126 A 
ATOM     12  O   UNL     1       0.013  -0.151  -2.507  0.00  0.00    -0.479 OA
ENDROOT
BRANCH   8  13
ATOM     13  N   UNL     1      -5.379  -0.954  -3.456  0.00  0.00    -0.358 N 
ATOM     14  H   UNL     1      -5.801  -1.819  -3.339  0.00  0.00    +0.142 HD
ATOM     15  H   UNL     1      -5.894  -0.203  -3.790  0.00  0.00    +0.142 HD
ENDBRANCH   8  13
BRANCH   1  17
ATOM     16  C   UNL     1       0.330   1.576  -0.183  0.00  0.00    +0.008 C 
ATOM     17  C   UNL     1       0.283   0.048  -0.130  0.00  0.00    +0.051 C 
ENDBRANCH   1  17
BRANCH   4  18
ATOM     18  C   UNL     1       0.534  -4.238  -0.914  0.00  0.00    +0.104 C 
ATOM     19  C   UNL     1      -0.535  -5.302  -1.169  0.00  0.00    +0.033 C 
BRANCH  18  20
ATOM     20  C   UNL     1       0.833  -4.169   0.561  0.00  0.00    -0.027 A 
ATOM     21  C   UNL     1      -0.073  -3.578   1.423  0.00  0.00    +0.005 A 
ATOM     22  C   UNL     1       0.201  -3.515   2.776  0.00  0.00    +0.000 A 
ATOM     23  C   UNL     1       1.380  -4.043   3.268  0.00  0.00    +0.000 A 
ATOM     24  C   UNL     1       2.285  -4.634   2.407  0.00  0.00    +0.000 A 
ATOM     25  C   UNL     1       2.009  -4.701   1.054  0.00  0.00    +0.005 A 
ENDBRANCH  18  20
ENDBRANCH   4  18
TORSDOF 4
