REMARK  Name = ZINC49532511
REMARK  9 active torsions:
REMARK  status: ('A' for Active; 'I' for Inactive)
REMARK    1  A    between atoms: C_1  and  C_2
REMARK    2  A    between atoms: C_2  and  C_3
REMARK    3  A    between atoms: C_3  and  C_5
REMARK    4  A    between atoms: C_3  and  N_10
REMARK    5  A    between atoms: N_10  and  S_11
REMARK    6  A    between atoms: S_11  and  C_14
REMARK    7  A    between atoms: C_18  and  C_20
REMARK    8  A    between atoms: C_20  and  C_22
REMARK    9  A    between atoms: C_20  and  N_23
REMARK                            x       y       z     vdW  Elec       q    Type
REMARK                         _______ _______ _______ _____ _____    ______ ____
ROOT
ATOM      1  S   UNL     1       2.422   1.387  -2.003  0.00  0.00    +0.059 S 
ATOM      2  O   UNL     1       3.823   1.559  -1.841  0.00  0.00    -0.153 OA
ATOM      3  O   UNL     1       1.793   1.419  -3.277  0.00  0.00    -0.153 OA
ENDROOT
BRANCH   1   4
ATOM      4  C   UNL     1       1.645   2.630  -1.026  0.00  0.00    +0.105 A 
ATOM      5  C   UNL     1       0.338   2.998  -1.287  0.00  0.00    +0.028 A 
ATOM      6  C   UNL     1      -0.271   3.974  -0.520  0.00  0.00    +0.002 A 
ATOM      7  C   UNL     1       0.426   4.581   0.507  0.00  0.00    +0.002 A 
ATOM      8  C   UNL     1       1.733   4.213   0.769  0.00  0.00    -0.060 A 
ATOM      9  C   UNL     1       2.341   3.234   0.005  0.00  0.00    +0.030 A 
BRANCH   8  10
ATOM     10  C   UNL     1       2.493   4.875   1.888  0.00  0.00    -0.047 C 
ATOM     11  C   UNL     1       3.011   6.236   1.418  0.00  0.00    -0.009 C 
BRANCH  10  12
ATOM     12  N   UNL     1       1.602   5.063   3.041  0.00  0.00    +0.382 N 
ATOM     13  H   UNL     1       1.260   4.166   3.352  0.00  0.00    -0.089 HD
ATOM     14  H   UNL     1       2.111   5.506   3.791  0.00  0.00    -0.089 HD
ATOM     15  H   UNL     1       0.823   5.645   2.773  0.00  0.00    -0.089 HD
ENDBRANCH  10  12
ENDBRANCH   8  10
ENDBRANCH   1   4
BRANCH   1  16
ATOM     16  N   UNL     1       2.043  -0.076  -1.325  0.00  0.00    -0.182 NA
ATOM     17  H   UNL     1       2.740  -0.622  -0.929  0.00  0.00    +0.149 HD
BRANCH  16  18
ATOM     18  C   UNL     1       0.655  -0.545  -1.323  0.00  0.00    +0.113 C 
BRANCH  18  19
ATOM     19  C   UNL     1       0.428  -1.448  -2.508  0.00  0.00    +0.008 A 
ATOM     20  C   UNL     1      -0.646  -1.524  -3.331  0.00  0.00    +0.013 A 
ATOM     21  C   UNL     1      -0.635  -2.438  -4.367  0.00  0.00    +0.008 A 
ATOM     22  C   UNL     1       0.451  -3.232  -4.530  0.00  0.00    +0.045 A 
ATOM     23  S   UNL     1       1.509  -2.690  -3.199  0.00  0.00    -0.100 S 
ENDBRANCH  18  19
BRANCH  18  25
ATOM     24  C   UNL     1       0.517  -0.378   1.166  0.00  0.00    +0.006 C 
ATOM     25  C   UNL     1       0.380  -1.319  -0.033  0.00  0.00    +0.022 C 
ENDBRANCH  18  25
ENDBRANCH  16  18
ENDBRANCH   1  16
TORSDOF 7
