REMARK  Name = ZINC39722228
REMARK  7 active torsions:
REMARK  status: ('A' for Active; 'I' for Inactive)
REMARK    1  A    between atoms: C_1  and  C_2
REMARK    2  A    between atoms: C_2  and  C_3
REMARK    3  A    between atoms: C_6  and  N_9
REMARK    4  A    between atoms: C_10  and  S_21
REMARK    5  A    between atoms: S_21  and  C_22
REMARK    6  A    between atoms: C_22  and  C_23
REMARK    7  A    between atoms: C_31  and  C_35
REMARK                            x       y       z     vdW  Elec       q    Type
REMARK                         _______ _______ _______ _____ _____    ______ ____
ROOT
ATOM      1  N   UNL     1       2.746  -1.883   4.598  0.00  0.00    -0.239 N 
ATOM      2  C   UNL     1       2.015  -2.046   5.854  0.00  0.00    +0.227 C 
ATOM      3  N   UNL     1       2.563  -3.171   6.620  0.00  0.00    -0.317 N 
ATOM      4  C   UNL     1       3.943  -3.313   6.707  0.00  0.00    +0.041 A 
ATOM      5  C   UNL     1       4.547  -3.912   7.800  0.00  0.00    +0.024 A 
ATOM      6  C   UNL     1       5.923  -4.040   7.836  0.00  0.00    +0.002 A 
ATOM      7  C   UNL     1       6.701  -3.575   6.787  0.00  0.00    +0.001 A 
ATOM      8  C   UNL     1       6.116  -2.972   5.694  0.00  0.00    +0.015 A 
ATOM      9  C   UNL     1       4.730  -2.831   5.646  0.00  0.00    +0.058 A 
ATOM     10  C   UNL     1       4.058  -2.178   4.511  0.00  0.00    +0.255 C 
ATOM     11  O   UNL     1       4.683  -1.903   3.505  0.00  0.00    -0.269 OA
ATOM     12  H   UNL     1       1.973  -3.804   7.058  0.00  0.00    +0.149 HD
ENDROOT
BRANCH   1  16
ATOM     13  C   UNL     1       0.730  -0.502   1.224  0.00  0.00    -0.048 A 
ATOM     14  C   UNL     1       0.776  -1.857   1.494  0.00  0.00    +0.005 A 
ATOM     15  C   UNL     1       1.443  -2.319   2.611  0.00  0.00    +0.024 A 
ATOM     16  C   UNL     1       2.069  -1.419   3.465  0.00  0.00    +0.039 A 
ATOM     17  C   UNL     1       2.022  -0.059   3.191  0.00  0.00    +0.024 A 
ATOM     18  C   UNL     1       1.357   0.396   2.069  0.00  0.00    +0.005 A 
BRANCH  13  20
ATOM     19  C   UNL     1       0.966   0.048  -1.182  0.00  0.00    +0.009 C 
ATOM     20  C   UNL     1       0.001  -0.002   0.004  0.00  0.00    +0.032 C 
ENDBRANCH  13  20
ENDBRANCH   1  16
BRANCH   2  21
ATOM     21  S   UNL     1       2.163  -0.528   6.836  0.00  0.00    -0.111 S 
BRANCH  21  22
ATOM     22  C   UNL     1       3.949  -0.348   7.100  0.00  0.00    +0.146 C 
BRANCH  22  23
ATOM     23  C   UNL     1       4.214   0.892   7.914  0.00  0.00    +0.120 A 
ATOM     24  N   UNL     1       5.502   1.202   8.214  0.00  0.00    -0.310 N 
ATOM     25  H   UNL     1       6.220   0.629   7.903  0.00  0.00    +0.170 HD
ATOM     26  C   UNL     1       5.793   2.306   8.942  0.00  0.00    +0.259 A 
ATOM     27  O   UNL     1       6.943   2.596   9.217  0.00  0.00    -0.267 OA
ATOM     28  C   UNL     1       4.665   3.142   9.387  0.00  0.00    +0.065 A 
ATOM     29  C   UNL     1       4.861   4.298  10.141  0.00  0.00    +0.016 A 
ATOM     30  C   UNL     1       3.786   5.044  10.533  0.00  0.00    +0.016 A 
ATOM     31  C   UNL     1       2.485   4.658  10.184  0.00  0.00    +0.065 A 
ATOM     32  C   UNL     1       2.269   3.508   9.433  0.00  0.00    +0.043 A 
ATOM     33  C   UNL     1       3.361   2.738   9.027  0.00  0.00    +0.079 A 
ATOM     34  N   UNL     1       3.200   1.611   8.289  0.00  0.00    -0.233 NA
BRANCH  31  35
ATOM     35  C   UNL     1       1.335   5.479  10.618  0.00  0.00    +0.387 C 
ATOM     36  O   UNL     1       1.520   6.490  11.278  0.00  0.00    -0.241 OA
ATOM     37  O   UNL     1       0.198   5.146  10.316  0.00  0.00    -0.241 OA
ENDBRANCH  31  35
ENDBRANCH  22  23
ENDBRANCH  21  22
ENDBRANCH   2  21
TORSDOF 6
