REMARK  Name = ZINC09496639
REMARK  2 active torsions:
REMARK  status: ('A' for Active; 'I' for Inactive)
REMARK    1  A    between atoms: C_10  and  C_22
REMARK    2  A    between atoms: C_13  and  C_15
REMARK                            x       y       z     vdW  Elec       q    Type
REMARK                         _______ _______ _______ _____ _____    ______ ____
ROOT
ATOM      1  C   UNL     1      -0.016   1.362   0.009  0.00  0.00    +0.002 A 
ATOM      2  C   UNL     1       1.168   2.084   0.002  0.00  0.00    +0.002 A 
ATOM      3  C   UNL     1       2.384   1.434  -0.015  0.00  0.00    +0.028 A 
ATOM      4  C   UNL     1       2.427   0.046  -0.024  0.00  0.00    +0.069 A 
ATOM      5  C   UNL     1       1.223  -0.686  -0.013  0.00  0.00    +0.066 A 
ATOM      6  C   UNL     1       0.002  -0.004   0.002  0.00  0.00    +0.028 A 
ATOM      7  N   UNL     1       1.549  -2.004  -0.019  0.00  0.00    -0.324 N 
ATOM      8  C   UNL     1       2.848  -2.135  -0.033  0.00  0.00    +0.210 A 
ATOM      9  N   UNL     1       3.434  -0.884  -0.045  0.00  0.00    -0.302 N 
ATOM     10  C   UNL     1       4.887  -0.698  -0.082  0.00  0.00    +0.129 C 
ATOM     11  C   UNL     1       5.536  -1.897   0.619  0.00  0.00    +0.086 C 
ATOM     12  C   UNL     1       4.878  -3.183   0.209  0.00  0.00    +0.054 C 
ATOM     13  N   UNL     1       3.602  -3.268  -0.057  0.00  0.00    -0.218 NA
ATOM     14  H   UNL     1       0.914  -2.737  -0.014  0.00  0.00    +0.169 HD
ENDROOT
BRANCH  10  15
ATOM     15  C   UNL     1       5.256   0.574   0.637  0.00  0.00    +0.012 A 
ATOM     16  C   UNL     1       4.942   0.729   1.974  0.00  0.00    +0.023 A 
ATOM     17  C   UNL     1       5.281   1.896   2.634  0.00  0.00    +0.018 A 
ATOM     18  C   UNL     1       5.933   2.910   1.956  0.00  0.00    +0.018 A 
ATOM     19  C   UNL     1       6.247   2.758   0.619  0.00  0.00    +0.040 A 
ATOM     20  C   UNL     1       5.914   1.587  -0.041  0.00  0.00    +0.129 A 
ATOM     21  F   UNL     1       6.225   1.434  -1.347  0.00  0.00    -0.205 F 
ATOM     22 BR   UNL     1       4.851   2.107   4.463  0.00  0.00    -0.050 Br
ENDBRANCH  10  15
BRANCH  12  23
ATOM     23  C   UNL     1       5.703  -4.396   0.103  0.00  0.00    -0.003 A 
ATOM     24  C   UNL     1       7.072  -4.341   0.387  0.00  0.00    +0.011 A 
ATOM     25  C   UNL     1       7.839  -5.482   0.285  0.00  0.00    +0.016 A 
ATOM     26  C   UNL     1       7.258  -6.680  -0.097  0.00  0.00    +0.018 A 
ATOM     27  C   UNL     1       5.903  -6.742  -0.379  0.00  0.00    +0.016 A 
ATOM     28  C   UNL     1       5.122  -5.611  -0.276  0.00  0.00    +0.011 A 
ATOM     29 BR   UNL     1       8.319  -8.239  -0.233  0.00  0.00    -0.050 Br
ENDBRANCH  12  23
TORSDOF 2
