REMARK  Name = ZINC32943350
REMARK  7 active torsions:
REMARK  status: ('A' for Active; 'I' for Inactive)
REMARK    1  A    between atoms: C_1  and  C_2
REMARK    2  A    between atoms: C_5  and  N_8
REMARK    3  A    between atoms: N_10  and  C_11
REMARK    4  A    between atoms: C_11  and  C_12
REMARK    5  A    between atoms: C_12  and  C_13
REMARK    6  A    between atoms: N_23  and  C_24
REMARK    7  A    between atoms: C_24  and  C_26
REMARK                            x       y       z     vdW  Elec       q    Type
REMARK                         _______ _______ _______ _____ _____    ______ ____
ROOT
ATOM      1  N   UNL     1       0.486  -4.047   0.249  0.00  0.00    -0.328 N 
ATOM      2  C   UNL     1       0.045  -4.868   1.247  0.00  0.00    +0.194 C 
ATOM      3  N   UNL     1      -0.176  -6.190   0.995  0.00  0.00    -0.357 N 
ATOM      4  N   UNL     1      -0.167  -4.380   2.460  0.00  0.00    -0.143 NA
ATOM      5  H   UNL     1       0.068  -6.567   0.135  0.00  0.00    +0.162 HD
ATOM      6  H   UNL     1       0.991  -3.248   0.466  0.00  0.00    +0.169 HD
ENDROOT
BRANCH   1  11
ATOM      7  C   UNL     1      -0.640  -5.310  -5.166  0.00  0.00    +0.044 C 
ATOM      8  C   UNL     1      -0.341  -4.975  -3.727  0.00  0.00    -0.050 A 
ATOM      9  C   UNL     1       0.903  -4.482  -3.378  0.00  0.00    +0.005 A 
ATOM     10  C   UNL     1       1.181  -4.173  -2.061  0.00  0.00    +0.026 A 
ATOM     11  C   UNL     1       0.208  -4.358  -1.086  0.00  0.00    +0.042 A 
ATOM     12  C   UNL     1      -1.040  -4.853  -1.440  0.00  0.00    +0.026 A 
ATOM     13  C   UNL     1      -1.313  -5.155  -2.760  0.00  0.00    +0.005 A 
ENDBRANCH   1  11
BRANCH   4  14
ATOM     14  C   UNL     1      -0.123  -3.058   2.667  0.00  0.00    +0.270 C 
ATOM     15  O   UNL     1      -0.071  -2.294   1.720  0.00  0.00    -0.268 OA
BRANCH  14  16
ATOM     16  C   UNL     1      -0.136  -2.524   4.049  0.00  0.00    +0.040 A 
ATOM     17  C   UNL     1      -0.076  -3.395   5.137  0.00  0.00    +0.013 A 
ATOM     18  C   UNL     1      -0.089  -2.893   6.422  0.00  0.00    +0.002 A 
ATOM     19  C   UNL     1      -0.162  -1.527   6.633  0.00  0.00    +0.015 A 
ATOM     20  C   UNL     1      -0.223  -0.657   5.558  0.00  0.00    +0.019 A 
ATOM     21  C   UNL     1      -0.204  -1.148   4.267  0.00  0.00    +0.028 A 
ATOM     22 BR   UNL     1      -0.324   1.207   5.857  0.00  0.00    -0.050 Br
ENDBRANCH  14  16
ENDBRANCH   4  14
BRANCH   3  23
ATOM     23  C   UNL     1      -0.782  -7.040   2.022  0.00  0.00    +0.120 C 
BRANCH  23  24
ATOM     24  C   UNL     1      -0.919  -8.467   1.488  0.00  0.00    +0.058 C 
BRANCH  24  25
ATOM     25  C   UNL     1      -1.543  -9.342   2.545  0.00  0.00    -0.021 A 
ATOM     26  C   UNL     1      -0.892 -10.111   3.432  0.00  0.00    +0.087 A 
ATOM     27  N   UNL     1      -1.790 -10.761   4.234  0.00  0.00    -0.360 N 
ATOM     28  H   UNL     1      -1.556 -11.373   4.949  0.00  0.00    +0.165 HD
ATOM     29  C   UNL     1      -3.073 -10.418   3.873  0.00  0.00    +0.047 A 
ATOM     30  C   UNL     1      -2.975  -9.509   2.803  0.00  0.00    +0.003 A 
ATOM     31  C   UNL     1      -4.133  -8.981   2.230  0.00  0.00    +0.010 A 
ATOM     32  C   UNL     1      -5.357  -9.347   2.713  0.00  0.00    +0.001 A 
ATOM     33  C   UNL     1      -5.460 -10.240   3.770  0.00  0.00    +0.002 A 
ATOM     34  C   UNL     1      -4.330 -10.781   4.345  0.00  0.00    +0.026 A 
ENDBRANCH  24  25
ENDBRANCH  23  24
ENDBRANCH   3  23
TORSDOF 6
