REMARK  Name = ZINC02316569
REMARK  5 active torsions:
REMARK  status: ('A' for Active; 'I' for Inactive)
REMARK    1  A    between atoms: C_6  and  C_7
REMARK    2  A    between atoms: N_9  and  C_10
REMARK    3  A    between atoms: C_10  and  N_12
REMARK    4  A    between atoms: N_12  and  C_13
REMARK    5  A    between atoms: C_14  and  C_24
REMARK                            x       y       z     vdW  Elec       q    Type
REMARK                         _______ _______ _______ _____ _____    ______ ____
ROOT
ATOM      1  N   UNL     1       0.002  -0.004   0.002  0.00  0.00    -0.290 N 
ATOM      2  H   UNL     1      -0.831  -0.500   0.007  0.00  0.00    +0.154 HD
ENDROOT
BRANCH   1   3
ATOM      3  C   UNL     1       1.213  -0.681  -0.013  0.00  0.00    +0.089 A 
ATOM      4  C   UNL     1       1.436  -2.044  -0.017  0.00  0.00    +0.084 A 
ATOM      5  C   UNL     1       2.823  -2.523  -0.057  0.00  0.00    -0.018 A 
ATOM      6  C   UNL     1       3.739  -1.540  -0.038  0.00  0.00    -0.004 A 
ATOM      7  S   UNL     1       2.814  -0.026  -0.024  0.00  0.00    -0.077 S 
ATOM      8  C   UNL     1       5.237  -1.653   0.026  0.00  0.00    +0.043 C 
ATOM      9  C   UNL     1       5.599  -1.908   1.500  0.00  0.00    +0.005 C 
ATOM     10  C   UNL     1       4.795  -3.119   1.989  0.00  0.00    +0.000 C 
ATOM     11  C   UNL     1       5.253  -4.279   1.131  0.00  0.00    +0.000 C 
ATOM     12  C   UNL     1       4.559  -4.363  -0.218  0.00  0.00    +0.005 C 
ATOM     13  C   UNL     1       3.075  -4.029  -0.135  0.00  0.00    +0.037 C 
BRANCH   4  14
ATOM     14  C   UNL     1       0.342  -2.967   0.013  0.00  0.00    +0.102 C 
ATOM     15  N   UNL     1      -0.527  -3.700   0.037  0.00  0.00    -0.191 NA
ENDBRANCH   4  14
ENDBRANCH   1   3
BRANCH   1  16
ATOM     16  C   UNL     1      -0.016   1.344   0.009  0.00  0.00    +0.141 C 
ATOM     17  S   UNL     1       1.455   2.220   0.000  0.00  0.00    -0.018 S 
BRANCH  16  20
ATOM     18  C   UNL     1      -1.211   3.349   0.026  0.00  0.00    +0.250 C 
ATOM     19  O   UNL     1      -0.167   3.971   0.024  0.00  0.00    -0.270 OA
ATOM     20  N   UNL     1      -1.192   2.002   0.019  0.00  0.00    -0.264 N 
ATOM     21  H   UNL     1      -2.026   1.505   0.020  0.00  0.00    +0.157 HD
BRANCH  18  27
ATOM     22  C   UNL     1      -3.701   3.359   0.032  0.00  0.00    +0.014 A 
ATOM     23  C   UNL     1      -4.902   4.038   0.048  0.00  0.00    +0.016 A 
ATOM     24  C   UNL     1      -4.917   5.422   0.055  0.00  0.00    +0.018 A 
ATOM     25  C   UNL     1      -3.729   6.134   0.053  0.00  0.00    +0.016 A 
ATOM     26  C   UNL     1      -2.522   5.466   0.044  0.00  0.00    +0.014 A 
ATOM     27  C   UNL     1      -2.500   4.070   0.036  0.00  0.00    +0.037 A 
ATOM     28 BR   UNL     1      -6.567   6.345   0.070  0.00  0.00    -0.050 Br
ENDBRANCH  18  27
ENDBRANCH  16  20
ENDBRANCH   1  16
TORSDOF 5
