REMARK  Name = ZINC08282575
REMARK  6 active torsions:
REMARK  status: ('A' for Active; 'I' for Inactive)
REMARK    1  A    between atoms: C_11  and  C_13
REMARK    2  A    between atoms: C_13  and  O_14
REMARK    3  A    between atoms: O_14  and  C_15
REMARK    4  A    between atoms: C_15  and  C_17
REMARK    5  A    between atoms: C_21  and  S_23
REMARK    6  A    between atoms: S_23  and  N_26
REMARK                            x       y       z     vdW  Elec       q    Type
REMARK                         _______ _______ _______ _____ _____    ______ ____
ROOT
ATOM      1  C   UNL     1      -0.013   1.205  -0.042  0.00  0.00    +0.340 C 
ATOM      2  O   UNL     1       0.005  -0.009  -0.074  0.00  0.00    -0.245 OA
ENDROOT
BRANCH   1   3
ATOM      3  C   UNL     1      -1.303   1.924  -0.028  0.00  0.00    +0.061 A 
ATOM      4  C   UNL     1      -1.328   3.320   0.016  0.00  0.00    +0.016 A 
ATOM      5  C   UNL     1      -2.535   3.985   0.024  0.00  0.00    +0.023 A 
ATOM      6  C   UNL     1      -3.723   3.272  -0.001  0.00  0.00    +0.067 A 
ATOM      7  C   UNL     1      -3.705   1.887  -0.038  0.00  0.00    +0.124 A 
ATOM      8  C   UNL     1      -2.503   1.210  -0.052  0.00  0.00    +0.045 A 
ATOM      9 CL   UNL     1      -5.239   4.117   0.016  0.00  0.00    -0.082 Cl
BRANCH   7  10
ATOM     10  S   UNL     1      -5.220   0.989  -0.070  0.00  0.00    +0.057 S 
ATOM     11  O   UNL     1      -6.022   1.581  -1.082  0.00  0.00    -0.153 OA
ATOM     12  O   UNL     1      -4.875  -0.389  -0.079  0.00  0.00    -0.153 OA
BRANCH  10  13
ATOM     13  N   UNL     1      -5.988   1.275   1.369  0.00  0.00    -0.203 NA
ATOM     14  H   UNL     1      -6.957   1.264   1.413  0.00  0.00    +0.144 HD
ATOM     15  H   UNL     1      -5.469   1.453   2.169  0.00  0.00    +0.144 HD
ENDBRANCH  10  13
ENDBRANCH   7  10
ENDBRANCH   1   3
BRANCH   1  16
ATOM     16  O   UNL     1       1.143   1.896  -0.024  0.00  0.00    -0.452 OA
BRANCH  16  17
ATOM     17  C   UNL     1       2.373   1.124  -0.045  0.00  0.00    +0.328 C 
BRANCH  17  28
ATOM     18  C   UNL     1       8.051   4.162   0.359  0.00  0.00    +0.000 A 
ATOM     19  C   UNL     1       6.806   4.644  -0.005  0.00  0.00    +0.002 A 
ATOM     20  C   UNL     1       5.735   3.779  -0.101  0.00  0.00    +0.024 A 
ATOM     21  C   UNL     1       5.907   2.426   0.161  0.00  0.00    +0.040 A 
ATOM     22  C   UNL     1       7.154   1.943   0.528  0.00  0.00    -0.026 A 
ATOM     23  C   UNL     1       8.223   2.817   0.624  0.00  0.00    +0.005 A 
ATOM     24  C   UNL     1       7.378   0.483   0.821  0.00  0.00    +0.038 C 
ATOM     25  C   UNL     1       6.055  -0.205   1.159  0.00  0.00    +0.024 C 
ATOM     26  C   UNL     1       5.035   0.114   0.058  0.00  0.00    +0.114 C 
ATOM     27  N   UNL     1       4.804   1.565   0.066  0.00  0.00    -0.268 N 
ATOM     28  C   UNL     1       3.554   2.060  -0.021  0.00  0.00    +0.258 C 
ATOM     29  O   UNL     1       3.379   3.259  -0.080  0.00  0.00    -0.272 OA
ENDBRANCH  17  28
ENDBRANCH  16  17
ENDBRANCH   1  16
TORSDOF 6
