REMARK  Name = ZINC14017990
REMARK  5 active torsions:
REMARK  status: ('A' for Active; 'I' for Inactive)
REMARK    1  A    between atoms: C_1  and  C_2
REMARK    2  A    between atoms: C_5  and  C_20
REMARK    3  A    between atoms: N_9  and  N_10
REMARK    4  A    between atoms: C_11  and  C_13
REMARK    5  A    between atoms: C_20  and  C_22
REMARK                            x       y       z     vdW  Elec       q    Type
REMARK                         _______ _______ _______ _____ _____    ______ ____
ROOT
ATOM      1  C   UNL     1      -0.018   1.503   0.010  0.00  0.00    +0.045 C 
ATOM      2  C   UNL     1       0.002  -0.004   0.002  0.00  0.00    -0.032 C 
ATOM      3  C   UNL     1       0.005  -0.654  -1.152  0.00  0.00    -0.021 C 
ATOM      4  C   UNL     1       0.016  -2.150  -1.252  0.00  0.00    +0.035 C 
ATOM      5  C   UNL     1       0.556  -2.786   0.028  0.00  0.00    +0.024 C 
ATOM      6  C   UNL     1      -0.225  -2.234   1.229  0.00  0.00    +0.065 C 
ATOM      7  C   UNL     1       0.024  -0.740   1.276  0.00  0.00    +0.062 C 
ATOM      8  N   UNL     1       0.245  -0.129   2.401  0.00  0.00    -0.184 NA
ENDROOT
BRANCH   8   9
ATOM      9  N   UNL     1       0.261  -0.853   3.601  0.00  0.00    -0.203 N 
ATOM     10  C   UNL     1       0.490  -0.219   4.768  0.00  0.00    +0.264 C 
ATOM     11  O   UNL     1       0.684   0.981   4.780  0.00  0.00    -0.268 OA
ATOM     12  H   UNL     1       0.107  -1.811   3.591  0.00  0.00    +0.178 HD
BRANCH  10  13
ATOM     13  C   UNL     1       0.507  -0.983   6.032  0.00  0.00    +0.052 A 
ATOM     14  C   UNL     1       0.291  -2.363   6.021  0.00  0.00    +0.014 A 
ATOM     15  C   UNL     1       0.308  -3.070   7.205  0.00  0.00    +0.001 A 
ATOM     16  C   UNL     1       0.537  -2.416   8.403  0.00  0.00    +0.001 A 
ATOM     17  C   UNL     1       0.752  -1.050   8.422  0.00  0.00    +0.016 A 
ATOM     18  C   UNL     1       0.745  -0.330   7.244  0.00  0.00    +0.030 A 
ATOM     19 BR   UNL     1       1.046   1.537   7.271  0.00  0.00    -0.050 Br
ENDBRANCH  10  13
ENDBRANCH   8   9
BRANCH   5  20
ATOM     20  C   UNL     1       0.387  -4.282  -0.042  0.00  0.00    -0.076 C 
ATOM     21  C   UNL     1       1.435  -5.064   0.026  0.00  0.00    +0.007 C 
ATOM     22  C   UNL     1      -0.990  -4.878  -0.191  0.00  0.00    +0.039 C 
ENDBRANCH   5  20
TORSDOF 3
