REMARK  Name = ZINC16696073
REMARK  5 active torsions:
REMARK  status: ('A' for Active; 'I' for Inactive)
REMARK    1  A    between atoms: C_1  and  C_2
REMARK    2  A    between atoms: C_3  and  C_11
REMARK    3  A    between atoms: N_15  and  S_16
REMARK    4  A    between atoms: S_16  and  C_19
REMARK    5  A    between atoms: N_25  and  C_26
REMARK                            x       y       z     vdW  Elec       q    Type
REMARK                         _______ _______ _______ _____ _____    ______ ____
ROOT
ATOM      1  C   UNL     1      -2.459  -0.113  -0.040  0.00  0.00    +0.067 A 
ATOM      2  C   UNL     1      -3.203  -0.207  -1.159  0.00  0.00    +0.075 A 
ATOM      3  S   UNL     1      -4.856   0.057  -0.539  0.00  0.00    -0.056 S 
ATOM      4  C   UNL     1      -4.443   0.277   1.184  0.00  0.00    +0.199 A 
ATOM      5  N   UNL     1      -5.234   0.513   2.201  0.00  0.00    -0.103 NA
ATOM      6  N   UNL     1      -3.071   0.127   1.163  0.00  0.00    -0.287 N 
ENDROOT
BRANCH   1   9
ATOM      7  C   UNL     1      -0.356   2.177   0.080  0.00  0.00    +0.087 C 
ATOM      8  C   UNL     1      -0.058   0.706  -0.056  0.00  0.00    +0.112 A 
ATOM      9  C   UNL     1      -0.991  -0.275  -0.107  0.00  0.00    +0.048 A 
ATOM     10  C   UNL     1      -0.241  -1.538  -0.242  0.00  0.00    +0.030 A 
ATOM     11  C   UNL     1      -0.605  -2.877  -0.344  0.00  0.00    +0.012 A 
ATOM     12  C   UNL     1       0.372  -3.842  -0.461  0.00  0.00    +0.001 A 
ATOM     13  C   UNL     1       1.711  -3.481  -0.479  0.00  0.00    +0.004 A 
ATOM     14  C   UNL     1       2.084  -2.158  -0.378  0.00  0.00    +0.047 A 
ATOM     15  C   UNL     1       1.114  -1.170  -0.259  0.00  0.00    +0.136 A 
ATOM     16  O   UNL     1       1.172   0.173  -0.151  0.00  0.00    -0.459 OA
ENDBRANCH   1   9
BRANCH   6  17
ATOM     17  C   UNL     1      -2.322   0.223   2.342  0.00  0.00    +0.049 A 
ATOM     18  C   UNL     1      -2.225   1.438   3.007  0.00  0.00    +0.026 A 
ATOM     19  C   UNL     1      -1.485   1.530   4.170  0.00  0.00    +0.002 A 
ATOM     20  C   UNL     1      -0.841   0.413   4.671  0.00  0.00    +0.000 A 
ATOM     21  C   UNL     1      -0.936  -0.798   4.011  0.00  0.00    +0.002 A 
ATOM     22  C   UNL     1      -1.679  -0.897   2.851  0.00  0.00    +0.026 A 
ENDBRANCH   6  17
BRANCH   5  23
ATOM     23  S   UNL     1      -6.868   0.645   1.965  0.00  0.00    +0.101 S 
ATOM     24  O   UNL     1      -7.072   1.814   1.183  0.00  0.00    -0.146 OA
ATOM     25  O   UNL     1      -7.325  -0.636   1.554  0.00  0.00    -0.146 OA
BRANCH  23  26
ATOM     26  C   UNL     1      -7.598   0.959   3.538  0.00  0.00    +0.113 A 
ATOM     27  C   UNL     1      -8.000  -0.095   4.336  0.00  0.00    +0.029 A 
ATOM     28  C   UNL     1      -8.572   0.151   5.570  0.00  0.00    +0.002 A 
ATOM     29  C   UNL     1      -8.742   1.452   6.007  0.00  0.00    +0.000 A 
ATOM     30  C   UNL     1      -8.338   2.506   5.209  0.00  0.00    +0.002 A 
ATOM     31  C   UNL     1      -7.762   2.260   3.977  0.00  0.00    +0.029 A 
ENDBRANCH  23  26
ENDBRANCH   5  23
TORSDOF 4
