REMARK  Name = ZINC22171278
REMARK  6 active torsions:
REMARK  status: ('A' for Active; 'I' for Inactive)
REMARK    1  A    between atoms: C_6  and  C_7
REMARK    2  A    between atoms: C_7  and  O_9
REMARK    3  A    between atoms: O_9  and  C_10
REMARK    4  A    between atoms: C_13  and  N_16
REMARK    5  A    between atoms: N_16  and  S_17
REMARK    6  A    between atoms: S_17  and  C_20
REMARK                            x       y       z     vdW  Elec       q    Type
REMARK                         _______ _______ _______ _____ _____    ______ ____
ROOT
ATOM      1  C   UNL     1       4.133  -2.027  -4.296  0.00  0.00    +0.132 A 
ATOM      2  C   UNL     1       3.693  -3.343  -4.309  0.00  0.00    +0.048 A 
ATOM      3  C   UNL     1       2.718  -3.754  -3.422  0.00  0.00    +0.028 A 
ATOM      4  C   UNL     1       2.177  -2.849  -2.517  0.00  0.00    +0.048 A 
ATOM      5  C   UNL     1       2.613  -1.531  -2.509  0.00  0.00    +0.028 A 
ATOM      6  C   UNL     1       3.593  -1.123  -3.393  0.00  0.00    +0.048 A 
ENDROOT
BRANCH   4   7
ATOM      7  N   UNL     1       1.188  -3.265  -1.619  0.00  0.00    -0.216 N 
ATOM      8  H   UNL     1       0.141  -2.967  -1.777  0.00  0.00    +0.174 HD
BRANCH   7   9
ATOM      9  S   UNL     1       1.594  -4.206  -0.318  0.00  0.00    +0.072 S 
ATOM     10  O   UNL     1       2.352  -5.295  -0.826  0.00  0.00    -0.150 OA
ATOM     11  O   UNL     1       0.404  -4.391   0.436  0.00  0.00    -0.150 OA
BRANCH   9  12
ATOM     12  C   UNL     1       2.687  -3.259   0.689  0.00  0.00    +0.109 A 
ATOM     13  C   UNL     1       2.175  -2.363   1.610  0.00  0.00    +0.031 A 
ATOM     14  C   UNL     1       3.031  -1.620   2.400  0.00  0.00    +0.040 A 
ATOM     15  C   UNL     1       4.401  -1.772   2.270  0.00  0.00    +0.124 A 
ATOM     16  C   UNL     1       4.912  -2.669   1.347  0.00  0.00    +0.040 A 
ATOM     17  C   UNL     1       4.054  -3.412   0.558  0.00  0.00    +0.031 A 
ATOM     18  F   UNL     1       5.238  -1.046   3.042  0.00  0.00    -0.205 F 
ENDBRANCH   9  12
ENDBRANCH   7   9
ENDBRANCH   4   7
BRANCH   1  19
ATOM     19  O   UNL     1       5.094  -1.623  -5.169  0.00  0.00    -0.422 OA
BRANCH  19  20
ATOM     20  C   UNL     1       6.339  -1.468  -4.680  0.00  0.00    +0.344 C 
ATOM     21  O   UNL     1       6.563  -1.692  -3.507  0.00  0.00    -0.245 OA
BRANCH  20  27
ATOM     22  C   UNL     1       7.180  -0.775  -6.919  0.00  0.00    +0.016 A 
ATOM     23  C   UNL     1       8.204  -0.358  -7.743  0.00  0.00    +0.021 A 
ATOM     24  C   UNL     1       9.483  -0.200  -7.237  0.00  0.00    +0.041 A 
ATOM     25  C   UNL     1       9.742  -0.454  -5.900  0.00  0.00    +0.021 A 
ATOM     26  C   UNL     1       8.725  -0.866  -5.064  0.00  0.00    +0.016 A 
ATOM     27  C   UNL     1       7.433  -1.027  -5.569  0.00  0.00    +0.059 A 
ATOM     28 CL   UNL     1      10.768   0.319  -8.282  0.00  0.00    -0.084 Cl
ENDBRANCH  20  27
ENDBRANCH  19  20
ENDBRANCH   1  19
TORSDOF 6
