REMARK  Name = ZINC05945299
REMARK  11 active torsions:
REMARK  status: ('A' for Active; 'I' for Inactive)
REMARK    1  A    between atoms: C_1  and  C_2
REMARK    2  A    between atoms: C_2  and  C_31
REMARK    3  A    between atoms: C_4  and  N_10
REMARK    4  A    between atoms: C_6  and  C_8
REMARK    5  A    between atoms: C_6  and  C_9
REMARK    6  A    between atoms: N_10  and  C_11
REMARK    7  A    between atoms: N_10  and  C_18
REMARK    8  A    between atoms: C_11  and  C_12
REMARK    9  A    between atoms: C_18  and  N_20
REMARK   10  A    between atoms: N_20  and  C_21
REMARK   11  A    between atoms: C_26  and  C_27
REMARK                            x       y       z     vdW  Elec       q    Type
REMARK                         _______ _______ _______ _____ _____    ______ ____
ROOT
ATOM      1  N   UNL     1      -2.870  -2.425   0.138  0.00  0.00    -0.305 N 
ENDROOT
BRANCH   1   5
ATOM      2  C   UNL     1       1.802  -3.932   0.179  0.00  0.00    -0.010 C 
ATOM      3  C   UNL     1       0.917  -2.664   0.177  0.00  0.00    -0.072 C 
ATOM      4  C   UNL     1      -0.533  -3.121   0.299  0.00  0.00    +0.009 C 
ATOM      5  C   UNL     1      -1.484  -1.951   0.046  0.00  0.00    +0.073 C 
ATOM      6  C   UNL     1      -1.224  -1.423  -1.365  0.00  0.00    +0.009 C 
ATOM      7  C   UNL     1       0.220  -0.953  -1.499  0.00  0.00    -0.072 C 
ATOM      8  N   UNL     1       1.189  -1.936  -1.049  0.00  0.00    +0.386 N 
ATOM      9  C   UNL     1       0.401   0.382  -0.768  0.00  0.00    -0.010 C 
ATOM     10  C   UNL     1       0.482  -0.686  -3.000  0.00  0.00    -0.010 C 
ATOM     11  C   UNL     1       1.307  -1.842   1.411  0.00  0.00    -0.010 C 
ATOM     12  H   UNL     1       2.097  -1.471  -0.952  0.00  0.00    -0.084 HD
ATOM     13  H   UNL     1       1.326  -2.618  -1.802  0.00  0.00    -0.084 HD
ENDBRANCH   1   5
BRANCH   1  14
ATOM     14  C   UNL     1      -3.666  -1.990   1.135  0.00  0.00    +0.138 C 
ATOM     15  S   UNL     1      -5.251  -2.615   1.300  0.00  0.00    -0.018 S 
BRANCH  14  16
ATOM     16  N   UNL     1      -3.213  -1.064   2.004  0.00  0.00    -0.296 N 
ATOM     17  H   UNL     1      -2.902  -1.334   2.882  0.00  0.00    +0.154 HD
BRANCH  16  18
ATOM     18  C   UNL     1      -3.193   0.286   1.639  0.00  0.00    +0.044 A 
ATOM     19  C   UNL     1      -3.743   0.688   0.428  0.00  0.00    +0.024 A 
ATOM     20  C   UNL     1      -3.722   2.022   0.071  0.00  0.00    +0.002 A 
ATOM     21  C   UNL     1      -3.154   2.957   0.917  0.00  0.00    +0.001 A 
ATOM     22  C   UNL     1      -2.607   2.560   2.123  0.00  0.00    +0.014 A 
ATOM     23  C   UNL     1      -2.630   1.228   2.489  0.00  0.00    +0.076 A 
BRANCH  23  24
ATOM     24  C   UNL     1      -2.038   0.797   3.806  0.00  0.00    +0.419 C 
ATOM     25  F   UNL     1      -1.536   1.916   4.480  0.00  0.00    -0.166 F 
ATOM     26  F   UNL     1      -3.028   0.189   4.585  0.00  0.00    -0.166 F 
ATOM     27  F   UNL     1      -1.001  -0.113   3.576  0.00  0.00    -0.166 F 
ENDBRANCH  23  24
ENDBRANCH  16  18
ENDBRANCH  14  16
ENDBRANCH   1  14
BRANCH   1  28
ATOM     28  C   UNL     1      -3.389  -3.369  -0.854  0.00  0.00    +0.142 C 
BRANCH  28  29
ATOM     29  C   UNL     1      -3.199  -4.778  -0.354  0.00  0.00    -0.030 A 
ATOM     30  C   UNL     1      -2.104  -5.515  -0.763  0.00  0.00    +0.005 A 
ATOM     31  C   UNL     1      -1.929  -6.807  -0.304  0.00  0.00    +0.000 A 
ATOM     32  C   UNL     1      -2.850  -7.362   0.564  0.00  0.00    +0.000 A 
ATOM     33  C   UNL     1      -3.945  -6.625   0.974  0.00  0.00    +0.000 A 
ATOM     34  C   UNL     1      -4.117  -5.331   0.519  0.00  0.00    +0.005 A 
ENDBRANCH  28  29
ENDBRANCH   1  28
TORSDOF 7
