REMARK  Name = ZINC39671771
REMARK  8 active torsions:
REMARK  status: ('A' for Active; 'I' for Inactive)
REMARK    1  A    between atoms: C_1  and  C_2
REMARK    2  A    between atoms: C_4  and  C_34
REMARK    3  A    between atoms: N_5  and  C_7
REMARK    4  A    between atoms: C_7  and  C_8
REMARK    5  A    between atoms: C_8  and  C_9
REMARK    6  A    between atoms: C_9  and  N_10
REMARK    7  A    between atoms: C_11  and  C_13
REMARK    8  A    between atoms: C_24  and  C_26
REMARK                            x       y       z     vdW  Elec       q    Type
REMARK                         _______ _______ _______ _____ _____    ______ ____
ROOT
ATOM      1  C   UNL     1       4.033  -6.819   4.196  0.00  0.00    +0.100 C 
ATOM      2  C   UNL     1       4.927  -5.662   4.696  0.00  0.00    +0.121 C 
ATOM      3  N   UNL     1       5.053  -5.889   6.154  0.00  0.00    -0.296 N 
ATOM      4  C   UNL     1       5.184  -7.360   6.288  0.00  0.00    +0.115 C 
ATOM      5  C   UNL     1       4.208  -7.933   5.242  0.00  0.00    -0.004 C 
ATOM      6  C   UNL     1       4.801  -9.180   4.593  0.00  0.00    -0.010 C 
ATOM      7  C   UNL     1       4.911 -10.292   5.640  0.00  0.00    -0.082 C 
ATOM      8  N   UNL     1       3.580 -10.586   6.185  0.00  0.00    +0.379 N 
ATOM      9  C   UNL     1       3.056  -9.409   6.889  0.00  0.00    -0.082 C 
ATOM     10  C   UNL     1       2.868  -8.260   5.895  0.00  0.00    -0.010 C 
ATOM     11  C   UNL     1       5.049  -4.967   7.137  0.00  0.00    +0.249 C 
ATOM     12  O   UNL     1       5.257  -5.303   8.287  0.00  0.00    -0.270 OA
ATOM     13  H   UNL     1       2.956 -10.831   5.431  0.00  0.00    -0.086 HD
ATOM     14  H   UNL     1       3.646 -11.360   6.830  0.00  0.00    -0.086 HD
ENDROOT
BRANCH  11  15
ATOM     15  C   UNL     1       4.793  -3.548   6.818  0.00  0.00    +0.073 A 
ATOM     16  C   UNL     1       5.253  -3.005   5.616  0.00  0.00    +0.036 A 
ATOM     17  C   UNL     1       5.009  -1.679   5.324  0.00  0.00    +0.042 A 
ATOM     18  C   UNL     1       4.310  -0.885   6.219  0.00  0.00    +0.023 A 
ATOM     19  C   UNL     1       3.852  -1.414   7.410  0.00  0.00    +0.040 A 
ATOM     20  C   UNL     1       4.083  -2.743   7.714  0.00  0.00    +0.136 A 
ATOM     21  F   UNL     1       3.630  -3.261   8.877  0.00  0.00    -0.205 F 
ATOM     22 CL   UNL     1       5.581  -1.003   3.830  0.00  0.00    -0.084 Cl
ENDBRANCH  11  15
BRANCH   1  24
ATOM     23  N   UNL     1       1.750  -6.961   3.256  0.00  0.00    -0.315 N 
ATOM     24  C   UNL     1       2.593  -6.381   4.132  0.00  0.00    +0.218 C 
ATOM     25  O   UNL     1       2.192  -5.505   4.870  0.00  0.00    -0.275 OA
ATOM     26  H   UNL     1       2.070  -7.662   2.666  0.00  0.00    +0.149 HD
BRANCH  23  27
ATOM     27  C   UNL     1       0.349  -6.535   3.194  0.00  0.00    +0.106 C 
BRANCH  27  28
ATOM     28  C   UNL     1      -0.384  -7.346   2.124  0.00  0.00    +0.042 C 
BRANCH  28  29
ATOM     29  C   UNL     1      -1.846  -6.901   2.059  0.00  0.00    +0.145 C 
BRANCH  29  34
ATOM     30  C   UNL     1      -3.734  -8.305  -2.375  0.00  0.00    +0.067 C 
ATOM     31  C   UNL     1      -3.366  -8.272  -0.914  0.00  0.00    +0.060 A 
ATOM     32  C   UNL     1      -3.705  -9.238   0.039  0.00  0.00    +0.047 A 
ATOM     33  C   UNL     1      -3.191  -8.849   1.228  0.00  0.00    +0.036 A 
ATOM     34  N   UNL     1      -2.549  -7.678   1.035  0.00  0.00    -0.268 N 
ATOM     35  N   UNL     1      -2.668  -7.339  -0.319  0.00  0.00    -0.176 NA
ATOM     36  C   UNL     1      -3.314  -9.589   2.535  0.00  0.00    +0.065 C 
ENDBRANCH  29  34
ENDBRANCH  28  29
ENDBRANCH  27  28
ENDBRANCH  23  27
ENDBRANCH   1  24
TORSDOF 6
