REMARK  Name = ZINC59639755
REMARK  10 active torsions:
REMARK  status: ('A' for Active; 'I' for Inactive)
REMARK    1  A    between atoms: C_1  and  C_2
REMARK    2  A    between atoms: C_4  and  C_28
REMARK    3  A    between atoms: C_5  and  C_26
REMARK    4  A    between atoms: N_8  and  C_9
REMARK    5  A    between atoms: C_9  and  C_10
REMARK    6  A    between atoms: N_12  and  N_13
REMARK    7  A    between atoms: C_14  and  C_15
REMARK    8  A    between atoms: C_24  and  O_25
REMARK    9  A    between atoms: C_28  and  O_29
REMARK   10  A    between atoms: O_29  and  C_30
REMARK                            x       y       z     vdW  Elec       q    Type
REMARK                         _______ _______ _______ _____ _____    ______ ____
ROOT
ATOM      1  C   UNL     1      -1.396   0.313   2.882  0.00  0.00    +0.252 C 
ATOM      2  O   UNL     1      -2.319  -0.104   2.214  0.00  0.00    -0.272 OA
ATOM      3  N   UNL     1      -1.641   0.988   4.023  0.00  0.00    -0.206 N 
ATOM      4  H   UNL     1      -0.903   1.321   4.557  0.00  0.00    +0.177 HD
ENDROOT
BRANCH   3   5
ATOM      5  N   UNL     1      -2.961   1.210   4.436  0.00  0.00    -0.188 NA
ATOM      6  C   UNL     1      -3.197   1.861   5.536  0.00  0.00    +0.142 C 
BRANCH   6   7
ATOM      7  C   UNL     1      -4.582   2.093   5.970  0.00  0.00    +0.044 A 
ATOM      8  C   UNL     1      -4.865   2.829   7.200  0.00  0.00    -0.006 A 
ATOM      9  C   UNL     1      -3.836   3.335   8.003  0.00  0.00    +0.009 A 
ATOM     10  C   UNL     1      -4.143   4.016   9.143  0.00  0.00    +0.001 A 
ATOM     11  C   UNL     1      -5.468   4.216   9.521  0.00  0.00    +0.001 A 
ATOM     12  C   UNL     1      -6.494   3.738   8.764  0.00  0.00    +0.008 A 
ATOM     13  C   UNL     1      -6.214   3.031   7.582  0.00  0.00    -0.017 A 
ATOM     14  C   UNL     1      -7.247   2.523   6.774  0.00  0.00    +0.012 A 
ATOM     15  C   UNL     1      -6.965   1.842   5.632  0.00  0.00    +0.046 A 
ATOM     16  C   UNL     1      -5.654   1.621   5.213  0.00  0.00    +0.126 A 
BRANCH  16  17
ATOM     17  O   UNL     1      -5.419   0.940   4.063  0.00  0.00    -0.506 OA
ATOM     18  H   UNL     1      -5.337  -0.017   4.182  0.00  0.00    +0.292 HD
ENDBRANCH  16  17
ENDBRANCH   6   7
ENDBRANCH   3   5
BRANCH   1  19
ATOM     19  C   UNL     1       0.024   0.075   2.438  0.00  0.00    +0.222 C 
BRANCH  19  27
ATOM     20  C   UNL     1      -0.018   1.503   0.010  0.00  0.00    +0.065 C 
ATOM     21  C   UNL     1       0.002  -0.004   0.002  0.00  0.00    +0.034 A 
ATOM     22  C   UNL     1       0.005  -0.664  -1.184  0.00  0.00    +0.044 A 
ATOM     23  C   UNL     1       0.024  -2.060  -1.210  0.00  0.00    +0.016 A 
ATOM     24  C   UNL     1       0.039  -2.756  -0.004  0.00  0.00    +0.123 A 
ATOM     25  C   UNL     1       0.035  -2.022   1.211  0.00  0.00    +0.270 A 
ATOM     26  O   UNL     1       0.049  -2.608   2.280  0.00  0.00    -0.266 OA
ATOM     27  N   UNL     1       0.022  -0.676   1.179  0.00  0.00    -0.302 N 
ATOM     28 BR   UNL     1      -0.016   0.309  -2.806  0.00  0.00    -0.048 Br
BRANCH  24  29
ATOM     29  C   UNL     1       0.058  -4.188   0.010  0.00  0.00    +0.105 C 
ATOM     30  N   UNL     1       0.072  -5.324   0.022  0.00  0.00    -0.191 NA
ENDBRANCH  24  29
BRANCH  23  31
ATOM     31  C   UNL     1       0.027  -2.801  -2.522  0.00  0.00    +0.197 C 
BRANCH  31  32
ATOM     32  O   UNL     1       0.047  -4.208  -2.273  0.00  0.00    -0.378 OA
ATOM     33  C   UNL     1       0.051  -5.008  -3.458  0.00  0.00    +0.194 C 
ENDBRANCH  31  32
ENDBRANCH  23  31
ENDBRANCH  19  27
ENDBRANCH   1  19
TORSDOF 8
