REMARK  Name = ZINC42375410
REMARK  4 active torsions:
REMARK  status: ('A' for Active; 'I' for Inactive)
REMARK    1  A    between atoms: C_1  and  N_2
REMARK    2  A    between atoms: C_5  and  N_8
REMARK    3  A    between atoms: N_8  and  S_9
REMARK    4  A    between atoms: S_9  and  C_12
REMARK                            x       y       z     vdW  Elec       q    Type
REMARK                         _______ _______ _______ _____ _____    ______ ____
ROOT
ATOM      1  N   UNL     1       0.209  -2.498   2.515  0.00  0.00    -0.188 NA
ATOM      2  H   UNL     1       0.961  -2.794   1.980  0.00  0.00    +0.148 HD
ENDROOT
BRANCH   1   7
ATOM      3  C   UNL     1      -1.105   1.246  -0.128  0.00  0.00    -0.096 C 
ATOM      4  N   UNL     1      -0.871  -0.203  -0.067  0.00  0.00    +0.379 N 
ATOM      5  C   UNL     1      -2.150  -0.904   0.172  0.00  0.00    -0.078 C 
ATOM      6  C   UNL     1      -1.783  -2.097   1.090  0.00  0.00    -0.000 C 
ATOM      7  C   UNL     1      -0.696  -1.467   2.001  0.00  0.00    +0.058 C 
ATOM      8  C   UNL     1       0.048  -0.511   1.045  0.00  0.00    -0.059 C 
ATOM      9  H   UNL     1      -0.469  -0.520  -0.937  0.00  0.00    -0.082 HD
ENDBRANCH   1   7
BRANCH   1  10
ATOM     10  S   UNL     1      -0.052  -3.157   4.012  0.00  0.00    +0.066 S 
ATOM     11  O   UNL     1      -1.430  -3.502   4.069  0.00  0.00    -0.153 OA
ATOM     12  O   UNL     1       0.981  -4.110   4.222  0.00  0.00    -0.153 OA
BRANCH  10  13
ATOM     13  C   UNL     1       0.195  -1.876   5.196  0.00  0.00    +0.156 A 
ATOM     14  C   UNL     1       0.059  -1.921   6.544  0.00  0.00    +0.051 A 
ATOM     15  C   UNL     1       0.309  -0.779   7.282  0.00  0.00    +0.025 A 
ATOM     16  C   UNL     1       0.684   0.352   6.635  0.00  0.00    +0.048 A 
ATOM     17  S   UNL     1       0.698  -0.183   4.932  0.00  0.00    -0.076 S 
ATOM     18 BR   UNL     1      -0.466  -3.522   7.402  0.00  0.00    -0.048 Br
ENDBRANCH  10  13
ENDBRANCH   1  10
TORSDOF 3
