REMARK  Name = ZINC36571152
REMARK  10 active torsions:
REMARK  status: ('A' for Active; 'I' for Inactive)
REMARK    1  A    between atoms: C_1  and  C_2
REMARK    2  A    between atoms: C_2  and  C_3
REMARK    3  A    between atoms: C_3  and  N_4
REMARK    4  A    between atoms: N_4  and  C_5
REMARK    5  A    between atoms: C_5  and  C_7
REMARK    6  A    between atoms: C_5  and  C_14
REMARK    7  A    between atoms: N_16  and  C_17
REMARK    8  A    between atoms: C_23  and  C_25
REMARK    9  A    between atoms: C_26  and  O_32
REMARK   10  A    between atoms: C_30  and  O_31
REMARK                            x       y       z     vdW  Elec       q    Type
REMARK                         _______ _______ _______ _____ _____    ______ ____
ROOT
ATOM      1  C   UNL     1       1.659  -2.778   0.589  0.00  0.00    +0.192 C 
ENDROOT
BRANCH   1   2
ATOM      2  C   UNL     1       1.881  -3.511  -0.709  0.00  0.00    -0.018 A 
ATOM      3  C   UNL     1       2.251  -2.813  -1.843  0.00  0.00    +0.007 A 
ATOM      4  C   UNL     1       2.455  -3.485  -3.033  0.00  0.00    +0.020 A 
ATOM      5  C   UNL     1       2.290  -4.857  -3.089  0.00  0.00    +0.041 A 
ATOM      6  C   UNL     1       1.920  -5.556  -1.954  0.00  0.00    +0.020 A 
ATOM      7  C   UNL     1       1.722  -4.884  -0.763  0.00  0.00    +0.007 A 
ATOM      8 CL   UNL     1       2.546  -5.702  -4.584  0.00  0.00    -0.084 Cl
ENDBRANCH   1   2
BRANCH   1   9
ATOM      9  C   UNL     1       2.981  -2.564   1.279  0.00  0.00    +0.238 C 
ATOM     10  O   UNL     1       3.038  -1.891   2.286  0.00  0.00    -0.273 OA
ATOM     11  N   UNL     1       4.101  -3.122   0.776  0.00  0.00    -0.311 N 
ATOM     12  H   UNL     1       4.056  -3.660  -0.029  0.00  0.00    +0.149 HD
BRANCH  11  13
ATOM     13  C   UNL     1       5.387  -2.914   1.447  0.00  0.00    +0.073 C 
ATOM     14  C   UNL     1       6.004  -1.598   0.970  0.00  0.00    +0.022 C 
ATOM     15  C   UNL     1       7.347  -1.381   1.671  0.00  0.00    +0.002 C 
ATOM     16  C   UNL     1       8.290  -2.538   1.335  0.00  0.00    +0.000 C 
ATOM     17  C   UNL     1       7.673  -3.854   1.812  0.00  0.00    +0.002 C 
ATOM     18  C   UNL     1       6.330  -4.071   1.111  0.00  0.00    +0.022 C 
ENDBRANCH  11  13
ENDBRANCH   1   9
BRANCH   1  19
ATOM     19  N   UNL     1       1.035  -1.481   0.316  0.00  0.00    -0.282 N 
ATOM     20  C   UNL     1      -0.165  -1.425  -0.295  0.00  0.00    +0.255 C 
ATOM     21  O   UNL     1      -0.730  -2.452  -0.620  0.00  0.00    -0.270 OA
BRANCH  20  22
ATOM     22  C   UNL     1      -0.791  -0.121  -0.570  0.00  0.00    +0.119 A 
ATOM     23  C   UNL     1      -0.545   0.539  -1.783  0.00  0.00    +0.133 A 
ATOM     24  C   UNL     1      -1.141   1.765  -2.031  0.00  0.00    +0.046 A 
ATOM     25  C   UNL     1      -1.974   2.338  -1.089  0.00  0.00    +0.007 A 
ATOM     26  C   UNL     1      -2.223   1.696   0.110  0.00  0.00    +0.046 A 
ATOM     27  C   UNL     1      -1.643   0.467   0.377  0.00  0.00    +0.133 A 
BRANCH  27  28
ATOM     28  O   UNL     1      -1.893  -0.164   1.551  0.00  0.00    -0.506 OA
ATOM     29  H   UNL     1      -1.275   0.062   2.259  0.00  0.00    +0.292 HD
ENDBRANCH  27  28
BRANCH  23  30
ATOM     30  O   UNL     1       0.272  -0.021  -2.709  0.00  0.00    -0.506 OA
ATOM     31  H   UNL     1      -0.183  -0.593  -3.341  0.00  0.00    +0.292 HD
ENDBRANCH  23  30
ENDBRANCH  20  22
BRANCH  19  32
ATOM     32  C   UNL     1       1.716  -0.244   0.707  0.00  0.00    +0.109 C 
BRANCH  32  34
ATOM     33  C   UNL     1       3.653   1.257   0.217  0.00  0.00    +0.005 C 
ATOM     34  C   UNL     1       2.880   0.022  -0.251  0.00  0.00    +0.016 C 
ENDBRANCH  32  34
ENDBRANCH  19  32
ENDBRANCH   1  19
TORSDOF 9
