REMARK  Name = ZINC40799522
REMARK  6 active torsions:
REMARK  status: ('A' for Active; 'I' for Inactive)
REMARK    1  A    between atoms: C_5  and  N_7
REMARK    2  A    between atoms: C_14  and  N_31
REMARK    3  A    between atoms: C_15  and  N_19
REMARK    4  A    between atoms: N_19  and  C_20
REMARK    5  A    between atoms: C_23  and  O_26
REMARK    6  A    between atoms: O_26  and  C_27
REMARK                            x       y       z     vdW  Elec       q    Type
REMARK                         _______ _______ _______ _____ _____    ______ ____
ROOT
ATOM      1  N   UNL     1       0.428  -2.110   1.169  0.00  0.00    -0.325 N 
ATOM      2  C   UNL     1      -0.797  -2.902   1.344  0.00  0.00    +0.124 C 
ATOM      3  C   UNL     1      -0.938  -3.857   0.152  0.00  0.00    +0.125 C 
ATOM      4  N   UNL     1       0.338  -4.560  -0.040  0.00  0.00    -0.311 N 
ATOM      5  C   UNL     1       1.564  -3.768  -0.214  0.00  0.00    +0.125 C 
ATOM      6  C   UNL     1       1.704  -2.813   0.972  0.00  0.00    +0.124 C 
ATOM      7  C   UNL     1       0.386  -5.949  -0.055  0.00  0.00    +0.147 A 
ATOM      8  C   UNL     1       0.161  -6.653  -1.239  0.00  0.00    +0.106 A 
ATOM      9  C   UNL     1       0.221  -8.047  -1.199  0.00  0.00    +0.149 A 
ATOM     10  N   UNL     1       0.487  -8.648  -0.041  0.00  0.00    -0.219 NA
ATOM     11  C   UNL     1       0.693  -7.946   1.054  0.00  0.00    +0.225 A 
ATOM     12  N   UNL     1       0.651  -6.628   1.058  0.00  0.00    -0.219 NA
ENDROOT
BRANCH   1  17
ATOM     13  C   UNL     1       0.132   1.370   0.022  0.00  0.00    +0.002 A 
ATOM     14  C   UNL     1       0.288   2.054   1.213  0.00  0.00    +0.003 A 
ATOM     15  C   UNL     1       0.490   1.359   2.392  0.00  0.00    +0.040 A 
ATOM     16  C   UNL     1       0.537  -0.023   2.381  0.00  0.00    +0.144 A 
ATOM     17  C   UNL     1       0.381  -0.713   1.184  0.00  0.00    +0.065 A 
ATOM     18  C   UNL     1       0.178  -0.011   0.004  0.00  0.00    +0.026 A 
ATOM     19  F   UNL     1       0.736  -0.702   3.533  0.00  0.00    -0.204 F 
ENDBRANCH   1  17
BRANCH   8  20
ATOM     20  N   UNL     1      -0.118  -5.978  -2.438  0.00  0.00    -0.353 N 
ATOM     21  H   UNL     1      -0.066  -5.010  -2.473  0.00  0.00    +0.143 HD
ATOM     22  H   UNL     1      -0.362  -6.479  -3.232  0.00  0.00    +0.143 HD
ENDBRANCH   8  20
BRANCH   9  23
ATOM     23  N   UNL     1       0.004  -8.797  -2.349  0.00  0.00    -0.298 N 
ATOM     24  H   UNL     1      -0.113  -8.352  -3.203  0.00  0.00    +0.154 HD
BRANCH  23  25
ATOM     25  C   UNL     1      -0.043 -10.194  -2.276  0.00  0.00    +0.033 A 
ATOM     26  C   UNL     1       0.411 -10.962  -3.340  0.00  0.00    +0.027 A 
ATOM     27  C   UNL     1       0.364 -12.340  -3.267  0.00  0.00    +0.048 A 
ATOM     28  C   UNL     1      -0.138 -12.957  -2.131  0.00  0.00    +0.130 A 
ATOM     29  C   UNL     1      -0.593 -12.191  -1.067  0.00  0.00    +0.048 A 
ATOM     30  C   UNL     1      -0.540 -10.813  -1.137  0.00  0.00    +0.027 A 
BRANCH  28  31
ATOM     31  O   UNL     1      -0.184 -14.315  -2.059  0.00  0.00    -0.406 OA
BRANCH  31  32
ATOM     32  C   UNL     1      -0.713 -14.883  -0.860  0.00  0.00    +0.575 C 
ATOM     33  F   UNL     1      -2.032 -14.452  -0.681  0.00  0.00    -0.133 F 
ATOM     34  F   UNL     1      -0.688 -16.279  -0.955  0.00  0.00    -0.133 F 
ATOM     35  F   UNL     1       0.062 -14.476   0.231  0.00  0.00    -0.133 F 
ENDBRANCH  31  32
ENDBRANCH  28  31
ENDBRANCH  23  25
ENDBRANCH   9  23
TORSDOF 6
