REMARK  Name = ZINC04337513
REMARK  4 active torsions:
REMARK  status: ('A' for Active; 'I' for Inactive)
REMARK    1  A    between atoms: C_4  and  C_7
REMARK    2  A    between atoms: C_9  and  C_19
REMARK    3  A    between atoms: C_14  and  C_15
REMARK    4  A    between atoms: N_16  and  O_17
REMARK                            x       y       z     vdW  Elec       q    Type
REMARK                         _______ _______ _______ _____ _____    ______ ____
ROOT
ATOM      1  C   UNL     1       3.731  -0.609   0.004  0.00  0.00    -0.000 A 
ATOM      2  C   UNL     1       4.588  -0.499  -1.103  0.00  0.00    +0.035 A 
ATOM      3  C   UNL     1       5.742  -1.249  -1.149  0.00  0.00    +0.050 A 
ATOM      4  N   UNL     1       6.067  -2.102  -0.130  0.00  0.00    -0.321 N 
ATOM      5  H   UNL     1       6.885  -2.620  -0.185  0.00  0.00    +0.169 HD
ATOM      6  C   UNL     1       5.271  -2.234   0.947  0.00  0.00    +0.260 A 
ATOM      7  O   UNL     1       5.583  -3.001   1.843  0.00  0.00    -0.267 OA
ATOM      8  C   UNL     1       4.077  -1.483   1.047  0.00  0.00    +0.090 A 
ENDROOT
BRANCH   3   9
ATOM      9  C   UNL     1       6.641  -1.131  -2.314  0.00  0.00    -0.001 A 
ATOM     10  C   UNL     1       6.314  -0.250  -3.362  0.00  0.00    +0.010 A 
ATOM     11  C   UNL     1       7.125  -0.124  -4.443  0.00  0.00    +0.009 A 
ATOM     12  C   UNL     1       8.309  -0.879  -4.527  0.00  0.00    -0.018 A 
ATOM     13  C   UNL     1       9.164  -0.765  -5.636  0.00  0.00    +0.008 A 
ATOM     14  C   UNL     1      10.303  -1.508  -5.690  0.00  0.00    +0.001 A 
ATOM     15  C   UNL     1      10.639  -2.384  -4.659  0.00  0.00    +0.001 A 
ATOM     16  C   UNL     1       9.836  -2.521  -3.568  0.00  0.00    +0.008 A 
ATOM     17  C   UNL     1       8.650  -1.770  -3.478  0.00  0.00    -0.017 A 
ATOM     18  C   UNL     1       7.804  -1.883  -2.365  0.00  0.00    +0.018 A 
ENDBRANCH   3   9
BRANCH   1  22
ATOM     19  C   UNL     1       0.156   1.680   0.200  0.00  0.00    +0.000 A 
ATOM     20  C   UNL     1       1.384   2.318   0.211  0.00  0.00    +0.001 A 
ATOM     21  C   UNL     1       2.548   1.580   0.148  0.00  0.00    +0.008 A 
ATOM     22  C   UNL     1       2.486   0.188   0.073  0.00  0.00    -0.017 A 
ATOM     23  C   UNL     1       1.244  -0.449   0.062  0.00  0.00    +0.008 A 
ATOM     24  C   UNL     1       0.087   0.300   0.126  0.00  0.00    +0.001 A 
ENDBRANCH   1  22
BRANCH   8  25
ATOM     25  C   UNL     1       3.206  -1.620   2.226  0.00  0.00    +0.168 C 
ATOM     26  N   UNL     1       3.036  -0.609   3.032  0.00  0.00    -0.071 NA
ATOM     27  N   UNL     1       2.566  -2.823   2.479  0.00  0.00    -0.340 N 
ATOM     28  H   UNL     1       2.752  -3.597   1.925  0.00  0.00    +0.144 HD
ATOM     29  H   UNL     1       1.932  -2.891   3.210  0.00  0.00    +0.144 HD
BRANCH  26  30
ATOM     30  O   UNL     1       2.198  -0.740   4.166  0.00  0.00    -0.408 OA
ATOM     31  H   UNL     1       2.134   0.061   4.703  0.00  0.00    +0.328 HD
ENDBRANCH  26  30
ENDBRANCH   8  25
TORSDOF 4
