REMARK  Name = ZINC19125619
REMARK  7 active torsions:
REMARK  status: ('A' for Active; 'I' for Inactive)
REMARK    1  A    between atoms: C_1  and  C_2
REMARK    2  A    between atoms: C_9  and  O_33
REMARK    3  A    between atoms: C_18  and  C_19
REMARK    4  A    between atoms: C_18  and  N_60
REMARK    5  A    between atoms: C_19  and  C_21
REMARK    6  A    between atoms: C_19  and  O_32
REMARK    7  A    between atoms: C_22  and  C_31
REMARK                            x       y       z     vdW  Elec       q    Type
REMARK                         _______ _______ _______ _____ _____    ______ ____
ROOT
ATOM      1  C   UNL     1       9.852   8.669  -5.562  0.00  0.00    +0.045 C 
ATOM      2  C   UNL     1      10.025   7.353  -4.848  0.00  0.00    -0.029 A 
ATOM      3  C   UNL     1       9.233   7.049  -3.759  0.00  0.00    +0.050 A 
ATOM      4  C   UNL     1       9.389   5.835  -3.097  0.00  0.00    +0.127 A 
ATOM      5  C   UNL     1      10.340   4.931  -3.537  0.00  0.00    +0.024 A 
ATOM      6  C   UNL     1      11.133   5.242  -4.628  0.00  0.00    +0.030 A 
ATOM      7  C   UNL     1      10.977   6.449  -5.283  0.00  0.00    +0.044 A 
ATOM      8 CL   UNL     1      11.976   6.831  -6.651  0.00  0.00    -0.083 Cl
ATOM      9  C   UNL     1      10.536   3.601  -2.853  0.00  0.00    +0.152 C 
ATOM     10  C   UNL     1       9.906   3.639  -1.459  0.00  0.00    +0.084 C 
ATOM     11  C   UNL     1       8.494   4.223  -1.583  0.00  0.00    +0.110 C 
ATOM     12  O   UNL     1       8.597   5.576  -2.023  0.00  0.00    -0.485 OA
ATOM     13  C   UNL     1       7.691   3.408  -2.599  0.00  0.00    +0.029 C 
ATOM     14  C   UNL     1       6.265   3.958  -2.673  0.00  0.00    -0.075 C 
ATOM     15  C   UNL     1       6.367   4.697  -0.367  0.00  0.00    -0.075 C 
ATOM     16  C   UNL     1       7.797   4.171  -0.223  0.00  0.00    +0.029 C 
ATOM     17  N   UNL     1       5.640   3.851  -1.338  0.00  0.00    +0.382 N 
ATOM     18  H   UNL     1       5.685   2.874  -1.026  0.00  0.00    -0.082 HD
ENDROOT
BRANCH   9  19
ATOM     19  O   UNL     1      11.934   3.330  -2.736  0.00  0.00    -0.387 OA
ATOM     20  H   UNL     1      12.400   3.291  -3.582  0.00  0.00    +0.210 HD
ENDBRANCH   9  19
BRANCH  17  21
ATOM     21  C   UNL     1       4.224   4.267  -1.408  0.00  0.00    -0.042 C 
BRANCH  21  22
ATOM     22  C   UNL     1       3.409   3.127  -2.021  0.00  0.00    +0.130 C 
BRANCH  22  23
ATOM     23  C   UNL     1       1.959   3.529  -2.096  0.00  0.00    +0.007 A 
ATOM     24  C   UNL     1       1.094   3.591  -1.071  0.00  0.00    +0.019 A 
ATOM     25  N   UNL     1      -0.134   3.995  -1.521  0.00  0.00    -0.358 N 
ATOM     26  H   UNL     1      -0.919   4.114  -0.964  0.00  0.00    +0.166 HD
ATOM     27  C   UNL     1      -0.088   4.208  -2.880  0.00  0.00    +0.047 A 
ATOM     28  C   UNL     1       1.225   3.925  -3.300  0.00  0.00    +0.005 A 
ATOM     29  C   UNL     1       1.569   4.056  -4.647  0.00  0.00    +0.010 A 
ATOM     30  C   UNL     1       0.627   4.459  -5.551  0.00  0.00    +0.001 A 
ATOM     31  C   UNL     1      -0.668   4.744  -5.141  0.00  0.00    +0.002 A 
ATOM     32  C   UNL     1      -1.030   4.616  -3.818  0.00  0.00    +0.026 A 
ATOM     33  C   UNL     1       1.426   3.265   0.362  0.00  0.00    +0.063 C 
ENDBRANCH  22  23
BRANCH  22  34
ATOM     34  O   UNL     1       3.538   1.959  -1.208  0.00  0.00    -0.389 OA
ATOM     35  H   UNL     1       3.228   2.075  -0.300  0.00  0.00    +0.210 HD
ENDBRANCH  22  34
ENDBRANCH  21  22
ENDBRANCH  17  21
TORSDOF 5
