REMARK  Name = ZINC12565612
REMARK  8 active torsions:
REMARK  status: ('A' for Active; 'I' for Inactive)
REMARK    1  A    between atoms: C_4  and  C_7
REMARK    2  A    between atoms: C_10  and  C_36
REMARK    3  A    between atoms: C_15  and  C_17
REMARK    4  A    between atoms: C_17  and  O_18
REMARK    5  A    between atoms: O_18  and  C_19
REMARK    6  A    between atoms: C_24  and  C_25
REMARK    7  A    between atoms: C_26  and  C_27
REMARK    8  A    between atoms: C_27  and  C_29
REMARK                            x       y       z     vdW  Elec       q    Type
REMARK                         _______ _______ _______ _____ _____    ______ ____
ROOT
ATOM      1  C   UNL     1      -0.139   5.344   0.137  0.00  0.00    +0.064 C 
ATOM      2  C   UNL     1      -0.822   5.792  -1.158  0.00  0.00    +0.043 C 
ATOM      3  C   UNL     1      -0.980   7.319  -1.120  0.00  0.00    +0.132 C 
ATOM      4  N   UNL     1      -1.806   7.649   0.051  0.00  0.00    -0.183 N 
ATOM      5  N   UNL     1      -1.559   6.984   1.260  0.00  0.00    -0.189 NA
ATOM      6  C   UNL     1      -0.824   5.952   1.327  0.00  0.00    +0.111 C 
ATOM      7  C   UNL     1      -2.783   8.573  -0.036  0.00  0.00    +0.273 C 
ATOM      8  O   UNL     1      -2.919   9.218  -1.054  0.00  0.00    -0.270 OA
ENDROOT
BRANCH   1  12
ATOM      9  C   UNL     1      -0.317   1.086   0.426  0.00  0.00    +0.000 A 
ATOM     10  C   UNL     1      -1.484   1.824   0.373  0.00  0.00    +0.000 A 
ATOM     11  C   UNL     1      -1.427   3.203   0.285  0.00  0.00    +0.004 A 
ATOM     12  C   UNL     1      -0.202   3.842   0.239  0.00  0.00    -0.039 A 
ATOM     13  C   UNL     1       0.965   3.103   0.286  0.00  0.00    +0.004 A 
ATOM     14  C   UNL     1       0.908   1.725   0.380  0.00  0.00    +0.000 A 
ENDBRANCH   1  12
BRANCH   3  15
ATOM     15  C   UNL     1      -1.661   7.796  -2.377  0.00  0.00    -0.025 A 
ATOM     16  C   UNL     1      -2.923   7.332  -2.699  0.00  0.00    +0.005 A 
ATOM     17  C   UNL     1      -3.550   7.774  -3.849  0.00  0.00    +0.000 A 
ATOM     18  C   UNL     1      -2.910   8.671  -4.683  0.00  0.00    +0.000 A 
ATOM     19  C   UNL     1      -1.646   9.131  -4.365  0.00  0.00    +0.000 A 
ATOM     20  C   UNL     1      -1.022   8.694  -3.212  0.00  0.00    +0.005 A 
ENDBRANCH   3  15
BRANCH   7  21
ATOM     21  C   UNL     1      -3.708   8.805   1.131  0.00  0.00    +0.326 C 
BRANCH  21  22
ATOM     22  O   UNL     1      -4.651   9.825   0.797  0.00  0.00    -0.482 OA
BRANCH  22  23
ATOM     23  C   UNL     1      -5.562  10.157   1.746  0.00  0.00    +0.128 A 
ATOM     24  C   UNL     1      -5.555   9.512   2.973  0.00  0.00    +0.046 A 
ATOM     25  C   UNL     1      -6.480   9.854   3.940  0.00  0.00    +0.004 A 
ATOM     26  C   UNL     1      -7.428  10.835   3.691  0.00  0.00    +0.001 A 
ATOM     27  C   UNL     1      -7.454  11.483   2.476  0.00  0.00    +0.011 A 
ATOM     28  C   UNL     1      -6.520  11.151   1.488  0.00  0.00    +0.017 A 
BRANCH  28  29
ATOM     29  C   UNL     1      -6.541  11.838   0.190  0.00  0.00    +0.015 C 
ATOM     30  C   UNL     1      -7.465  12.794  -0.054  0.00  0.00    +0.052 C 
BRANCH  30  31
ATOM     31  C   UNL     1      -7.486  13.457  -1.307  0.00  0.00    +0.189 C 
ATOM     32  O   UNL     1      -6.671  13.166  -2.163  0.00  0.00    -0.287 OA
BRANCH  31  33
ATOM     33  C   UNL     1      -8.496  14.503  -1.573  0.00  0.00    +0.057 A 
ATOM     34  C   UNL     1      -9.432  14.840  -0.593  0.00  0.00    +0.014 A 
ATOM     35  C   UNL     1     -10.371  15.817  -0.848  0.00  0.00    +0.001 A 
ATOM     36  C   UNL     1     -10.389  16.464  -2.072  0.00  0.00    +0.003 A 
ATOM     37  C   UNL     1      -9.467  16.137  -3.048  0.00  0.00    +0.039 A 
ATOM     38  C   UNL     1      -8.516  15.163  -2.806  0.00  0.00    +0.134 A 
ATOM     39  F   UNL     1      -7.611  14.848  -3.759  0.00  0.00    -0.205 F 
ENDBRANCH  31  33
ENDBRANCH  30  31
ENDBRANCH  28  29
ENDBRANCH  22  23
ENDBRANCH  21  22
ENDBRANCH   7  21
TORSDOF 8
