REMARK  Name = ZINC05915548
REMARK  8 active torsions:
REMARK  status: ('A' for Active; 'I' for Inactive)
REMARK    1  A    between atoms: C_1  and  O_2
REMARK    2  A    between atoms: O_2  and  C_3
REMARK    3  A    between atoms: C_5  and  C_11
REMARK    4  A    between atoms: C_8  and  O_9
REMARK    5  A    between atoms: N_12  and  N_13
REMARK    6  A    between atoms: C_14  and  C_16
REMARK    7  A    between atoms: C_16  and  C_17
REMARK    8  A    between atoms: C_20  and  N_23
REMARK                            x       y       z     vdW  Elec       q    Type
REMARK                         _______ _______ _______ _____ _____    ______ ____
ROOT
ATOM      1  N   UNL     1       1.237  -4.005  -1.696  0.00  0.00    -0.207 N 
ATOM      2  C   UNL     1       1.222  -2.681  -1.444  0.00  0.00    +0.237 C 
ATOM      3  O   UNL     1       1.202  -1.889  -2.362  0.00  0.00    -0.274 OA
ATOM      4  H   UNL     1       1.253  -4.639  -0.962  0.00  0.00    +0.177 HD
ENDROOT
BRANCH   1   6
ATOM      5  C   UNL     1       1.245  -5.741  -3.263  0.00  0.00    +0.138 C 
ATOM      6  N   UNL     1       1.230  -4.466  -3.019  0.00  0.00    -0.188 NA
BRANCH   5   9
ATOM      7  C   UNL     1       1.247  -8.047  -6.226  0.00  0.00    +0.163 A 
ATOM      8  C   UNL     1       1.260  -7.597  -4.919  0.00  0.00    +0.059 A 
ATOM      9  C   UNL     1       1.238  -6.225  -4.655  0.00  0.00    -0.001 A 
ATOM     10  C   UNL     1       1.215  -5.314  -5.714  0.00  0.00    +0.028 A 
ATOM     11  C   UNL     1       1.208  -5.770  -7.016  0.00  0.00    +0.063 A 
ATOM     12  C   UNL     1       1.224  -7.133  -7.277  0.00  0.00    +0.173 A 
ATOM     13 BR   UNL     1       1.177  -4.535  -8.448  0.00  0.00    -0.046 Br
BRANCH   7  15
ATOM     14  C   UNL     1       1.285 -10.262  -5.360  0.00  0.00    +0.277 C 
ATOM     15  O   UNL     1       1.262  -9.382  -6.486  0.00  0.00    -0.491 OA
ENDBRANCH   7  15
BRANCH  12  16
ATOM     16  O   UNL     1       1.217  -7.578  -8.562  0.00  0.00    -0.503 OA
ATOM     17  H   UNL     1       2.098  -7.694  -8.943  0.00  0.00    +0.292 HD
ENDBRANCH  12  16
ENDBRANCH   5   9
ENDBRANCH   1   6
BRANCH   2  18
ATOM     18  C   UNL     1       1.229  -2.186  -0.021  0.00  0.00    +0.132 C 
BRANCH  18  19
ATOM     19  C   UNL     1       1.208  -0.679  -0.013  0.00  0.00    -0.038 A 
ATOM     20  C   UNL     1       0.002  -0.004   0.002  0.00  0.00    +0.006 A 
ATOM     21  C   UNL     1      -0.017   1.378   0.010  0.00  0.00    +0.033 A 
ATOM     22  C   UNL     1       1.171   2.086   0.002  0.00  0.00    +0.126 A 
ATOM     23  C   UNL     1       2.377   1.411  -0.015  0.00  0.00    +0.033 A 
ATOM     24  C   UNL     1       2.396   0.029  -0.021  0.00  0.00    +0.006 A 
BRANCH  22  25
ATOM     25  N   UNL     1       1.151   3.566   0.010  0.00  0.00    +0.056 N 
ATOM     26  O   UNL     1       0.088   4.160   0.023  0.00  0.00    -0.126 OA
ATOM     27  O   UNL     1       2.197   4.189   0.003  0.00  0.00    -0.126 OA
ENDBRANCH  22  25
ENDBRANCH  18  19
ENDBRANCH   2  18
TORSDOF 7
