REMARK  Name = ZINC09467606
REMARK  9 active torsions:
REMARK  status: ('A' for Active; 'I' for Inactive)
REMARK    1  A    between atoms: C_1  and  C_2
REMARK    2  A    between atoms: C_5  and  C_7
REMARK    3  A    between atoms: C_7  and  C_9
REMARK    4  A    between atoms: C_7  and  C_11
REMARK    5  A    between atoms: C_11  and  C_13
REMARK    6  A    between atoms: C_13  and  S_14
REMARK    7  A    between atoms: S_14  and  C_15
REMARK    8  A    between atoms: N_27  and  C_28
REMARK    9  A    between atoms: C_28  and  C_29
REMARK                            x       y       z     vdW  Elec       q    Type
REMARK                         _______ _______ _______ _____ _____    ______ ____
ROOT
ATOM      1  C   UNL     1       0.124   0.057   9.529  0.00  0.00    +0.173 A 
ATOM      2  N   UNL     1       1.302   0.648   9.521  0.00  0.00    -0.216 NA
ATOM      3  C   UNL     1       2.135   0.515  10.547  0.00  0.00    +0.117 A 
ATOM      4  C   UNL     1       1.814  -0.257  11.673  0.00  0.00    +0.076 A 
ATOM      5  C   UNL     1       2.838  -0.316  12.729  0.00  0.00    -0.023 A 
ATOM      6  C   UNL     1       3.971   0.372  12.514  0.00  0.00    -0.004 A 
ATOM      7  S   UNL     1       3.756   1.129  10.920  0.00  0.00    -0.073 S 
ATOM      8  C   UNL     1       4.940   0.243  13.659  0.00  0.00    +0.043 C 
ATOM      9  C   UNL     1       4.085  -0.282  14.833  0.00  0.00    +0.010 C 
ATOM     10  C   UNL     1       2.946  -1.008  14.091  0.00  0.00    +0.037 C 
ATOM     11  C   UNL     1       0.532  -0.891  11.654  0.00  0.00    +0.263 A 
ATOM     12  O   UNL     1       0.169  -1.581  12.591  0.00  0.00    -0.267 OA
ATOM     13  N   UNL     1      -0.267  -0.714  10.585  0.00  0.00    -0.285 N 
ENDROOT
BRANCH   1  14
ATOM     14  S   UNL     1      -0.958   0.259   8.153  0.00  0.00    -0.080 S 
BRANCH  14  15
ATOM     15  C   UNL     1       0.056   1.336   7.111  0.00  0.00    +0.153 C 
BRANCH  15  16
ATOM     16  C   UNL     1      -0.689   1.652   5.839  0.00  0.00    +0.167 C 
ATOM     17  O   UNL     1      -1.792   1.195   5.657  0.00  0.00    -0.295 OA
BRANCH  16  18
ATOM     18  C   UNL     1      -0.058   2.537   4.795  0.00  0.00    +0.213 C 
BRANCH  18  23
ATOM     19  C   UNL     1      -0.013   1.086   0.008  0.00  0.00    +0.066 C 
ATOM     20  C   UNL     1      -0.718   1.572   1.248  0.00  0.00    +0.046 A 
ATOM     21  C   UNL     1      -2.058   1.790   1.245  0.00  0.00    +0.070 A 
ATOM     22  S   UNL     1      -2.306   2.332   2.930  0.00  0.00    -0.079 S 
ATOM     23  C   UNL     1      -0.651   2.224   3.446  0.00  0.00    +0.103 A 
ATOM     24  N   UNL     1      -0.049   1.800   2.359  0.00  0.00    -0.247 NA
ENDBRANCH  18  23
BRANCH  18  25
ATOM     25  C   UNL     1      -0.313   3.947   5.129  0.00  0.00    +0.080 C 
ATOM     26  N   UNL     1      -0.511   5.036   5.386  0.00  0.00    -0.195 NA
ENDBRANCH  18  25
ENDBRANCH  16  18
ENDBRANCH  15  16
ENDBRANCH  14  15
ENDBRANCH   1  14
BRANCH  13  27
ATOM     27  C   UNL     1      -1.582  -1.360  10.555  0.00  0.00    +0.159 C 
BRANCH  27  28
ATOM     28  C   UNL     1      -1.456  -2.744   9.915  0.00  0.00    +0.138 C 
ATOM     29  C   UNL     1      -2.847  -3.416   9.809  0.00  0.00    +0.035 C 
ATOM     30  C   UNL     1      -2.611  -4.400   8.631  0.00  0.00    +0.031 C 
ATOM     31  C   UNL     1      -1.628  -3.611   7.739  0.00  0.00    +0.160 C 
ATOM     32  O   UNL     1      -0.992  -2.626   8.561  0.00  0.00    -0.375 OA
ENDBRANCH  27  28
ENDBRANCH  13  27
TORSDOF 8
