REMARK  Name = ZINC03369973
REMARK  6 active torsions:
REMARK  status: ('A' for Active; 'I' for Inactive)
REMARK    1  A    between atoms: C_1  and  C_2
REMARK    2  A    between atoms: C_2  and  C_4
REMARK    3  A    between atoms: C_2  and  O_7
REMARK    4  A    between atoms: O_7  and  C_8
REMARK    5  A    between atoms: C_8  and  C_10
REMARK    6  A    between atoms: C_12  and  C_22
REMARK                            x       y       z     vdW  Elec       q    Type
REMARK                         _______ _______ _______ _____ _____    ______ ____
ROOT
ATOM      1  C   UNL     1       2.411  -0.062  -0.021  0.00  0.00    +0.070 A 
ATOM      2  C   UNL     1       1.198  -0.737  -0.026  0.00  0.00    +0.044 A 
ATOM      3  C   UNL     1       0.002  -0.004  -0.011  0.00  0.00    +0.072 A 
ATOM      4  N   UNL     1      -0.016   1.312   0.009  0.00  0.00    -0.246 NA
ATOM      5  C   UNL     1       1.101   2.041   0.016  0.00  0.00    +0.086 A 
ATOM      6  C   UNL     1       2.366   1.400   0.001  0.00  0.00    +0.017 A 
ATOM      7  C   UNL     1       3.535   2.167   0.009  0.00  0.00    +0.026 A 
ATOM      8  C   UNL     1       3.448   3.529   0.030  0.00  0.00    +0.020 A 
ATOM      9  C   UNL     1       2.207   4.165   0.045  0.00  0.00    +0.032 A 
ATOM     10  C   UNL     1       1.050   3.448   0.038  0.00  0.00    +0.045 A 
ATOM     11 BR   UNL     1      -0.619   4.338   0.058  0.00  0.00    -0.048 Br
ATOM     12 BR   UNL     1       5.029   4.566   0.041  0.00  0.00    -0.050 Br
ENDROOT
BRANCH   3  13
ATOM     13  C   UNL     1      -1.287  -0.737  -0.017  0.00  0.00    +0.000 A 
ATOM     14  C   UNL     1      -1.299  -2.131  -0.044  0.00  0.00    +0.010 A 
ATOM     15  C   UNL     1      -2.502  -2.807  -0.044  0.00  0.00    +0.001 A 
ATOM     16  C   UNL     1      -3.694  -2.105  -0.029  0.00  0.00    +0.000 A 
ATOM     17  C   UNL     1      -3.688  -0.722  -0.008  0.00  0.00    +0.001 A 
ATOM     18  C   UNL     1      -2.491  -0.035  -0.002  0.00  0.00    +0.010 A 
ENDBRANCH   3  13
BRANCH   1  19
ATOM     19  C   UNL     1       3.696  -0.791  -0.036  0.00  0.00    +0.341 C 
ATOM     20  O   UNL     1       4.741  -0.179  -0.134  0.00  0.00    -0.245 OA
BRANCH  19  21
ATOM     21  O   UNL     1       3.709  -2.135   0.059  0.00  0.00    -0.449 OA
BRANCH  21  23
ATOM     22  C   UNL     1       5.539  -2.910   1.467  0.00  0.00    +0.062 C 
ATOM     23  C   UNL     1       5.008  -2.785   0.038  0.00  0.00    +0.259 C 
BRANCH  23  24
ATOM     24  C   UNL     1       4.873  -4.157  -0.571  0.00  0.00    +0.251 C 
ATOM     25  O   UNL     1       3.789  -4.549  -0.949  0.00  0.00    -0.272 OA
ATOM     26  N   UNL     1       5.957  -4.949  -0.694  0.00  0.00    -0.326 N 
ATOM     27  H   UNL     1       6.824  -4.635  -0.392  0.00  0.00    +0.145 HD
ATOM     28  H   UNL     1       5.870  -5.832  -1.086  0.00  0.00    +0.145 HD
ENDBRANCH  23  24
ENDBRANCH  21  23
ENDBRANCH  19  21
ENDBRANCH   1  19
TORSDOF 5
