REMARK  Name = ZINC07061161
REMARK  5 active torsions:
REMARK  status: ('A' for Active; 'I' for Inactive)
REMARK    1  A    between atoms: C_1  and  O_2
REMARK    2  A    between atoms: O_2  and  C_3
REMARK    3  A    between atoms: C_3  and  C_5
REMARK    4  A    between atoms: C_9  and  N_10
REMARK    5  A    between atoms: C_11  and  C_13
REMARK                            x       y       z     vdW  Elec       q    Type
REMARK                         _______ _______ _______ _____ _____    ______ ____
ROOT
ATOM      1  N   UNL     1      -0.016   1.344   0.009  0.00  0.00    -0.275 N 
ATOM      2  C   UNL     1       0.002  -0.004   0.002  0.00  0.00    +0.254 C 
ATOM      3  O   UNL     1      -1.043  -0.627   0.009  0.00  0.00    -0.270 OA
ATOM      4  H   UNL     1       0.929   1.907   0.008  0.00  0.00    +0.156 HD
ENDROOT
BRANCH   2   5
ATOM      5  C   UNL     1       1.286  -0.722  -0.014  0.00  0.00    +0.097 A 
ATOM      6  C   UNL     1       2.481  -0.028  -0.028  0.00  0.00    +0.030 A 
ATOM      7  C   UNL     1       3.727  -0.795  -0.037  0.00  0.00    +0.018 A 
ATOM      8  C   UNL     1       4.964  -0.138  -0.044  0.00  0.00    +0.011 A 
ATOM      9  C   UNL     1       6.120  -0.866  -0.059  0.00  0.00    +0.001 A 
ATOM     10  C   UNL     1       6.077  -2.253  -0.068  0.00  0.00    +0.004 A 
ATOM     11  C   UNL     1       4.870  -2.919  -0.061  0.00  0.00    +0.047 A 
ATOM     12  C   UNL     1       3.680  -2.200  -0.045  0.00  0.00    +0.137 A 
ATOM     13  O   UNL     1       2.497  -2.852  -0.038  0.00  0.00    -0.439 OA
ATOM     14  C   UNL     1       1.322  -2.195  -0.022  0.00  0.00    +0.205 A 
ATOM     15  N   UNL     1       0.204  -2.869  -0.015  0.00  0.00    -0.369 N 
ATOM     16  H   UNL     1       0.225  -3.968  -0.021  0.00  0.00    +0.159 HD
ATOM     17  H   UNL     1      -0.759  -2.337  -0.003  0.00  0.00    +0.159 HD
ENDBRANCH   2   5
BRANCH   1  22
ATOM     18  C   UNL     1      -1.447   3.391   0.033  0.00  0.00    +0.091 A 
ATOM     19  C   UNL     1      -2.827   3.847   0.036  0.00  0.00    -0.021 A 
ATOM     20  C   UNL     1      -3.756   2.867   0.036  0.00  0.00    -0.004 A 
ATOM     21  S   UNL     1      -2.827   1.360   0.023  0.00  0.00    -0.077 S 
ATOM     22  C   UNL     1      -1.225   2.019   0.019  0.00  0.00    +0.087 A 
ATOM     23  C   UNL     1      -5.245   3.034   0.045  0.00  0.00    +0.043 C 
ATOM     24  C   UNL     1      -5.566   4.485   0.433  0.00  0.00    +0.005 C 
ATOM     25  C   UNL     1      -4.692   5.424  -0.404  0.00  0.00    +0.005 C 
ATOM     26  C   UNL     1      -3.234   5.315   0.045  0.00  0.00    +0.037 C 
BRANCH  18  27
ATOM     27  C   UNL     1      -0.333   4.341   0.040  0.00  0.00    +0.342 C 
ATOM     28  O   UNL     1       0.128   4.746  -1.010  0.00  0.00    -0.245 OA
BRANCH  27  30
ATOM     29  C   UNL     1       1.286   5.708   1.143  0.00  0.00    +0.280 C 
ATOM     30  O   UNL     1       0.183   4.766   1.212  0.00  0.00    -0.464 OA
ENDBRANCH  27  30
ENDBRANCH  18  27
ENDBRANCH   1  22
TORSDOF 4
