REMARK  Name = ZINC02380756
REMARK  5 active torsions:
REMARK  status: ('A' for Active; 'I' for Inactive)
REMARK    1  A    between atoms: C_4  and  C_7
REMARK    2  A    between atoms: C_8  and  C_9
REMARK    3  A    between atoms: C_10  and  C_11
REMARK    4  A    between atoms: C_10  and  S_13
REMARK    5  A    between atoms: S_13  and  C_16
REMARK                            x       y       z     vdW  Elec       q    Type
REMARK                         _______ _______ _______ _____ _____    ______ ____
ROOT
ATOM      1  C   UNL     1      -0.039   0.983   0.030  0.00  0.00    +0.038 C 
ATOM      2  C   UNL     1       0.984   1.844  -0.196  0.00  0.00    +0.170 C 
ENDROOT
BRANCH   2   3
ATOM      3  S   UNL     1       0.649   3.539  -0.543  0.00  0.00    +0.035 S 
ATOM      4  O   UNL     1       1.714   4.004  -1.361  0.00  0.00    -0.164 OA
ATOM      5  O   UNL     1      -0.710   3.609  -0.950  0.00  0.00    -0.164 OA
BRANCH   3   6
ATOM      6  C   UNL     1       0.764   4.415   0.981  0.00  0.00    +0.094 A 
ATOM      7  C   UNL     1      -0.357   4.574   1.774  0.00  0.00    +0.028 A 
ATOM      8  C   UNL     1      -0.266   5.257   2.972  0.00  0.00    +0.017 A 
ATOM      9  C   UNL     1       0.945   5.791   3.373  0.00  0.00    +0.018 A 
ATOM     10  C   UNL     1       2.066   5.636   2.577  0.00  0.00    +0.017 A 
ATOM     11  C   UNL     1       1.975   4.949   1.382  0.00  0.00    +0.028 A 
ATOM     12 BR   UNL     1       1.069   6.731   5.009  0.00  0.00    -0.050 Br
ENDBRANCH   3   6
ENDBRANCH   2   3
BRANCH   1  14
ATOM     13  C   UNL     1      -2.389   0.614   0.307  0.00  0.00    +0.008 C 
ATOM     14  C   UNL     1      -1.352   1.475   0.199  0.00  0.00    +0.003 C 
BRANCH  13  18
ATOM     15  C   UNL     1      -6.331   2.092   0.813  0.00  0.00    +0.000 A 
ATOM     16  C   UNL     1      -6.110   0.727   0.760  0.00  0.00    +0.001 A 
ATOM     17  C   UNL     1      -4.831   0.239   0.595  0.00  0.00    +0.008 A 
ATOM     18  C   UNL     1      -3.756   1.127   0.483  0.00  0.00    -0.025 A 
ATOM     19  C   UNL     1      -3.988   2.505   0.544  0.00  0.00    +0.008 A 
ATOM     20  C   UNL     1      -5.273   2.978   0.702  0.00  0.00    +0.001 A 
ENDBRANCH  13  18
ENDBRANCH   1  14
BRANCH   2  21
ATOM     21  C   UNL     1       2.337   1.375  -0.154  0.00  0.00    +0.119 C 
ATOM     22  N   UNL     1       3.410   1.004  -0.120  0.00  0.00    -0.189 NA
ENDBRANCH   2  21
TORSDOF 5
