REMARK  Name = ZINC09375648
REMARK  14 active torsions:
REMARK  status: ('A' for Active; 'I' for Inactive)
REMARK    1  A    between atoms: C_1  and  C_2
REMARK    2  A    between atoms: C_2  and  C_3
REMARK    3  A    between atoms: C_3  and  C_5
REMARK    4  A    between atoms: C_3  and  N_69
REMARK    5  A    between atoms: C_8  and  S_17
REMARK    6  A    between atoms: N_9  and  C_10
REMARK    7  A    between atoms: C_10  and  C_11
REMARK    8  A    between atoms: S_17  and  C_18
REMARK    9  A    between atoms: C_18  and  C_20
REMARK   10  A    between atoms: C_18  and  C_21
REMARK   11  A    between atoms: N_23  and  C_24
REMARK   12  A    between atoms: C_29  and  C_30
REMARK   13  A    between atoms: C_36  and  N_69
REMARK   14  A    between atoms: C_37  and  N_69
REMARK                            x       y       z     vdW  Elec       q    Type
REMARK                         _______ _______ _______ _____ _____    ______ ____
ROOT
ATOM      1  C   UNL     1       0.348   0.879   2.376  0.00  0.00    +0.121 A 
ATOM      2  N   UNL     1       1.494   1.279   2.851  0.00  0.00    -0.135 NA
ATOM      3  N   UNL     1       1.731   0.704   3.976  0.00  0.00    -0.123 NA
ATOM      4  C   UNL     1       0.744  -0.108   4.278  0.00  0.00    +0.193 A 
ATOM      5  N   UNL     1      -0.169  -0.021   3.266  0.00  0.00    -0.303 N 
ENDROOT
BRANCH   1   6
ATOM      6  C   UNL     1      -0.286   1.322   1.083  0.00  0.00    +0.000 C 
BRANCH   6   9
ATOM      7  C   UNL     1       0.644   3.557   1.121  0.00  0.00    -0.096 C 
ATOM      8  C   UNL     1      -1.502   3.157   0.073  0.00  0.00    -0.096 C 
ATOM      9  N   UNL     1      -0.601   2.763   1.177  0.00  0.00    +0.383 N 
ATOM     10  H   UNL     1      -1.071   2.944   2.072  0.00  0.00    -0.082 HD
ENDBRANCH   6   9
BRANCH   6  12
ATOM     11  C   UNL     1       0.887  -0.449  -0.233  0.00  0.00    +0.002 C 
ATOM     12  C   UNL     1       0.679   1.059  -0.075  0.00  0.00    -0.011 C 
ENDBRANCH   6  12
ENDBRANCH   1   6
BRANCH   5  13
ATOM     13  C   UNL     1      -1.440  -0.742   3.157  0.00  0.00    +0.160 C 
BRANCH  13  14
ATOM     14  C   UNL     1      -1.219  -2.041   2.425  0.00  0.00    -0.028 A 
ATOM     15  C   UNL     1      -1.416  -2.105   1.058  0.00  0.00    +0.005 A 
ATOM     16  C   UNL     1      -1.209  -3.295   0.385  0.00  0.00    +0.000 A 
ATOM     17  C   UNL     1      -0.815  -4.423   1.081  0.00  0.00    +0.000 A 
ATOM     18  C   UNL     1      -0.623  -4.359   2.448  0.00  0.00    +0.000 A 
ATOM     19  C   UNL     1      -0.825  -3.168   3.120  0.00  0.00    +0.005 A 
ENDBRANCH  13  14
ENDBRANCH   5  13
BRANCH   4  20
ATOM     20  S   UNL     1       0.621  -1.117   5.717  0.00  0.00    -0.074 S 
BRANCH  20  21
ATOM     21  C   UNL     1       2.174  -0.682   6.539  0.00  0.00    +0.137 C 
ATOM     22  C   UNL     1       3.353  -1.151   5.684  0.00  0.00    +0.029 C 
BRANCH  21  23
ATOM     23  C   UNL     1       2.233  -1.353   7.888  0.00  0.00    +0.230 C 
ATOM     24  O   UNL     1       1.600  -2.369   8.088  0.00  0.00    -0.274 OA
ATOM     25  N   UNL     1       2.989  -0.825   8.870  0.00  0.00    -0.284 N 
ATOM     26  H   UNL     1       3.444   0.020   8.731  0.00  0.00    +0.155 HD
BRANCH  25  27
ATOM     27  C   UNL     1       3.116  -1.495  10.090  0.00  0.00    +0.041 A 
ATOM     28  C   UNL     1       2.114  -2.352  10.523  0.00  0.00    +0.024 A 
ATOM     29  C   UNL     1       2.245  -3.017  11.726  0.00  0.00    +0.002 A 
ATOM     30  C   UNL     1       3.368  -2.826  12.512  0.00  0.00    +0.001 A 
ATOM     31  C   UNL     1       4.370  -1.972  12.097  0.00  0.00    +0.010 A 
ATOM     32  C   UNL     1       4.253  -1.300  10.883  0.00  0.00    +0.003 A 
BRANCH  32  33
ATOM     33  C   UNL     1       5.327  -0.382  10.433  0.00  0.00    -0.016 A 
ATOM     34  C   UNL     1       5.856  -0.501   9.149  0.00  0.00    +0.008 A 
ATOM     35  C   UNL     1       6.852   0.359   8.733  0.00  0.00    +0.001 A 
ATOM     36  C   UNL     1       7.333   1.331   9.593  0.00  0.00    +0.000 A 
ATOM     37  C   UNL     1       6.815   1.450  10.870  0.00  0.00    +0.001 A 
ATOM     38  C   UNL     1       5.815   0.599  11.294  0.00  0.00    +0.008 A 
ENDBRANCH  32  33
ENDBRANCH  25  27
ENDBRANCH  21  23
ENDBRANCH  20  21
ENDBRANCH   4  20
TORSDOF 10
