REMARK  Name = ZINC05146588
REMARK  10 active torsions:
REMARK  status: ('A' for Active; 'I' for Inactive)
REMARK    1  A    between atoms: C_1  and  C_2
REMARK    2  A    between atoms: C_3  and  C_18
REMARK    3  A    between atoms: C_4  and  C_15
REMARK    4  A    between atoms: C_5  and  C_14
REMARK    5  A    between atoms: N_6  and  C_7
REMARK    6  A    between atoms: C_7  and  C_8
REMARK    7  A    between atoms: C_18  and  N_19
REMARK    8  A    between atoms: N_19  and  C_20
REMARK    9  A    between atoms: C_20  and  C_21
REMARK   10  A    between atoms: C_21  and  C_22
REMARK                            x       y       z     vdW  Elec       q    Type
REMARK                         _______ _______ _______ _____ _____    ______ ____
ROOT
ATOM      1  C   UNL     1      -0.018   1.503   0.010  0.00  0.00    +0.064 C 
ATOM      2  C   UNL     1       0.002  -0.004   0.002  0.00  0.00    +0.018 A 
ATOM      3  C   UNL     1       0.008  -0.777  -1.097  0.00  0.00    -0.030 A 
ATOM      4  C   UNL     1       0.029  -2.167  -0.625  0.00  0.00    +0.085 A 
ATOM      5  C   UNL     1       0.035  -2.098   0.754  0.00  0.00    +0.031 A 
ATOM      6  N   UNL     1       0.024  -0.801   1.109  0.00  0.00    -0.343 N 
ATOM      7  C   UNL     1       0.057  -3.273   1.698  0.00  0.00    +0.064 C 
ENDROOT
BRANCH   4   8
ATOM      8  C   UNL     1       0.042  -3.382  -1.450  0.00  0.00    +0.388 C 
ATOM      9  O   UNL     1       0.035  -3.292  -2.670  0.00  0.00    -0.241 OA
ATOM     10  O   UNL     1       0.060  -4.483  -0.917  0.00  0.00    -0.241 OA
ENDBRANCH   4   8
BRANCH   6  11
ATOM     11  C   UNL     1       0.030  -0.313   2.491  0.00  0.00    +0.156 C 
BRANCH  11  12
ATOM     12  C   UNL     1      -1.388  -0.166   2.978  0.00  0.00    -0.028 A 
ATOM     13  C   UNL     1      -2.061   1.029   2.797  0.00  0.00    +0.005 A 
ATOM     14  C   UNL     1      -3.362   1.164   3.244  0.00  0.00    +0.000 A 
ATOM     15  C   UNL     1      -3.991   0.104   3.871  0.00  0.00    +0.000 A 
ATOM     16  C   UNL     1      -3.319  -1.090   4.051  0.00  0.00    +0.000 A 
ATOM     17  C   UNL     1      -2.019  -1.227   3.600  0.00  0.00    +0.005 A 
ENDBRANCH  11  12
ENDBRANCH   6  11
BRANCH   3  18
ATOM     18  C   UNL     1      -0.006  -0.310  -2.530  0.00  0.00    -0.044 C 
BRANCH  18  19
ATOM     19  N   UNL     1       1.374  -0.139  -3.002  0.00  0.00    +0.382 N 
ATOM     20  H   UNL     1       1.843   0.547  -2.429  0.00  0.00    -0.085 HD
ATOM     21  H   UNL     1       1.863  -1.020  -2.940  0.00  0.00    -0.085 HD
BRANCH  19  22
ATOM     22  C   UNL     1       1.361   0.316  -4.399  0.00  0.00    -0.078 C 
BRANCH  22  23
ATOM     23  C   UNL     1       2.799   0.494  -4.891  0.00  0.00    +0.011 C 
BRANCH  23  24
ATOM     24  C   UNL     1       2.785   0.961  -6.324  0.00  0.00    -0.075 C 
ATOM     25  C   UNL     1       2.871   2.233  -6.548  0.00  0.00    -0.028 C 
ATOM     26  C   UNL     1       2.860   2.848  -7.918  0.00  0.00    +0.027 C 
ATOM     27  C   UNL     1       3.161   1.784  -8.975  0.00  0.00    +0.004 C 
ATOM     28  C   UNL     1       2.252   0.575  -8.720  0.00  0.00    +0.005 C 
ATOM     29  C   UNL     1       2.679  -0.078  -7.401  0.00  0.00    +0.030 C 
ENDBRANCH  23  24
ENDBRANCH  22  23
ENDBRANCH  19  22
ENDBRANCH  18  19
ENDBRANCH   3  18
TORSDOF 8
