REMARK  Name = ZINC63318938
REMARK  9 active torsions:
REMARK  status: ('A' for Active; 'I' for Inactive)
REMARK    1  A    between atoms: C_1  and  C_2
REMARK    2  A    between atoms: C_6  and  C_8
REMARK    3  A    between atoms: C_8  and  N_9
REMARK    4  A    between atoms: C_11  and  C_19
REMARK    5  A    between atoms: C_20  and  C_21
REMARK    6  A    between atoms: C_20  and  C_23
REMARK    7  A    between atoms: N_25  and  C_26
REMARK    8  A    between atoms: C_26  and  C_27
REMARK    9  A    between atoms: C_27  and  C_28
REMARK                            x       y       z     vdW  Elec       q    Type
REMARK                         _______ _______ _______ _____ _____    ______ ____
ROOT
ATOM      1  C   UNL     1       3.903  -5.128   4.178  0.00  0.00    +0.007 C 
ATOM      2  C   UNL     1       4.992  -5.902   4.010  0.00  0.00    +0.110 C 
ENDROOT
BRANCH   1   5
ATOM      3  N   UNL     1       1.440  -3.073   2.903  0.00  0.00    -0.324 N 
ATOM      4  C   UNL     1       2.247  -4.238   2.530  0.00  0.00    +0.117 C 
ATOM      5  C   UNL     1       3.611  -4.016   3.203  0.00  0.00    +0.062 C 
ATOM      6  C   UNL     1       3.465  -2.698   3.930  0.00  0.00    -0.018 A 
ATOM      7  C   UNL     1       2.187  -2.210   3.706  0.00  0.00    +0.034 A 
ATOM      8  C   UNL     1       1.818  -0.991   4.277  0.00  0.00    +0.023 A 
ATOM      9  C   UNL     1       2.716  -0.284   5.049  0.00  0.00    +0.002 A 
ATOM     10  C   UNL     1       3.990  -0.778   5.263  0.00  0.00    +0.000 A 
ATOM     11  C   UNL     1       4.360  -1.989   4.708  0.00  0.00    +0.006 A 
BRANCH   3  12
ATOM     12  C   UNL     1       0.054  -2.845   2.489  0.00  0.00    +0.140 C 
BRANCH  12  18
ATOM     13  C   UNL     1      -0.018   1.503   0.010  0.00  0.00    +0.044 C 
ATOM     14  C   UNL     1       0.002  -0.004   0.002  0.00  0.00    -0.050 A 
ATOM     15  C   UNL     1       0.006  -0.689  -1.199  0.00  0.00    +0.003 A 
ATOM     16  C   UNL     1       0.025  -2.071  -1.207  0.00  0.00    +0.001 A 
ATOM     17  C   UNL     1       0.040  -2.768  -0.013  0.00  0.00    +0.005 A 
ATOM     18  C   UNL     1       0.037  -2.084   1.188  0.00  0.00    -0.030 A 
ATOM     19  C   UNL     1       0.023  -0.702   1.195  0.00  0.00    +0.008 A 
ENDBRANCH  12  18
ENDBRANCH   3  12
ENDBRANCH   1   5
BRANCH   2  20
ATOM     20  C   UNL     1       5.279  -6.992   4.966  0.00  0.00    +0.254 C 
ATOM     21  O   UNL     1       4.531  -7.190   5.903  0.00  0.00    -0.269 OA
ATOM     22  N   UNL     1       6.369  -7.766   4.798  0.00  0.00    -0.310 N 
ATOM     23  H   UNL     1       6.966  -7.607   4.050  0.00  0.00    +0.149 HD
BRANCH  22  24
ATOM     24  C   UNL     1       6.653  -8.847   5.745  0.00  0.00    +0.109 C 
BRANCH  24  25
ATOM     25  C   UNL     1       7.938  -9.565   5.329  0.00  0.00    +0.052 C 
BRANCH  25  26
ATOM     26  C   UNL     1       8.230 -10.677   6.304  0.00  0.00    -0.040 C 
ATOM     27  C   UNL     1       7.893 -11.981   6.175  0.00  0.00    -0.001 A 
ATOM     28  C   UNL     1       7.181 -12.725   5.129  0.00  0.00    +0.010 A 
ATOM     29  C   UNL     1       6.991 -14.055   5.285  0.00  0.00    +0.001 A 
ATOM     30  C   UNL     1       7.455 -14.738   6.417  0.00  0.00    +0.002 A 
ATOM     31  C   UNL     1       8.117 -14.123   7.420  0.00  0.00    +0.026 A 
ATOM     32  C   UNL     1       8.374 -12.726   7.360  0.00  0.00    +0.043 A 
ATOM     33  N   UNL     1       8.983 -11.914   8.190  0.00  0.00    -0.380 N 
ATOM     34  C   UNL     1       8.964 -10.562   7.621  0.00  0.00    +0.144 C 
ATOM     35  H   UNL     1       9.384 -12.166   9.037  0.00  0.00    +0.160 HD
ENDBRANCH  25  26
ENDBRANCH  24  25
ENDBRANCH  22  24
ENDBRANCH   2  20
BRANCH   2  36
ATOM     36  C   UNL     1       5.873  -5.668   2.906  0.00  0.00    +0.104 C 
ATOM     37  N   UNL     1       6.572  -5.482   2.030  0.00  0.00    -0.191 NA
ENDBRANCH   2  36
TORSDOF 8
