REMARK  Name = ZINC09312513
REMARK  7 active torsions:
REMARK  status: ('A' for Active; 'I' for Inactive)
REMARK    1  A    between atoms: C_4  and  N_35
REMARK    2  A    between atoms: C_5  and  C_7
REMARK    3  A    between atoms: C_10  and  C_12
REMARK    4  A    between atoms: C_14  and  C_26
REMARK    5  A    between atoms: C_16  and  C_21
REMARK    6  A    between atoms: C_18  and  O_20
REMARK    7  A    between atoms: C_26  and  C_28
REMARK                            x       y       z     vdW  Elec       q    Type
REMARK                         _______ _______ _______ _____ _____    ______ ____
ROOT
ATOM      1  C   UNL     1       2.702  -6.112  -1.322  0.00  0.00    +0.156 C 
ATOM      2  C   UNL     1       4.033  -5.949  -0.573  0.00  0.00    +0.152 C 
ATOM      3  C   UNL     1       5.069  -6.870  -1.223  0.00  0.00    +0.284 C 
ATOM      4  N   UNL     1       5.074  -6.694  -2.671  0.00  0.00    -0.306 N 
ATOM      5  C   UNL     1       4.092  -6.186  -3.335  0.00  0.00    +0.256 C 
ATOM      6  N   UNL     1       2.940  -5.750  -2.728  0.00  0.00    -0.290 N 
ATOM      7  O   UNL     1       4.752  -8.228  -0.914  0.00  0.00    -0.194 OA
ATOM      8  H   UNL     1       2.297  -5.212  -3.215  0.00  0.00    +0.151 HD
ATOM      9  H   UNL     1       5.862  -6.976  -3.162  0.00  0.00    +0.167 HD
ENDROOT
BRANCH   1  13
ATOM     10  C   UNL     1       0.513  -3.386  -0.261  0.00  0.00    +0.137 A 
ATOM     11  C   UNL     1      -0.052  -4.407   0.435  0.00  0.00    +0.050 A 
ATOM     12  C   UNL     1       0.691  -5.566   0.131  0.00  0.00    +0.047 A 
ATOM     13  C   UNL     1       1.663  -5.197  -0.726  0.00  0.00    +0.127 A 
ATOM     14  O   UNL     1       1.550  -3.881  -0.965  0.00  0.00    -0.458 OA
BRANCH  10  19
ATOM     15  C   UNL     1      -1.692  -0.352  -0.453  0.00  0.00    +0.001 A 
ATOM     16  C   UNL     1      -0.775   0.661  -0.237  0.00  0.00    +0.002 A 
ATOM     17  C   UNL     1       0.559   0.362  -0.028  0.00  0.00    +0.033 A 
ATOM     18  C   UNL     1       0.985  -0.950  -0.035  0.00  0.00    +0.137 A 
ATOM     19  C   UNL     1       0.065  -1.978  -0.252  0.00  0.00    +0.047 A 
ATOM     20  C   UNL     1      -1.280  -1.669  -0.462  0.00  0.00    +0.014 A 
BRANCH  18  21
ATOM     21  N   UNL     1       2.413  -1.268   0.188  0.00  0.00    +0.057 N 
ATOM     22  O   UNL     1       3.209  -0.378   0.376  0.00  0.00    -0.126 OA
ATOM     23  O   UNL     1       2.784  -2.419   0.182  0.00  0.00    -0.126 OA
ENDBRANCH  18  21
ENDBRANCH  10  19
ENDBRANCH   1  13
BRANCH   3  24
ATOM     24  C   UNL     1       6.457  -6.537  -0.669  0.00  0.00    +0.441 C 
ATOM     25  F   UNL     1       6.431  -6.611   0.727  0.00  0.00    -0.166 F 
ATOM     26  F   UNL     1       7.389  -7.453  -1.168  0.00  0.00    -0.166 F 
ATOM     27  F   UNL     1       6.818  -5.244  -1.062  0.00  0.00    -0.166 F 
ENDBRANCH   3  24
BRANCH   5  28
ATOM     28  O   UNL     1       4.200  -6.081  -4.678  0.00  0.00    -0.483 OA
ATOM     29  H   UNL     1       5.038  -6.410  -5.032  0.00  0.00    +0.295 HD
ENDBRANCH   5  28
BRANCH   2  30
ATOM     30  C   UNL     1       4.496  -4.518  -0.666  0.00  0.00    +0.173 C 
ATOM     31  O   UNL     1       4.372  -3.907  -1.706  0.00  0.00    -0.292 OA
BRANCH  30  32
ATOM     32  C   UNL     1       5.098  -3.862   0.505  0.00  0.00    +0.018 A 
ATOM     33  C   UNL     1       5.125  -4.518   1.741  0.00  0.00    +0.013 A 
ATOM     34  C   UNL     1       5.691  -3.898   2.834  0.00  0.00    +0.020 A 
ATOM     35  C   UNL     1       6.231  -2.627   2.711  0.00  0.00    +0.041 A 
ATOM     36  C   UNL     1       6.207  -1.972   1.490  0.00  0.00    +0.020 A 
ATOM     37  C   UNL     1       5.650  -2.582   0.388  0.00  0.00    +0.013 A 
ATOM     38 CL   UNL     1       6.941  -1.853   4.093  0.00  0.00    -0.084 Cl
ENDBRANCH  30  32
ENDBRANCH   2  30
TORSDOF 7
