REMARK  Name = ZINC63572510
REMARK  2 active torsions:
REMARK  status: ('A' for Active; 'I' for Inactive)
REMARK    1  A    between atoms: C_3  and  N_8
REMARK    2  A    between atoms: C_24  and  C_26
REMARK                            x       y       z     vdW  Elec       q    Type
REMARK                         _______ _______ _______ _____ _____    ______ ____
ROOT
ATOM      1  N   UNL     1       3.831   2.855  -0.325  0.00  0.00    -0.269 N 
ATOM      2  C   UNL     1       4.828   1.982  -0.082  0.00  0.00    +0.307 C 
ATOM      3  O   UNL     1       4.579   0.801   0.069  0.00  0.00    -0.252 OA
ATOM      4  N   UNL     1       6.101   2.416  -0.005  0.00  0.00    -0.276 N 
ATOM      5  C   UNL     1       6.381   3.855  -0.064  0.00  0.00    +0.114 C 
ATOM      6  C   UNL     1       7.337   4.143  -1.236  0.00  0.00    +0.052 C 
ATOM      7  C   UNL     1       8.431   3.107  -1.168  0.00  0.00    -0.035 C 
ATOM      8  C   UNL     1       9.753   3.225  -1.164  0.00  0.00    +0.001 A 
ATOM      9  C   UNL     1      10.633   4.392  -1.334  0.00  0.00    +0.030 A 
ATOM     10  C   UNL     1      11.969   4.153  -1.252  0.00  0.00    +0.042 A 
ATOM     11  C   UNL     1      12.511   2.884  -1.021  0.00  0.00    +0.022 A 
ATOM     12  C   UNL     1      11.777   1.754  -0.861  0.00  0.00    +0.027 A 
ATOM     13  C   UNL     1      10.358   1.877  -0.934  0.00  0.00    +0.043 A 
ATOM     14  N   UNL     1       9.430   0.972  -0.842  0.00  0.00    -0.375 N 
ATOM     15  C   UNL     1       8.134   1.615  -1.061  0.00  0.00    +0.131 C 
ATOM     16  C   UNL     1       7.195   1.443   0.143  0.00  0.00    +0.134 C 
ATOM     17 CL   UNL     1      13.059   5.491  -1.446  0.00  0.00    -0.084 Cl
ATOM     18  H   UNL     1       4.035   3.785  -0.510  0.00  0.00    +0.156 HD
ATOM     19  H   UNL     1       9.572   0.030  -0.659  0.00  0.00    +0.160 HD
ENDROOT
BRANCH   1  22
ATOM     20  C   UNL     1       0.162   2.898  -0.082  0.00  0.00    +0.003 A 
ATOM     21  C   UNL     1       1.474   3.330  -0.095  0.00  0.00    +0.023 A 
ATOM     22  C   UNL     1       2.501   2.421  -0.311  0.00  0.00    +0.036 A 
ATOM     23  C   UNL     1       2.205   1.079  -0.513  0.00  0.00    +0.038 A 
ATOM     24  C   UNL     1       0.890   0.653  -0.499  0.00  0.00    +0.020 A 
ATOM     25  C   UNL     1      -0.130   1.562  -0.283  0.00  0.00    +0.015 A 
ATOM     26 BR   UNL     1       0.486  -1.174  -0.774  0.00  0.00    -0.050 Br
ENDBRANCH   1  22
BRANCH  16  27
ATOM     27  C   UNL     1       7.946   1.710   1.422  0.00  0.00    -0.025 A 
ATOM     28  C   UNL     1       8.198   0.675   2.304  0.00  0.00    +0.008 A 
ATOM     29  C   UNL     1       8.886   0.919   3.477  0.00  0.00    +0.038 A 
ATOM     30  C   UNL     1       9.324   2.199   3.769  0.00  0.00    +0.123 A 
ATOM     31  C   UNL     1       9.072   3.235   2.885  0.00  0.00    +0.038 A 
ATOM     32  C   UNL     1       8.387   2.988   1.710  0.00  0.00    +0.008 A 
ATOM     33  F   UNL     1       9.997   2.438   4.916  0.00  0.00    -0.205 F 
ENDBRANCH  16  27
TORSDOF 2
