REMARK  Name = ZINC34783096
REMARK  5 active torsions:
REMARK  status: ('A' for Active; 'I' for Inactive)
REMARK    1  A    between atoms: C_1  and  C_2
REMARK    2  A    between atoms: C_5  and  N_9
REMARK    3  A    between atoms: C_7  and  C_8
REMARK    4  A    between atoms: C_14  and  C_28
REMARK    5  A    between atoms: N_16  and  C_22
REMARK                            x       y       z     vdW  Elec       q    Type
REMARK                         _______ _______ _______ _____ _____    ______ ____
ROOT
ATOM      1  N   UNL     1       0.059  -4.172  -0.021  0.00  0.00    -0.208 N 
ATOM      2  C   UNL     1       0.068  -4.926  -1.167  0.00  0.00    +0.235 C 
ATOM      3  O   UNL     1       0.279  -4.547  -2.299  0.00  0.00    -0.274 OA
ATOM      4  C   UNL     1      -0.228  -6.269  -0.731  0.00  0.00    +0.145 C 
ATOM      5  C   UNL     1      -0.064  -7.661  -1.178  0.00  0.00    +0.158 C 
ATOM      6  N   UNL     1      -0.122  -8.420   0.113  0.00  0.00    -0.244 N 
ATOM      7  O   UNL     1      -0.227  -7.453   1.182  0.00  0.00    -0.257 OA
ATOM      8  C   UNL     1       0.491  -6.314   0.677  0.00  0.00    +0.249 C 
ATOM      9  C   UNL     1       0.075  -4.935   1.111  0.00  0.00    +0.259 C 
ATOM     10  O   UNL     1      -0.193  -4.575   2.238  0.00  0.00    -0.272 OA
ENDROOT
BRANCH   5  11
ATOM     11  C   UNL     1       1.267  -7.853  -1.858  0.00  0.00    -0.014 A 
ATOM     12  C   UNL     1       2.307  -8.412  -1.181  0.00  0.00    +0.006 A 
ATOM     13  C   UNL     1       3.545  -8.597  -1.793  0.00  0.00    +0.001 A 
ATOM     14  C   UNL     1       3.750  -8.223  -3.086  0.00  0.00    +0.008 A 
ATOM     15  C   UNL     1       2.700  -7.642  -3.817  0.00  0.00    -0.018 A 
ATOM     16  C   UNL     1       1.439  -7.460  -3.196  0.00  0.00    -0.013 A 
ATOM     17  C   UNL     1       0.387  -6.884  -3.929  0.00  0.00    +0.009 A 
ATOM     18  C   UNL     1       0.591  -6.516  -5.223  0.00  0.00    +0.001 A 
ATOM     19  C   UNL     1       1.830  -6.701  -5.836  0.00  0.00    +0.001 A 
ATOM     20  C   UNL     1       2.875  -7.243  -5.153  0.00  0.00    +0.008 A 
ENDBRANCH   5  11
BRANCH   1  25
ATOM     21  C   UNL     1      -0.018   1.503   0.010  0.00  0.00    +0.044 C 
ATOM     22  C   UNL     1       0.002  -0.004   0.002  0.00  0.00    -0.047 A 
ATOM     23  C   UNL     1       0.006  -0.688  -1.200  0.00  0.00    +0.005 A 
ATOM     24  C   UNL     1       0.025  -2.068  -1.211  0.00  0.00    +0.024 A 
ATOM     25  C   UNL     1       0.040  -2.771  -0.013  0.00  0.00    +0.044 A 
ATOM     26  C   UNL     1       0.037  -2.082   1.192  0.00  0.00    +0.027 A 
ATOM     27  C   UNL     1       0.023  -0.700   1.196  0.00  0.00    -0.046 A 
ATOM     28  C   UNL     1       0.025   0.048   2.504  0.00  0.00    +0.044 C 
ENDBRANCH   1  25
BRANCH   6  29
ATOM     29  C   UNL     1      -0.082  -9.809   0.257  0.00  0.00    +0.065 A 
ATOM     30  C   UNL     1       0.026 -10.622  -0.865  0.00  0.00    +0.028 A 
ATOM     31  C   UNL     1       0.066 -11.994  -0.719  0.00  0.00    +0.002 A 
ATOM     32  C   UNL     1      -0.003 -12.560   0.541  0.00  0.00    +0.000 A 
ATOM     33  C   UNL     1      -0.111 -11.753   1.659  0.00  0.00    +0.002 A 
ATOM     34  C   UNL     1      -0.145 -10.380   1.521  0.00  0.00    +0.028 A 
ENDBRANCH   6  29
TORSDOF 3
