REMARK  Name = ZINC35768601
REMARK  7 active torsions:
REMARK  status: ('A' for Active; 'I' for Inactive)
REMARK    1  A    between atoms: C_1  and  C_2
REMARK    2  A    between atoms: C_2  and  C_3
REMARK    3  A    between atoms: C_12  and  C_13
REMARK    4  A    between atoms: C_13  and  C_15
REMARK    5  A    between atoms: C_13  and  C_22
REMARK    6  A    between atoms: C_15  and  C_16
REMARK    7  A    between atoms: C_22  and  C_23
REMARK                            x       y       z     vdW  Elec       q    Type
REMARK                         _______ _______ _______ _____ _____    ______ ____
ROOT
ATOM      1  C   UNL     1       5.353  -1.428  -3.026  0.00  0.00    +0.034 C 
ENDROOT
BRANCH   1  11
ATOM      2  C   UNL     1       0.481  -0.621  -2.152  0.00  0.00    -0.024 A 
ATOM      3  C   UNL     1       0.004  -0.959  -3.400  0.00  0.00    +0.005 A 
ATOM      4  C   UNL     1       0.872  -1.369  -4.402  0.00  0.00    +0.001 A 
ATOM      5  C   UNL     1       2.217  -1.443  -4.169  0.00  0.00    +0.010 A 
ATOM      6  C   UNL     1       2.721  -1.104  -2.912  0.00  0.00    +0.003 A 
ATOM      7  C   UNL     1       1.846  -0.684  -1.894  0.00  0.00    +0.050 A 
ATOM      8  N   UNL     1       2.614  -0.415  -0.783  0.00  0.00    -0.360 N 
ATOM      9  H   UNL     1       2.271  -0.108   0.071  0.00  0.00    +0.165 HD
ATOM     10  C   UNL     1       3.934  -0.644  -1.064  0.00  0.00    +0.087 A 
ATOM     11  C   UNL     1       4.065  -1.069  -2.330  0.00  0.00    -0.019 A 
BRANCH   2  13
ATOM     12  C   UNL     1      -0.555   1.350  -1.060  0.00  0.00    +0.009 C 
ATOM     13  C   UNL     1      -0.473  -0.178  -1.073  0.00  0.00    +0.034 C 
ENDBRANCH   2  13
ENDBRANCH   1  11
BRANCH   1  14
ATOM     14  C   UNL     1       6.286  -0.216  -3.030  0.00  0.00    +0.043 C 
BRANCH  14  15
ATOM     15  C   UNL     1       5.671   0.888  -3.851  0.00  0.00    -0.047 A 
ATOM     16  C   UNL     1       5.839   0.905  -5.223  0.00  0.00    +0.003 A 
ATOM     17  C   UNL     1       5.275   1.918  -5.976  0.00  0.00    +0.000 A 
ATOM     18  C   UNL     1       4.542   2.913  -5.357  0.00  0.00    +0.000 A 
ATOM     19  C   UNL     1       4.373   2.896  -3.985  0.00  0.00    +0.000 A 
ATOM     20  C   UNL     1       4.933   1.881  -3.233  0.00  0.00    +0.003 A 
ENDBRANCH  14  15
ENDBRANCH   1  14
BRANCH   1  21
ATOM     21  C   UNL     1       6.026  -2.587  -2.287  0.00  0.00    +0.104 C 
BRANCH  21  22
ATOM     22  C   UNL     1       7.226  -3.053  -3.071  0.00  0.00    +0.216 C 
ATOM     23  O   UNL     1       7.451  -2.589  -4.168  0.00  0.00    -0.276 OA
ATOM     24  N   UNL     1       8.048  -3.986  -2.552  0.00  0.00    -0.297 N 
ATOM     25  C   UNL     1       9.232  -4.459  -3.289  0.00  0.00    +0.113 C 
ATOM     26  C   UNL     1      10.472  -4.056  -2.493  0.00  0.00    +0.054 C 
ATOM     27  C   UNL     1      10.315  -4.413  -1.038  0.00  0.00    -0.041 A 
ATOM     28  C   UNL     1      11.470  -4.515  -0.272  0.00  0.00    +0.004 A 
ATOM     29  C   UNL     1      11.397  -4.829   1.069  0.00  0.00    +0.000 A 
ATOM     30  C   UNL     1      10.165  -5.044   1.658  0.00  0.00    +0.000 A 
ATOM     31  C   UNL     1       9.017  -4.947   0.899  0.00  0.00    +0.005 A 
ATOM     32  C   UNL     1       9.090  -4.636  -0.452  0.00  0.00    -0.027 A 
ATOM     33  C   UNL     1       7.803  -4.568  -1.228  0.00  0.00    +0.143 C 
ENDBRANCH  21  22
ENDBRANCH   1  21
TORSDOF 6
