REMARK  Name = ZINC44353602
REMARK  10 active torsions:
REMARK  status: ('A' for Active; 'I' for Inactive)
REMARK    1  A    between atoms: C_1  and  C_2
REMARK    2  A    between atoms: C_2  and  C_4
REMARK    3  A    between atoms: C_2  and  N_8
REMARK    4  A    between atoms: C_4  and  C_5
REMARK    5  A    between atoms: C_5  and  C_6
REMARK    6  A    between atoms: C_5  and  C_7
REMARK    7  A    between atoms: N_8  and  C_9
REMARK    8  A    between atoms: N_8  and  S_10
REMARK    9  A    between atoms: S_10  and  C_13
REMARK   10  A    between atoms: C_16  and  N_20
REMARK                            x       y       z     vdW  Elec       q    Type
REMARK                         _______ _______ _______ _____ _____    ______ ____
ROOT
ATOM      1  S   UNL     1      -1.889  -1.477   1.254  0.00  0.00    +0.064 S 
ATOM      2  O   UNL     1      -2.978  -2.238   0.750  0.00  0.00    -0.153 OA
ATOM      3  O   UNL     1      -0.729  -2.082   1.808  0.00  0.00    -0.153 OA
ENDROOT
BRANCH   1   4
ATOM      4  C   UNL     1      -2.548  -0.418   2.499  0.00  0.00    +0.142 A 
ATOM      5  C   UNL     1      -1.722   0.077   3.493  0.00  0.00    +0.070 A 
ATOM      6  C   UNL     1      -2.236   0.908   4.470  0.00  0.00    +0.044 A 
ATOM      7  C   UNL     1      -3.583   1.247   4.454  0.00  0.00    +0.027 A 
ATOM      8  C   UNL     1      -4.410   0.749   3.455  0.00  0.00    +0.044 A 
ATOM      9  C   UNL     1      -3.889  -0.078   2.477  0.00  0.00    +0.070 A 
ATOM     10 CL   UNL     1      -4.920  -0.696   1.224  0.00  0.00    -0.081 Cl
ATOM     11 CL   UNL     1      -0.039  -0.346   3.512  0.00  0.00    -0.081 Cl
BRANCH   7  12
ATOM     12  N   UNL     1      -4.106   2.086   5.440  0.00  0.00    -0.358 N 
ATOM     13  H   UNL     1      -3.528   2.433   6.138  0.00  0.00    +0.142 HD
ATOM     14  H   UNL     1      -5.047   2.322   5.428  0.00  0.00    +0.142 HD
ENDBRANCH   7  12
ENDBRANCH   1   4
BRANCH   1  15
ATOM     15  N   UNL     1      -1.372  -0.511   0.012  0.00  0.00    -0.177 NA
ATOM     16  C   UNL     1      -2.290  -0.164  -1.076  0.00  0.00    +0.132 C 
BRANCH  15  18
ATOM     17  C   UNL     1      -0.019   1.526   0.010  0.00  0.00    +0.026 C 
ATOM     18  C   UNL     1       0.002  -0.004   0.002  0.00  0.00    +0.077 C 
BRANCH  18  19
ATOM     19  C   UNL     1       0.718  -0.497  -1.257  0.00  0.00    +0.023 C 
BRANCH  19  20
ATOM     20  C   UNL     1       0.849  -2.021  -1.205  0.00  0.00    -0.016 C 
ATOM     21  C   UNL     1       1.452  -2.526  -2.517  0.00  0.00    +0.007 C 
ATOM     22  C   UNL     1       1.760  -2.415  -0.040  0.00  0.00    +0.007 C 
ENDBRANCH  19  20
ENDBRANCH  18  19
ENDBRANCH  15  18
ENDBRANCH   1  15
TORSDOF 6
