REMARK  Name = ZINC62249467
REMARK  4 active torsions:
REMARK  status: ('A' for Active; 'I' for Inactive)
REMARK    1  A    between atoms: C_5  and  C_6
REMARK    2  A    between atoms: C_6  and  C_8
REMARK    3  A    between atoms: C_6  and  N_10
REMARK    4  A    between atoms: C_8  and  N_9
REMARK                            x       y       z     vdW  Elec       q    Type
REMARK                         _______ _______ _______ _____ _____    ______ ____
ROOT
ATOM      1  C   UNL     1      -1.212  -0.901   0.013  0.00  0.00    +0.106 C 
ENDROOT
BRANCH   1   2
ATOM      2  N   UNL     1      -0.825  -2.055  -0.809  0.00  0.00    -0.286 NA
ATOM      3  C   UNL     1      -0.345  -1.624  -2.130  0.00  0.00    +0.107 C 
ATOM      4  C   UNL     1       0.387  -2.783  -2.817  0.00  0.00    +0.138 C 
ATOM      5  N   UNL     1      -0.465  -3.973  -2.743  0.00  0.00    -0.334 N 
ATOM      6  C   UNL     1      -0.379  -5.126  -3.458  0.00  0.00    +0.105 A 
ATOM      7  C   UNL     1      -1.385  -5.919  -3.036  0.00  0.00    +0.101 A 
ATOM      8  N   UNL     1      -2.066  -5.258  -2.084  0.00  0.00    -0.349 N 
ATOM      9  C   UNL     1      -1.522  -4.093  -1.901  0.00  0.00    +0.101 A 
ATOM     10  C   UNL     1      -1.939  -3.011  -0.934  0.00  0.00    +0.157 C 
ATOM     11  H   UNL     1      -2.841  -5.598  -1.610  0.00  0.00    +0.166 HD
ENDBRANCH   1   2
BRANCH   1  16
ATOM     12  C   UNL     1      -3.399   0.388  -0.051  0.00  0.00    +0.047 A 
ATOM     13  C   UNL     1      -4.190   0.988  -1.058  0.00  0.00    +0.057 A 
ATOM     14  C   UNL     1      -3.558   0.775  -2.228  0.00  0.00    +0.170 A 
ATOM     15  O   UNL     1      -2.433   0.084  -1.983  0.00  0.00    -0.452 OA
ATOM     16  C   UNL     1      -2.332  -0.154  -0.664  0.00  0.00    +0.122 A 
ATOM     17 BR   UNL     1      -4.154   1.353  -3.927  0.00  0.00    -0.008 Br
ENDBRANCH   1  16
BRANCH   1  18
ATOM     18  C   UNL     1      -0.009   0.029   0.184  0.00  0.00    -0.059 C 
BRANCH  18  19
ATOM     19  N   UNL     1       1.125  -0.732   0.725  0.00  0.00    +0.379 N 
ATOM     20  H   UNL     1       1.891  -0.104   0.917  0.00  0.00    -0.090 HD
ATOM     21  H   UNL     1       0.846  -1.193   1.577  0.00  0.00    -0.090 HD
ATOM     22  H   UNL     1       1.419  -1.423   0.050  0.00  0.00    -0.090 HD
ENDBRANCH  18  19
ENDBRANCH   1  18
TORSDOF 4
