REMARK  Name = ZINC30515818
REMARK  8 active torsions:
REMARK  status: ('A' for Active; 'I' for Inactive)
REMARK    1  A    between atoms: C_1  and  C_2
REMARK    2  A    between atoms: C_2  and  S_3
REMARK    3  A    between atoms: S_3  and  C_6
REMARK    4  A    between atoms: C_9  and  O_33
REMARK    5  A    between atoms: C_10  and  N_12
REMARK    6  A    between atoms: C_13  and  C_15
REMARK    7  A    between atoms: N_17  and  C_27
REMARK    8  A    between atoms: C_18  and  C_21
REMARK                            x       y       z     vdW  Elec       q    Type
REMARK                         _______ _______ _______ _____ _____    ______ ____
ROOT
ATOM      1  N   UNL     1      -1.360  -5.140  -2.396  0.00  0.00    -0.277 N 
ATOM      2  C   UNL     1      -2.405  -4.476  -2.928  0.00  0.00    +0.264 C 
ATOM      3  O   UNL     1      -2.378  -3.262  -3.008  0.00  0.00    -0.268 OA
ATOM      4  H   UNL     1      -1.353  -6.110  -2.391  0.00  0.00    +0.155 HD
ENDROOT
BRANCH   1   9
ATOM      5  C   UNL     1       1.179  -2.530  -1.877  0.00  0.00    +0.090 A 
ATOM      6  C   UNL     1       1.844  -3.024  -0.769  0.00  0.00    +0.030 A 
ATOM      7  C   UNL     1       1.450  -4.219  -0.198  0.00  0.00    +0.049 A 
ATOM      8  C   UNL     1       0.387  -4.926  -0.734  0.00  0.00    +0.138 A 
ATOM      9  C   UNL     1      -0.284  -4.430  -1.849  0.00  0.00    +0.077 A 
ATOM     10  C   UNL     1       0.114  -3.227  -2.414  0.00  0.00    +0.054 A 
BRANCH   5  11
ATOM     11  S   UNL     1       1.688  -1.006  -2.600  0.00  0.00    -0.003 S 
ATOM     12  O   UNL     1       1.277  -1.094  -3.958  0.00  0.00    -0.169 OA
ATOM     13  O   UNL     1       3.064  -0.887  -2.266  0.00  0.00    -0.169 OA
BRANCH  11  15
ATOM     14  C   UNL     1       1.087   1.644  -2.289  0.00  0.00    +0.028 C 
ATOM     15  C   UNL     1       0.723   0.264  -1.737  0.00  0.00    +0.168 C 
ENDBRANCH  11  15
ENDBRANCH   5  11
BRANCH   8  16
ATOM     16  O   UNL     1      -0.001  -6.103  -0.173  0.00  0.00    -0.505 OA
ATOM     17  H   UNL     1      -0.670  -6.007   0.519  0.00  0.00    +0.292 HD
ENDBRANCH   8  16
ENDBRANCH   1   9
BRANCH   2  18
ATOM     18  C   UNL     1      -3.572  -5.215  -3.410  0.00  0.00    +0.123 C 
ATOM     19  N   UNL     1      -3.711  -6.502  -3.370  0.00  0.00    -0.178 NA
ATOM     20  N   UNL     1      -4.919  -6.957  -3.894  0.00  0.00    -0.216 N 
ATOM     21  C   UNL     1      -5.706  -5.802  -4.353  0.00  0.00    +0.134 C 
ATOM     22  C   UNL     1      -4.805  -4.594  -4.025  0.00  0.00    +0.091 C 
BRANCH  21  23
ATOM     23  C   UNL     1      -7.006  -5.711  -3.595  0.00  0.00    -0.025 A 
ATOM     24  C   UNL     1      -7.040  -6.000  -2.244  0.00  0.00    +0.005 A 
ATOM     25  C   UNL     1      -8.232  -5.917  -1.549  0.00  0.00    +0.000 A 
ATOM     26  C   UNL     1      -9.390  -5.545  -2.206  0.00  0.00    +0.000 A 
ATOM     27  C   UNL     1      -9.356  -5.255  -3.557  0.00  0.00    +0.000 A 
ATOM     28  C   UNL     1      -8.163  -5.334  -4.251  0.00  0.00    +0.005 A 
ENDBRANCH  21  23
BRANCH  20  29
ATOM     29  C   UNL     1      -5.318  -8.293  -3.971  0.00  0.00    +0.052 A 
ATOM     30  C   UNL     1      -6.550  -8.621  -4.523  0.00  0.00    +0.025 A 
ATOM     31  C   UNL     1      -6.941  -9.943  -4.599  0.00  0.00    +0.002 A 
ATOM     32  C   UNL     1      -6.109 -10.940  -4.125  0.00  0.00    +0.000 A 
ATOM     33  C   UNL     1      -4.881 -10.617  -3.574  0.00  0.00    +0.002 A 
ATOM     34  C   UNL     1      -4.481  -9.298  -3.501  0.00  0.00    +0.025 A 
ENDBRANCH  20  29
ENDBRANCH   2  18
TORSDOF 7
