REMARK  Name = ZINC40173129
REMARK  8 active torsions:
REMARK  status: ('A' for Active; 'I' for Inactive)
REMARK    1  A    between atoms: C_1  and  C_2
REMARK    2  A    between atoms: C_2  and  C_3
REMARK    3  A    between atoms: C_3  and  C_5
REMARK    4  A    between atoms: C_3  and  N_15
REMARK    5  A    between atoms: N_7  and  C_8
REMARK    6  A    between atoms: C_19  and  S_20
REMARK    7  A    between atoms: S_20  and  C_21
REMARK    8  A    between atoms: C_21  and  C_22
REMARK                            x       y       z     vdW  Elec       q    Type
REMARK                         _______ _______ _______ _____ _____    ______ ____
ROOT
ATOM      1  N   UNL     1       0.385  -1.893  -0.837  0.00  0.00    -0.279 N 
ATOM      2  C   UNL     1       0.753  -2.879   0.034  0.00  0.00    +0.216 A 
ATOM      3  N   UNL     1       0.360  -4.026  -0.463  0.00  0.00    -0.113 NA
ATOM      4  N   UNL     1      -0.277  -3.773  -1.685  0.00  0.00    -0.121 NA
ATOM      5  C   UNL     1      -0.257  -2.479  -1.892  0.00  0.00    +0.194 A 
ATOM      6  N   UNL     1       1.426  -2.698   1.235  0.00  0.00    -0.328 N 
ATOM      7  H   UNL     1       1.677  -1.806   1.521  0.00  0.00    +0.145 HD
ATOM      8  H   UNL     1       1.645  -3.464   1.789  0.00  0.00    +0.145 HD
ENDROOT
BRANCH   1   9
ATOM      9  C   UNL     1       0.630  -0.459  -0.666  0.00  0.00    +0.178 C 
BRANCH   9  10
ATOM     10  C   UNL     1       2.114  -0.209  -0.581  0.00  0.00    +0.240 C 
ATOM     11  O   UNL     1       2.852  -1.078  -0.168  0.00  0.00    -0.273 OA
ATOM     12  N   UNL     1       2.620   0.980  -0.963  0.00  0.00    -0.284 N 
ATOM     13  H   UNL     1       2.045   1.641  -1.378  0.00  0.00    +0.155 HD
BRANCH  12  14
ATOM     14  C   UNL     1       3.976   1.261  -0.760  0.00  0.00    +0.035 A 
ATOM     15  C   UNL     1       4.912   0.236  -0.802  0.00  0.00    +0.023 A 
ATOM     16  C   UNL     1       6.250   0.515  -0.603  0.00  0.00    +0.003 A 
ATOM     17  C   UNL     1       6.658   1.814  -0.361  0.00  0.00    +0.020 A 
ATOM     18  C   UNL     1       5.728   2.838  -0.319  0.00  0.00    +0.043 A 
ATOM     19  C   UNL     1       4.388   2.565  -0.523  0.00  0.00    +0.043 A 
ATOM     20 CL   UNL     1       6.245   4.467  -0.014  0.00  0.00    -0.083 Cl
ENDBRANCH  12  14
ENDBRANCH   9  10
BRANCH   9  22
ATOM     21  C   UNL     1      -1.563  -0.047   0.457  0.00  0.00    +0.006 C 
ATOM     22  C   UNL     1      -0.044   0.025   0.620  0.00  0.00    +0.031 C 
ENDBRANCH   9  22
ENDBRANCH   1   9
BRANCH   5  23
ATOM     23  S   UNL     1      -0.935  -1.641  -3.286  0.00  0.00    -0.081 S 
BRANCH  23  24
ATOM     24  C   UNL     1      -1.633  -2.973  -4.300  0.00  0.00    +0.114 C 
BRANCH  24  25
ATOM     25  C   UNL     1      -2.254  -2.386  -5.542  0.00  0.00    -0.019 A 
ATOM     26  C   UNL     1      -3.582  -2.001  -5.535  0.00  0.00    +0.006 A 
ATOM     27  C   UNL     1      -4.151  -1.463  -6.674  0.00  0.00    +0.000 A 
ATOM     28  C   UNL     1      -3.393  -1.309  -7.820  0.00  0.00    +0.001 A 
ATOM     29  C   UNL     1      -2.066  -1.693  -7.828  0.00  0.00    +0.020 A 
ATOM     30  C   UNL     1      -1.494  -2.227  -6.686  0.00  0.00    +0.045 A 
ATOM     31 CL   UNL     1       0.175  -2.704  -6.693  0.00  0.00    -0.083 Cl
ENDBRANCH  24  25
ENDBRANCH  23  24
ENDBRANCH   5  23
TORSDOF 7
