REMARK  Name = ZINC65507822
REMARK  5 active torsions:
REMARK  status: ('A' for Active; 'I' for Inactive)
REMARK    1  A    between atoms: C_4  and  C_7
REMARK    2  A    between atoms: C_9  and  C_13
REMARK    3  A    between atoms: N_15  and  N_16
REMARK    4  A    between atoms: N_19  and  C_20
REMARK    5  A    between atoms: C_22  and  C_23
REMARK                            x       y       z     vdW  Elec       q    Type
REMARK                         _______ _______ _______ _____ _____    ______ ____
ROOT
ATOM      1  C   UNL     1       5.945  -3.575  -0.083  0.00  0.00    +0.278 C 
ATOM      2  O   UNL     1       5.311  -4.613  -0.088  0.00  0.00    -0.267 OA
ATOM      3  N   UNL     1       7.292  -3.608  -0.095  0.00  0.00    -0.228 N 
ATOM      4  H   UNL     1       7.798  -2.780  -0.091  0.00  0.00    +0.173 HD
ENDROOT
BRANCH   1   7
ATOM      5  C   UNL     1       3.699  -0.689  -0.037  0.00  0.00    +0.093 A 
ATOM      6  C   UNL     1       3.873  -2.085  -0.052  0.00  0.00    +0.062 A 
ATOM      7  C   UNL     1       5.241  -2.282  -0.066  0.00  0.00    +0.122 A 
ATOM      8  N   UNL     1       5.811  -1.040  -0.058  0.00  0.00    -0.272 N 
ATOM      9  H   UNL     1       6.765  -0.865  -0.065  0.00  0.00    +0.189 HD
ATOM     10  N   UNL     1       4.895  -0.140  -0.047  0.00  0.00    -0.173 NA
BRANCH   5  14
ATOM     11  C   UNL     1      -0.017   1.379   0.010  0.00  0.00    +0.000 A 
ATOM     12  C   UNL     1       1.169   2.092   0.002  0.00  0.00    +0.001 A 
ATOM     13  C   UNL     1       2.377   1.425  -0.013  0.00  0.00    +0.010 A 
ATOM     14  C   UNL     1       2.402   0.033  -0.021  0.00  0.00    +0.002 A 
ATOM     15  C   UNL     1       1.205  -0.680  -0.013  0.00  0.00    +0.010 A 
ATOM     16  C   UNL     1       0.002  -0.004   0.002  0.00  0.00    +0.001 A 
ENDBRANCH   5  14
ENDBRANCH   1   7
BRANCH   3  17
ATOM     17  N   UNL     1       7.962  -4.838  -0.112  0.00  0.00    -0.218 N 
ATOM     18  C   UNL     1       9.309  -4.872  -0.123  0.00  0.00    +0.316 C 
ATOM     19  O   UNL     1       9.891  -5.939  -0.138  0.00  0.00    -0.251 OA
ATOM     20  N   UNL     1      10.012  -3.721  -0.118  0.00  0.00    -0.295 N 
ATOM     21  H   UNL     1       7.457  -5.666  -0.115  0.00  0.00    +0.174 HD
ATOM     22  H   UNL     1       9.548  -2.870  -0.106  0.00  0.00    +0.151 HD
BRANCH  20  23
ATOM     23  C   UNL     1      11.477  -3.758  -0.130  0.00  0.00    +0.083 C 
ATOM     24  C   UNL     1      12.200  -2.784  -1.063  0.00  0.00    +0.033 C 
ATOM     25  C   UNL     1      12.218  -2.551   0.449  0.00  0.00    +0.041 C 
BRANCH  25  26
ATOM     26  C   UNL     1      11.386  -1.416   0.988  0.00  0.00    -0.040 A 
ATOM     27  C   UNL     1      10.504  -0.750   0.156  0.00  0.00    +0.004 A 
ATOM     28  C   UNL     1       9.740   0.291   0.649  0.00  0.00    +0.003 A 
ATOM     29  C   UNL     1       9.858   0.668   1.974  0.00  0.00    +0.038 A 
ATOM     30  C   UNL     1      10.740   0.002   2.807  0.00  0.00    +0.124 A 
ATOM     31  C   UNL     1      11.500  -1.045   2.314  0.00  0.00    +0.042 A 
ATOM     32  F   UNL     1      10.856   0.370   4.102  0.00  0.00    -0.205 F 
ENDBRANCH  25  26
ENDBRANCH  20  23
ENDBRANCH   3  17
TORSDOF 5
