REMARK  Name = ZINC32649971
REMARK  6 active torsions:
REMARK  status: ('A' for Active; 'I' for Inactive)
REMARK    1  A    between atoms: C_1  and  C_2
REMARK    2  A    between atoms: C_2  and  C_4
REMARK    3  A    between atoms: C_2  and  O_16
REMARK    4  A    between atoms: N_6  and  N_7
REMARK    5  A    between atoms: C_8  and  C_9
REMARK    6  A    between atoms: O_16  and  C_17
REMARK                            x       y       z     vdW  Elec       q    Type
REMARK                         _______ _______ _______ _____ _____    ______ ____
ROOT
ATOM      1  C   UNL     1       4.749  -2.711  -0.374  0.00  0.00    +0.273 C 
ATOM      2  O   UNL     1       4.763  -3.904  -0.590  0.00  0.00    -0.270 OA
ATOM      3  N   UNL     1       3.579  -2.079  -0.151  0.00  0.00    -0.204 N 
ATOM      4  H   UNL     1       3.567  -0.997   0.045  0.00  0.00    +0.177 HD
ENDROOT
BRANCH   1   6
ATOM      5  C   UNL     1       6.048  -0.929  -1.508  0.00  0.00    +0.062 C 
ATOM      6  C   UNL     1       6.040  -1.934  -0.354  0.00  0.00    +0.257 C 
BRANCH   6   7
ATOM      7  O   UNL     1       7.140  -2.834  -0.499  0.00  0.00    -0.480 OA
BRANCH   7   8
ATOM      8  C   UNL     1       8.343  -2.423  -0.017  0.00  0.00    +0.122 A 
ATOM      9  C   UNL     1       9.470  -3.209  -0.200  0.00  0.00    +0.047 A 
ATOM     10  C   UNL     1      10.692  -2.787   0.286  0.00  0.00    +0.023 A 
ATOM     11  C   UNL     1      10.790  -1.585   0.965  0.00  0.00    +0.041 A 
ATOM     12  C   UNL     1       9.665  -0.801   1.153  0.00  0.00    +0.023 A 
ATOM     13  C   UNL     1       8.442  -1.218   0.663  0.00  0.00    +0.047 A 
ATOM     14 CL   UNL     1      12.325  -1.059   1.581  0.00  0.00    -0.084 Cl
ENDBRANCH   7   8
ENDBRANCH   6   7
ENDBRANCH   1   6
BRANCH   3  15
ATOM     15  N   UNL     1       2.379  -2.802  -0.169  0.00  0.00    -0.188 NA
ATOM     16  C   UNL     1       1.245  -2.178  -0.080  0.00  0.00    +0.138 C 
BRANCH  16  17
ATOM     17  C   UNL     1       1.140  -0.773  -0.517  0.00  0.00    -0.004 A 
ATOM     18  C   UNL     1       2.148  -0.204  -1.299  0.00  0.00    +0.009 A 
ATOM     19  C   UNL     1       2.044   1.110  -1.704  0.00  0.00    +0.002 A 
ATOM     20  C   UNL     1       0.944   1.865  -1.339  0.00  0.00    +0.015 A 
ATOM     21  C   UNL     1      -0.060   1.309  -0.564  0.00  0.00    +0.018 A 
ATOM     22  C   UNL     1       0.032  -0.005  -0.151  0.00  0.00    +0.024 A 
ATOM     23 BR   UNL     1      -1.562   2.348  -0.077  0.00  0.00    -0.050 Br
ENDBRANCH  16  17
ENDBRANCH   3  15
TORSDOF 5
