REMARK  Name = ZINC01837184
REMARK  2 active torsions:
REMARK  status: ('A' for Active; 'I' for Inactive)
REMARK    1  A    between atoms: C_5  and  C_7
REMARK    2  A    between atoms: C_10  and  C_17
REMARK                            x       y       z     vdW  Elec       q    Type
REMARK                         _______ _______ _______ _____ _____    ______ ____
ROOT
ATOM      1  C   UNL     1       1.229  -2.186  -0.022  0.00  0.00    +0.150 C 
ATOM      2  C   UNL     1       0.511  -2.721   1.224  0.00  0.00    +0.088 C 
ATOM      3  C   UNL     1       0.125  -4.163   1.049  0.00  0.00    +0.055 C 
ATOM      4  N   UNL     1      -0.222  -4.665  -0.106  0.00  0.00    -0.214 NA
ATOM      5  C   UNL     1      -0.162  -3.872  -1.207  0.00  0.00    +0.270 A 
ATOM      6  N   UNL     1       0.521  -2.683  -1.199  0.00  0.00    -0.202 N 
ATOM      7  N   UNL     1       0.369  -2.152  -2.475  0.00  0.00    -0.042 NA
ATOM      8  N   UNL     1      -0.336  -3.004  -3.147  0.00  0.00    -0.021 NA
ATOM      9  N   UNL     1      -0.647  -4.018  -2.412  0.00  0.00    -0.088 NA
ENDROOT
BRANCH   1  14
ATOM     10  C   UNL     1      -0.017   1.378   0.010  0.00  0.00    +0.000 A 
ATOM     11  C   UNL     1       1.171   2.086   0.002  0.00  0.00    +0.001 A 
ATOM     12  C   UNL     1       2.377   1.412  -0.013  0.00  0.00    +0.020 A 
ATOM     13  C   UNL     1       2.397   0.029  -0.021  0.00  0.00    +0.046 A 
ATOM     14  C   UNL     1       1.208  -0.679  -0.013  0.00  0.00    -0.004 A 
ATOM     15  C   UNL     1       0.002  -0.004   0.002  0.00  0.00    +0.007 A 
ATOM     16 CL   UNL     1       3.912  -0.818  -0.041  0.00  0.00    -0.083 Cl
ENDBRANCH   1  14
BRANCH   3  17
ATOM     17  C   UNL     1       0.139  -5.045   2.227  0.00  0.00    -0.003 A 
ATOM     18  C   UNL     1       0.501  -4.538   3.479  0.00  0.00    +0.011 A 
ATOM     19  C   UNL     1       0.512  -5.370   4.578  0.00  0.00    +0.020 A 
ATOM     20  C   UNL     1       0.166  -6.705   4.444  0.00  0.00    +0.041 A 
ATOM     21  C   UNL     1      -0.193  -7.214   3.206  0.00  0.00    +0.020 A 
ATOM     22  C   UNL     1      -0.214  -6.392   2.100  0.00  0.00    +0.011 A 
ATOM     23 CL   UNL     1       0.183  -7.745   5.834  0.00  0.00    -0.084 Cl
ENDBRANCH   3  17
TORSDOF 2
