REMARK  Name = ZINC02401374
REMARK  11 active torsions:
REMARK  status: ('A' for Active; 'I' for Inactive)
REMARK    1  A    between atoms: C_1  and  C_2
REMARK    2  A    between atoms: C_2  and  N_58
REMARK    3  A    between atoms: C_3  and  C_4
REMARK    4  A    between atoms: C_3  and  N_58
REMARK    5  A    between atoms: C_5  and  C_6
REMARK    6  A    between atoms: C_5  and  N_58
REMARK    7  A    between atoms: C_6  and  C_7
REMARK    8  A    between atoms: C_7  and  N_8
REMARK    9  A    between atoms: C_14  and  C_15
REMARK   10  A    between atoms: C_23  and  C_25
REMARK   11  A    between atoms: C_23  and  C_26
REMARK                            x       y       z     vdW  Elec       q    Type
REMARK                         _______ _______ _______ _____ _____    ______ ____
ROOT
ATOM      1  N   UNL     1      -4.530   1.222  -0.283  0.00  0.00    -0.329 N 
ATOM      2  C   UNL     1      -3.282   1.689   0.026  0.00  0.00    +0.031 A 
ATOM      3  C   UNL     1      -2.733   2.652  -0.737  0.00  0.00    +0.030 A 
ATOM      4  C   UNL     1      -3.474   3.163  -1.836  0.00  0.00    +0.117 A 
ATOM      5  S   UNL     1      -2.810   4.394  -2.822  0.00  0.00    -0.030 S 
ATOM      6  N   UNL     1      -4.696   2.675  -2.097  0.00  0.00    -0.222 NA
ATOM      7  C   UNL     1      -5.215   1.729  -1.345  0.00  0.00    +0.142 A 
ATOM      8  C   UNL     1      -1.361   3.204  -0.460  0.00  0.00    +0.200 C 
ATOM      9  O   UNL     1      -0.942   2.854   0.859  0.00  0.00    -0.369 OA
ATOM     10  C   UNL     1      -1.071   1.455   1.135  0.00  0.00    +0.070 C 
ATOM     11  C   UNL     1      -2.561   1.114   1.218  0.00  0.00    +0.088 C 
ATOM     12  C   UNL     1      -0.419   0.645   0.012  0.00  0.00    +0.041 C 
ATOM     13  C   UNL     1      -0.393   1.127   2.467  0.00  0.00    +0.041 C 
ENDROOT
BRANCH   7  14
ATOM     14  C   UNL     1      -6.562   1.209  -1.657  0.00  0.00    +0.017 A 
ATOM     15  C   UNL     1      -7.526   2.050  -2.216  0.00  0.00    +0.011 A 
ATOM     16  C   UNL     1      -8.780   1.556  -2.510  0.00  0.00    +0.001 A 
ATOM     17  C   UNL     1      -9.087   0.234  -2.242  0.00  0.00    +0.000 A 
ATOM     18  C   UNL     1      -8.138  -0.604  -1.683  0.00  0.00    +0.001 A 
ATOM     19  C   UNL     1      -6.878  -0.124  -1.389  0.00  0.00    +0.011 A 
ENDBRANCH   7  14
BRANCH   1  20
ATOM     20  C   UNL     1      -5.134   0.167   0.534  0.00  0.00    +0.122 C 
BRANCH  20  21
ATOM     21  C   UNL     1      -4.560  -1.190   0.121  0.00  0.00    +0.003 C 
BRANCH  21  22
ATOM     22  C   UNL     1      -5.293  -2.304   0.872  0.00  0.00    -0.077 C 
BRANCH  22  23
ATOM     23  N   UNL     1      -4.742  -3.608   0.447  0.00  0.00    +0.379 N 
ATOM     24  H   UNL     1      -4.754  -3.657  -0.579  0.00  0.00    -0.082 HD
BRANCH  23  26
ATOM     25  C   UNL     1      -3.268  -3.523   2.429  0.00  0.00    -0.017 C 
ATOM     26  C   UNL     1      -3.348  -3.745   0.918  0.00  0.00    -0.082 C 
ENDBRANCH  23  26
BRANCH  23  27
ATOM     27  C   UNL     1      -5.569  -4.707   0.989  0.00  0.00    -0.082 C 
ATOM     28  C   UNL     1      -5.046  -6.036   0.441  0.00  0.00    -0.017 C 
ENDBRANCH  23  27
ENDBRANCH  22  23
ENDBRANCH  21  22
ENDBRANCH  20  21
ENDBRANCH   1  20
TORSDOF 7
