REMARK  Name = ZINC55063404
REMARK  7 active torsions:
REMARK  status: ('A' for Active; 'I' for Inactive)
REMARK    1  A    between atoms: C_1  and  C_2
REMARK    2  A    between atoms: C_2  and  C_3
REMARK    3  A    between atoms: C_3  and  C_5
REMARK    4  A    between atoms: C_3  and  N_6
REMARK    5  A    between atoms: N_9  and  C_12
REMARK    6  A    between atoms: C_12  and  C_13
REMARK    7  A    between atoms: C_14  and  N_20
REMARK                            x       y       z     vdW  Elec       q    Type
REMARK                         _______ _______ _______ _____ _____    ______ ____
ROOT
ATOM      1  N   UNL     1      -2.053  -0.037  -1.093  0.00  0.00    +0.383 N 
ATOM      2  C   UNL     1      -3.482  -0.355  -0.965  0.00  0.00    -0.063 C 
ATOM      3  C   UNL     1      -4.228   0.139  -2.206  0.00  0.00    +0.066 C 
ATOM      4  N   UNL     1      -4.041   1.591  -2.342  0.00  0.00    -0.302 NA
ATOM      5  C   UNL     1      -2.614   1.926  -2.446  0.00  0.00    +0.066 C 
ATOM      6  C   UNL     1      -1.881   1.417  -1.202  0.00  0.00    -0.063 C 
ATOM      7  H   UNL     1      -1.683  -0.483  -1.919  0.00  0.00    -0.081 HD
ENDROOT
BRANCH   1   8
ATOM      8  C   UNL     1      -1.335  -0.527   0.091  0.00  0.00    -0.072 C 
ATOM      9  C   UNL     1      -1.988   0.037   1.354  0.00  0.00    -0.013 C 
BRANCH   8  11
ATOM     10  C   UNL     1      -0.625  -2.623  -1.069  0.00  0.00    +0.002 C 
ATOM     11  C   UNL     1      -1.393  -2.056   0.127  0.00  0.00    -0.019 C 
ENDBRANCH   8  11
ENDBRANCH   1   8
BRANCH   4  12
ATOM     12  C   UNL     1      -4.790   2.113  -3.493  0.00  0.00    +0.122 C 
BRANCH  12  13
ATOM     13  C   UNL     1      -4.777   3.619  -3.458  0.00  0.00    +0.001 A 
ATOM     14  C   UNL     1      -5.778   4.308  -2.784  0.00  0.00    +0.030 A 
ATOM     15  C   UNL     1      -5.762   5.697  -2.754  0.00  0.00    +0.023 A 
ATOM     16  C   UNL     1      -4.753   6.389  -3.395  0.00  0.00    +0.003 A 
ATOM     17  C   UNL     1      -3.759   5.701  -4.066  0.00  0.00    +0.016 A 
ATOM     18  C   UNL     1      -3.768   4.317  -4.093  0.00  0.00    +0.024 A 
ATOM     19 BR   UNL     1      -2.401   3.381  -5.005  0.00  0.00    -0.050 Br
BRANCH  14  20
ATOM     20  N   UNL     1      -6.797   3.605  -2.137  0.00  0.00    -0.358 N 
ATOM     21  H   UNL     1      -6.807   2.636  -2.159  0.00  0.00    +0.142 HD
ATOM     22  H   UNL     1      -7.495   4.087  -1.667  0.00  0.00    +0.142 HD
ENDBRANCH  14  20
ENDBRANCH  12  13
ENDBRANCH   4  12
TORSDOF 5
