REMARK  Name = ZINC23080445
REMARK  11 active torsions:
REMARK  status: ('A' for Active; 'I' for Inactive)
REMARK    1  A    between atoms: C_1  and  N_2
REMARK    2  A    between atoms: N_2  and  C_3
REMARK    3  A    between atoms: N_2  and  C_4
REMARK    4  A    between atoms: C_4  and  C_6
REMARK    5  A    between atoms: C_4  and  C_28
REMARK    6  A    between atoms: C_6  and  N_7
REMARK    7  A    between atoms: C_8  and  C_10
REMARK    8  A    between atoms: C_10  and  C_12
REMARK    9  A    between atoms: C_10  and  N_19
REMARK   10  A    between atoms: C_12  and  C_13
REMARK   11  A    between atoms: C_20  and  C_22
REMARK                            x       y       z     vdW  Elec       q    Type
REMARK                         _______ _______ _______ _____ _____    ______ ____
ROOT
ATOM      1  C   UNL     1       8.234  -0.453  -2.553  0.00  0.00    +0.163 C 
ENDROOT
BRANCH   1   3
ATOM      2  N   UNL     1       9.607  -0.246  -0.505  0.00  0.00    -0.315 N 
ATOM      3  C   UNL     1       8.629   0.258  -1.284  0.00  0.00    +0.234 C 
ATOM      4  O   UNL     1       8.068   1.284  -0.964  0.00  0.00    -0.274 OA
ATOM      5  H   UNL     1      10.116  -1.177  -0.795  0.00  0.00    +0.149 HD
BRANCH   2   6
ATOM      6  C   UNL     1       9.990   0.445   0.728  0.00  0.00    +0.093 C 
BRANCH   6   7
ATOM      7  C   UNL     1      10.934  -0.446   1.540  0.00  0.00    -0.020 C 
BRANCH   7   8
ATOM      8  C   UNL     1      11.431   0.314   2.743  0.00  0.00    -0.041 A 
ATOM      9  C   UNL     1      10.911   0.044   3.994  0.00  0.00    +0.003 A 
ATOM     10  C   UNL     1      11.370   0.737   5.098  0.00  0.00    +0.000 A 
ATOM     11  C   UNL     1      12.342   1.708   4.950  0.00  0.00    +0.001 A 
ATOM     12  C   UNL     1      12.859   1.983   3.698  0.00  0.00    +0.020 A 
ATOM     13  C   UNL     1      12.404   1.286   2.593  0.00  0.00    +0.043 A 
ATOM     14 CL   UNL     1      13.052   1.631   1.020  0.00  0.00    -0.083 Cl
ENDBRANCH   7   8
BRANCH   7  16
ATOM     15  C   UNL     1       8.833  -1.321   2.366  0.00  0.00    -0.096 C 
ATOM     16  N   UNL     1      10.213  -1.647   1.982  0.00  0.00    +0.382 N 
ATOM     17  C   UNL     1      10.239  -2.688   0.947  0.00  0.00    -0.096 C 
ATOM     18  H   UNL     1      10.727  -2.041   2.872  0.00  0.00    -0.082 HD
ENDBRANCH   7  16
ENDBRANCH   6   7
ENDBRANCH   2   6
ENDBRANCH   1   3
BRANCH   1  19
ATOM     19  N   UNL     1       7.159   0.290  -3.214  0.00  0.00    -0.300 N 
ATOM     20  C   UNL     1       6.310  -0.349  -4.044  0.00  0.00    +0.245 C 
ATOM     21  O   UNL     1       6.437  -1.542  -4.243  0.00  0.00    -0.270 OA
ATOM     22  H   UNL     1       7.044   1.369  -3.034  0.00  0.00    +0.150 HD
BRANCH  20  23
ATOM     23  C   UNL     1       5.224   0.401  -4.711  0.00  0.00    +0.037 A 
ATOM     24  C   UNL     1       4.344  -0.258  -5.571  0.00  0.00    +0.013 A 
ATOM     25  C   UNL     1       3.333   0.447  -6.190  0.00  0.00    +0.001 A 
ATOM     26  C   UNL     1       3.191   1.804  -5.962  0.00  0.00    +0.000 A 
ATOM     27  C   UNL     1       4.061   2.463  -5.111  0.00  0.00    +0.001 A 
ATOM     28  C   UNL     1       5.076   1.770  -4.485  0.00  0.00    +0.013 A 
ENDBRANCH  20  23
ENDBRANCH   1  19
BRANCH   1  29
ATOM     29  C   UNL     1       9.444  -0.539  -3.486  0.00  0.00    +0.067 C 
BRANCH  29  30
ATOM     30  C   UNL     1       9.083  -1.356  -4.700  0.00  0.00    -0.045 A 
ATOM     31  C   UNL     1       9.285  -2.724  -4.698  0.00  0.00    +0.004 A 
ATOM     32  C   UNL     1       8.950  -3.474  -5.810  0.00  0.00    +0.000 A 
ATOM     33  C   UNL     1       8.423  -2.855  -6.928  0.00  0.00    +0.000 A 
ATOM     34  C   UNL     1       8.226  -1.486  -6.932  0.00  0.00    +0.000 A 
ATOM     35  C   UNL     1       8.556  -0.737  -5.818  0.00  0.00    +0.004 A 
ENDBRANCH  29  30
ENDBRANCH   1  29
TORSDOF 9
