REMARK  Name = ZINC40731119
REMARK  4 active torsions:
REMARK  status: ('A' for Active; 'I' for Inactive)
REMARK    1  A    between atoms: C_1  and  C_2
REMARK    2  A    between atoms: C_10  and  N_24
REMARK    3  A    between atoms: C_11  and  N_15
REMARK    4  A    between atoms: N_15  and  C_16
REMARK                            x       y       z     vdW  Elec       q    Type
REMARK                         _______ _______ _______ _____ _____    ______ ____
ROOT
ATOM      1  C   UNL     1      -1.052   0.470   3.687  0.00  0.00    +0.009 C 
ATOM      2  C   UNL     1      -0.215  -0.006   2.498  0.00  0.00    +0.003 C 
ATOM      3  C   UNL     1      -0.917   0.378   1.193  0.00  0.00    +0.006 C 
ATOM      4  C   UNL     1      -0.065  -0.069   0.003  0.00  0.00    +0.019 C 
ATOM      5  C   UNL     1       0.093  -1.592   0.037  0.00  0.00    +0.106 C 
ATOM      6  N   UNL     1       0.634  -1.983   1.346  0.00  0.00    -0.313 N 
ATOM      7  C   UNL     1      -0.058  -1.528   2.561  0.00  0.00    +0.109 C 
ATOM      8  C   UNL     1       1.777  -2.767   1.435  0.00  0.00    +0.147 A 
ATOM      9  C   UNL     1       1.678  -4.153   1.569  0.00  0.00    +0.106 A 
ATOM     10  C   UNL     1       2.858  -4.894   1.653  0.00  0.00    +0.149 A 
ATOM     11  N   UNL     1       4.025  -4.255   1.603  0.00  0.00    -0.219 NA
ATOM     12  C   UNL     1       4.075  -2.945   1.476  0.00  0.00    +0.225 A 
ATOM     13  N   UNL     1       2.985  -2.209   1.388  0.00  0.00    -0.219 NA
ENDROOT
BRANCH   9  14
ATOM     14  N   UNL     1       0.425  -4.785   1.617  0.00  0.00    -0.353 N 
ATOM     15  H   UNL     1      -0.385  -4.268   1.485  0.00  0.00    +0.143 HD
ATOM     16  H   UNL     1       0.369  -5.739   1.784  0.00  0.00    +0.143 HD
ENDBRANCH   9  14
BRANCH  10  17
ATOM     17  N   UNL     1       2.816  -6.277   1.788  0.00  0.00    -0.297 N 
ATOM     18  H   UNL     1       1.967  -6.743   1.736  0.00  0.00    +0.154 HD
BRANCH  17  19
ATOM     19  C   UNL     1       3.997  -6.996   1.997  0.00  0.00    +0.051 A 
ATOM     20  C   UNL     1       5.099  -6.373   2.568  0.00  0.00    +0.026 A 
ATOM     21  C   UNL     1       6.264  -7.085   2.774  0.00  0.00    +0.022 A 
ATOM     22  C   UNL     1       6.336  -8.418   2.411  0.00  0.00    +0.042 A 
ATOM     23  C   UNL     1       5.240  -9.043   1.841  0.00  0.00    +0.041 A 
ATOM     24  C   UNL     1       4.069  -8.337   1.638  0.00  0.00    +0.063 A 
ATOM     25 CL   UNL     1       2.692  -9.122   0.931  0.00  0.00    -0.082 Cl
ATOM     26 CL   UNL     1       7.803  -9.309   2.670  0.00  0.00    -0.083 Cl
ENDBRANCH  17  19
ENDBRANCH  10  17
TORSDOF 3
