REMARK  Name = ZINC39466765
REMARK  5 active torsions:
REMARK  status: ('A' for Active; 'I' for Inactive)
REMARK    1  A    between atoms: C_4  and  C_7
REMARK    2  A    between atoms: C_7  and  P_8
REMARK    3  A    between atoms: C_16  and  S_27
REMARK    4  A    between atoms: S_27  and  O_30
REMARK    5  A    between atoms: O_30  and  C_31
REMARK                            x       y       z     vdW  Elec       q    Type
REMARK                         _______ _______ _______ _____ _____    ______ ____
ROOT
ATOM      1  P   UNL     1       2.686  -1.968   2.097  0.00  0.00    +0.262 P 
ATOM      2  O   UNL     1       2.603  -0.811   3.017  0.00  0.00    -0.274 OA
ATOM      3  N   UNL     1       4.159  -2.701   2.225  0.00  0.00    -0.291 NA
ATOM      4  N   UNL     1       4.269  -4.004   1.786  0.00  0.00    +0.397 N 
ATOM      5  C   UNL     1       5.636  -4.433   2.123  0.00  0.00    -0.046 C 
ATOM      6  C   UNL     1       5.887  -5.863   1.666  0.00  0.00    +0.006 C 
ATOM      7  C   UNL     1       5.723  -5.978   0.174  0.00  0.00    +0.009 C 
ATOM      8  C   UNL     1       5.458  -7.164  -0.367  0.00  0.00    +0.159 C 
ATOM      9  C   UNL     1       5.341  -8.348   0.503  0.00  0.00    +0.148 C 
ATOM     10  C   UNL     1       5.070  -8.193   1.798  0.00  0.00    +0.017 C 
ATOM     11  C   UNL     1       4.885  -6.800   2.349  0.00  0.00    +0.018 C 
ATOM     12  C   UNL     1       3.470  -6.317   2.027  0.00  0.00    -0.002 C 
ATOM     13  C   UNL     1       3.287  -4.857   2.458  0.00  0.00    -0.020 C 
ATOM     14  C   UNL     1       1.851  -4.457   2.095  0.00  0.00    +0.156 C 
ATOM     15  O   UNL     1       1.604  -3.106   2.525  0.00  0.00    -0.319 OA
ATOM     16  F   UNL     1       5.509  -9.586  -0.010  0.00  0.00    -0.204 F 
ATOM     17  H   UNL     1       4.922  -2.232   2.596  0.00  0.00    +0.111 HD
ATOM     18  H   UNL     1       4.124  -4.040   0.788  0.00  0.00    -0.055 HD
ENDROOT
BRANCH   8  19
ATOM     19  S   UNL     1       5.247  -7.318  -2.110  0.00  0.00    +0.153 S 
ATOM     20  O   UNL     1       4.393  -8.435  -2.318  0.00  0.00    -0.131 OA
ATOM     21  O   UNL     1       4.935  -6.021  -2.597  0.00  0.00    -0.131 OA
BRANCH  19  22
ATOM     22  O   UNL     1       6.601  -7.690  -2.696  0.00  0.00    -0.342 OA
BRANCH  22  23
ATOM     23  C   UNL     1       6.967  -8.979  -2.468  0.00  0.00    +0.157 A 
ATOM     24  C   UNL     1       7.781  -9.290  -1.389  0.00  0.00    +0.048 A 
ATOM     25  C   UNL     1       8.151 -10.601  -1.159  0.00  0.00    +0.004 A 
ATOM     26  C   UNL     1       7.711 -11.603  -2.004  0.00  0.00    +0.000 A 
ATOM     27  C   UNL     1       6.900 -11.296  -3.081  0.00  0.00    +0.004 A 
ATOM     28  C   UNL     1       6.522  -9.987  -3.311  0.00  0.00    +0.048 A 
ENDBRANCH  22  23
ENDBRANCH  19  22
ENDBRANCH   8  19
BRANCH   1  29
ATOM     29  C   UNL     1       2.393  -1.431   0.380  0.00  0.00    +0.147 C 
BRANCH  29  33
ATOM     30  C   UNL     1      -1.545   0.190   0.043  0.00  0.00    +0.000 A 
ATOM     31  C   UNL     1      -0.483   1.014   0.366  0.00  0.00    +0.000 A 
ATOM     32  C   UNL     1       0.791   0.489   0.475  0.00  0.00    +0.004 A 
ATOM     33  C   UNL     1       1.004  -0.860   0.262  0.00  0.00    -0.037 A 
ATOM     34  C   UNL     1      -0.058  -1.684  -0.060  0.00  0.00    +0.004 A 
ATOM     35  C   UNL     1      -1.332  -1.159  -0.170  0.00  0.00    +0.000 A 
ENDBRANCH  29  33
ENDBRANCH   1  29
TORSDOF 5
