REMARK  Name = ZINC24274418
REMARK  7 active torsions:
REMARK  status: ('A' for Active; 'I' for Inactive)
REMARK    1  A    between atoms: C_1  and  C_2
REMARK    2  A    between atoms: C_5  and  N_9
REMARK    3  A    between atoms: C_6  and  C_8
REMARK    4  A    between atoms: C_13  and  C_15
REMARK    5  A    between atoms: C_15  and  N_16
REMARK    6  A    between atoms: C_19  and  C_23
REMARK    7  A    between atoms: C_19  and  C_24
REMARK                            x       y       z     vdW  Elec       q    Type
REMARK                         _______ _______ _______ _____ _____    ______ ____
ROOT
ATOM      1  N   UNL     1       0.738   3.054   0.012  0.00  0.00    -0.215 N 
ATOM      2  C   UNL     1      -0.601   3.208   0.036  0.00  0.00    +0.251 C 
ATOM      3  O   UNL     1      -1.218   4.251   0.057  0.00  0.00    -0.272 OA
ATOM      4  C   UNL     1      -1.175   1.805   0.024  0.00  0.00    +0.135 C 
ATOM      5  N   UNL     1       0.019   0.942   0.001  0.00  0.00    -0.281 N 
ATOM      6  C   UNL     1       1.085   1.762  -0.008  0.00  0.00    +0.310 C 
ATOM      7  O   UNL     1       2.237   1.372  -0.032  0.00  0.00    -0.252 OA
ATOM      8  C   UNL     1      -1.997   1.552   1.290  0.00  0.00    +0.047 C 
ATOM      9  H   UNL     1      -0.093  -0.152  -0.006  0.00  0.00    +0.152 HD
ENDROOT
BRANCH   4  10
ATOM     10  C   UNL     1      -2.014   1.583  -1.208  0.00  0.00    -0.015 A 
ATOM     11  C   UNL     1      -2.756   2.623  -1.736  0.00  0.00    +0.006 A 
ATOM     12  C   UNL     1      -3.520   2.419  -2.869  0.00  0.00    +0.004 A 
ATOM     13  C   UNL     1      -3.554   1.173  -3.471  0.00  0.00    -0.044 A 
ATOM     14  C   UNL     1      -2.816   0.131  -2.940  0.00  0.00    -0.044 A 
ATOM     15  C   UNL     1      -2.047   0.339  -1.807  0.00  0.00    +0.010 A 
ATOM     16  C   UNL     1      -3.020  -1.117  -3.771  0.00  0.00    +0.036 C 
ATOM     17  C   UNL     1      -3.608  -0.619  -5.109  0.00  0.00    +0.009 C 
ATOM     18  C   UNL     1      -4.303   0.695  -4.696  0.00  0.00    +0.036 C 
ENDBRANCH   4  10
BRANCH   1  19
ATOM     19  C   UNL     1       1.694   4.163   0.009  0.00  0.00    +0.214 C 
BRANCH  19  24
ATOM     20  N   UNL     1       3.993   6.928  -3.182  0.00  0.00    -0.269 N 
ATOM     21  C   UNL     1       3.132   5.922  -2.933  0.00  0.00    +0.310 C 
ATOM     22  O   UNL     1       2.602   5.334  -3.855  0.00  0.00    -0.252 OA
ATOM     23  N   UNL     1       2.860   5.567  -1.662  0.00  0.00    -0.239 N 
ATOM     24  C   UNL     1       1.999   4.560  -1.413  0.00  0.00    +0.238 C 
ATOM     25  O   UNL     1       1.470   3.974  -2.332  0.00  0.00    -0.274 OA
ATOM     26  H   UNL     1       4.402   7.521  -2.350  0.00  0.00    +0.156 HD
ATOM     27  H   UNL     1       3.340   6.099  -0.827  0.00  0.00    +0.159 HD
BRANCH  20  32
ATOM     28  C   UNL     1       5.510   8.110  -8.519  0.00  0.00    +0.044 C 
ATOM     29  C   UNL     1       5.107   7.796  -7.102  0.00  0.00    -0.050 A 
ATOM     30  C   UNL     1       4.668   6.526  -6.774  0.00  0.00    +0.005 A 
ATOM     31  C   UNL     1       4.303   6.234  -5.475  0.00  0.00    +0.024 A 
ATOM     32  C   UNL     1       4.367   7.220  -4.498  0.00  0.00    +0.038 A 
ATOM     33  C   UNL     1       4.808   8.494  -4.831  0.00  0.00    -0.029 A 
ATOM     34  C   UNL     1       5.176   8.778  -6.131  0.00  0.00    +0.008 A 
ATOM     35  C   UNL     1       4.883   9.565  -3.773  0.00  0.00    +0.045 C 
ENDBRANCH  20  32
ENDBRANCH  19  24
ENDBRANCH   1  19
TORSDOF 4
