REMARK  Name = ZINC57314181
REMARK  5 active torsions:
REMARK  status: ('A' for Active; 'I' for Inactive)
REMARK    1  A    between atoms: C_4  and  C_7
REMARK    2  A    between atoms: C_8  and  C_9
REMARK    3  A    between atoms: N_11  and  C_12
REMARK    4  A    between atoms: C_12  and  N_14
REMARK    5  A    between atoms: N_14  and  C_15
REMARK                            x       y       z     vdW  Elec       q    Type
REMARK                         _______ _______ _______ _____ _____    ______ ____
ROOT
ATOM      1  C   UNL     1       5.731  -5.382  -1.134  0.00  0.00    +0.141 C 
ATOM      2  S   UNL     1       6.665  -5.205  -2.558  0.00  0.00    -0.018 S 
ENDROOT
BRANCH   1   5
ATOM      3  C   UNL     1       4.027  -4.107  -2.093  0.00  0.00    +0.242 C 
ATOM      4  O   UNL     1       4.690  -3.982  -3.106  0.00  0.00    -0.270 OA
ATOM      5  N   UNL     1       4.511  -4.814  -1.053  0.00  0.00    -0.264 N 
ATOM      6  H   UNL     1       3.982  -4.914  -0.246  0.00  0.00    +0.157 HD
BRANCH   3   8
ATOM      7  C   UNL     1       2.217  -2.784  -3.047  0.00  0.00    +0.013 C 
ATOM      8  C   UNL     1       2.703  -3.491  -2.006  0.00  0.00    +0.068 C 
BRANCH   7  12
ATOM      9  C   UNL     1      -1.622  -0.998  -2.793  0.00  0.00    +0.000 A 
ATOM     10  C   UNL     1      -0.870  -0.853  -3.946  0.00  0.00    +0.001 A 
ATOM     11  C   UNL     1       0.379  -1.430  -4.036  0.00  0.00    +0.008 A 
ATOM     12  C   UNL     1       0.886  -2.164  -2.959  0.00  0.00    -0.025 A 
ATOM     13  C   UNL     1       0.120  -2.306  -1.797  0.00  0.00    +0.008 A 
ATOM     14  C   UNL     1      -1.128  -1.723  -1.723  0.00  0.00    +0.001 A 
ENDBRANCH   7  12
ENDBRANCH   3   8
ENDBRANCH   1   5
BRANCH   1  15
ATOM     15  N   UNL     1       6.216  -6.088  -0.093  0.00  0.00    -0.294 N 
ATOM     16  H   UNL     1       5.721  -6.126   0.740  0.00  0.00    +0.154 HD
BRANCH  15  17
ATOM     17  C   UNL     1       7.431  -6.766  -0.215  0.00  0.00    +0.080 A 
ATOM     18  C   UNL     1       7.449  -8.062  -0.632  0.00  0.00    +0.064 A 
ATOM     19  C   UNL     1       8.645  -8.765  -0.763  0.00  0.00    +0.024 A 
ATOM     20  C   UNL     1       9.840  -8.192  -0.482  0.00  0.00    +0.032 A 
ATOM     21  C   UNL     1       9.901  -6.842  -0.041  0.00  0.00    +0.102 A 
ATOM     22  C   UNL     1       8.654  -6.098   0.092  0.00  0.00    +0.122 A 
ATOM     23  N   UNL     1       8.832  -4.844   0.506  0.00  0.00    -0.189 NA
ATOM     24  S   UNL     1      10.421  -4.668   0.685  0.00  0.00    +0.117 S 
ATOM     25  N   UNL     1      10.977  -6.122   0.278  0.00  0.00    -0.191 NA
ATOM     26 CL   UNL     1       5.951  -8.854  -1.009  0.00  0.00    -0.082 Cl
ENDBRANCH  15  17
ENDBRANCH   1  15
TORSDOF 5
