REMARK  Name = ZINC15591463
REMARK  10 active torsions:
REMARK  status: ('A' for Active; 'I' for Inactive)
REMARK    1  A    between atoms: C_1  and  C_2
REMARK    2  A    between atoms: C_5  and  N_9
REMARK    3  A    between atoms: C_6  and  C_8
REMARK    4  A    between atoms: C_10  and  C_12
REMARK    5  A    between atoms: C_12  and  S_13
REMARK    6  A    between atoms: S_13  and  C_14
REMARK    7  A    between atoms: C_14  and  C_15
REMARK    8  A    between atoms: N_17  and  C_18
REMARK    9  A    between atoms: C_20  and  C_25
REMARK   10  A    between atoms: C_22  and  C_24
REMARK                            x       y       z     vdW  Elec       q    Type
REMARK                         _______ _______ _______ _____ _____    ______ ____
ROOT
ATOM      1  S   UNL     1       3.344   0.950  -1.274  0.00  0.00    -0.142 S 
ENDROOT
BRANCH   1   2
ATOM      2  C   UNL     1       1.733   1.687  -0.885  0.00  0.00    +0.165 C 
BRANCH   2   4
ATOM      3  N   UNL     1      -0.650   1.027  -0.978  0.00  0.00    -0.285 N 
ATOM      4  C   UNL     1       0.640   0.694  -1.186  0.00  0.00    +0.227 C 
ATOM      5  O   UNL     1       0.920  -0.403  -1.621  0.00  0.00    -0.275 OA
ATOM      6  H   UNL     1      -0.870   1.871  -0.553  0.00  0.00    +0.155 HD
BRANCH   3  11
ATOM      7  C   UNL     1      -4.787  -2.506  -2.583  0.00  0.00    +0.044 C 
ATOM      8  C   UNL     1      -3.688  -1.567  -2.157  0.00  0.00    -0.050 A 
ATOM      9  C   UNL     1      -2.427  -1.685  -2.711  0.00  0.00    +0.005 A 
ATOM     10  C   UNL     1      -1.417  -0.826  -2.322  0.00  0.00    +0.024 A 
ATOM     11  C   UNL     1      -1.670   0.156  -1.374  0.00  0.00    +0.036 A 
ATOM     12  C   UNL     1      -2.937   0.268  -0.815  0.00  0.00    -0.029 A 
ATOM     13  C   UNL     1      -3.943  -0.590  -1.212  0.00  0.00    +0.008 A 
ATOM     14  C   UNL     1      -3.214   1.328   0.219  0.00  0.00    +0.045 C 
ENDBRANCH   3  11
ENDBRANCH   2   4
ENDBRANCH   1   2
BRANCH   1  15
ATOM     15  C   UNL     1       4.535   2.254  -0.862  0.00  0.00    +0.165 C 
BRANCH  15  16
ATOM     16  C   UNL     1       5.932   1.766  -1.143  0.00  0.00    +0.227 C 
ATOM     17  O   UNL     1       6.107   0.647  -1.578  0.00  0.00    -0.275 OA
ATOM     18  N   UNL     1       6.987   2.571  -0.910  0.00  0.00    -0.285 N 
ATOM     19  H   UNL     1       6.853   3.439  -0.499  0.00  0.00    +0.155 HD
BRANCH  18  20
ATOM     20  C   UNL     1       8.276   2.155  -1.261  0.00  0.00    +0.034 A 
ATOM     21  C   UNL     1       9.199   3.076  -1.740  0.00  0.00    +0.026 A 
ATOM     22  C   UNL     1      10.472   2.663  -2.080  0.00  0.00    -0.048 A 
ATOM     23  C   UNL     1      10.825   1.331  -1.955  0.00  0.00    +0.006 A 
ATOM     24  C   UNL     1       9.907   0.411  -1.484  0.00  0.00    -0.048 A 
ATOM     25  C   UNL     1       8.634   0.819  -1.136  0.00  0.00    +0.026 A 
ATOM     26  C   UNL     1      10.296  -1.039  -1.349  0.00  0.00    +0.044 C 
ATOM     27  C   UNL     1      11.475   3.662  -2.595  0.00  0.00    +0.044 C 
ENDBRANCH  18  20
ENDBRANCH  15  16
ENDBRANCH   1  15
TORSDOF 6
