REMARK  Name = ZINC06543547
REMARK  6 active torsions:
REMARK  status: ('A' for Active; 'I' for Inactive)
REMARK    1  A    between atoms: C_7  and  C_11
REMARK    2  A    between atoms: C_11  and  C_12
REMARK    3  A    between atoms: N_14  and  N_15
REMARK    4  A    between atoms: C_16  and  C_18
REMARK    5  A    between atoms: C_18  and  O_19
REMARK    6  A    between atoms: O_19  and  C_20
REMARK                            x       y       z     vdW  Elec       q    Type
REMARK                         _______ _______ _______ _____ _____    ______ ____
ROOT
ATOM      1  C   UNL     1      -5.301  -4.181   0.004  0.00  0.00    +0.233 C 
ATOM      2  O   UNL     1      -4.331  -4.909  -0.004  0.00  0.00    -0.274 OA
ATOM      3  N   UNL     1      -5.139  -2.843   0.011  0.00  0.00    -0.234 N 
ATOM      4  H   UNL     1      -5.914  -2.260   0.018  0.00  0.00    +0.173 HD
ENDROOT
BRANCH   3   5
ATOM      5  N   UNL     1      -3.850  -2.293   0.008  0.00  0.00    -0.232 N 
ATOM      6  C   UNL     1      -3.688  -0.955   0.014  0.00  0.00    +0.267 C 
ATOM      7  O   UNL     1      -4.658  -0.227   0.023  0.00  0.00    -0.271 OA
ATOM      8  H   UNL     1      -3.074  -2.876   0.001  0.00  0.00    +0.173 HD
BRANCH   6   9
ATOM      9  C   UNL     1      -2.302  -0.364   0.011  0.00  0.00    +0.326 C 
BRANCH   9  10
ATOM     10  O   UNL     1      -2.392   1.062   0.019  0.00  0.00    -0.483 OA
BRANCH  10  11
ATOM     11  C   UNL     1      -1.223   1.754   0.017  0.00  0.00    +0.121 A 
ATOM     12  C   UNL     1      -0.013   1.076   0.008  0.00  0.00    +0.046 A 
ATOM     13  C   UNL     1       1.172   1.783   0.000  0.00  0.00    +0.007 A 
ATOM     14  C   UNL     1       1.159   3.169   0.008  0.00  0.00    -0.044 A 
ATOM     15  C   UNL     1      -0.045   3.847   0.022  0.00  0.00    -0.041 A 
ATOM     16  C   UNL     1      -1.236   3.140   0.031  0.00  0.00    +0.049 A 
ATOM     17  C   UNL     1       0.208   5.340   0.027  0.00  0.00    +0.036 C 
ATOM     18  C   UNL     1       1.674   5.502  -0.427  0.00  0.00    +0.009 C 
ATOM     19  C   UNL     1       2.304   4.159   0.001  0.00  0.00    +0.036 C 
ENDBRANCH  10  11
ENDBRANCH   9  10
ENDBRANCH   6   9
ENDBRANCH   3   5
BRANCH   1  20
ATOM     20  C   UNL     1      -6.687  -4.772   0.007  0.00  0.00    +0.134 C 
BRANCH  20  27
ATOM     21  C   UNL     1      -6.171  -7.972   3.393  0.00  0.00    +0.001 A 
ATOM     22  C   UNL     1      -6.133  -9.272   2.908  0.00  0.00    +0.002 A 
ATOM     23  C   UNL     1      -6.242  -9.521   1.557  0.00  0.00    +0.026 A 
ATOM     24  C   UNL     1      -6.391  -8.461   0.669  0.00  0.00    +0.047 A 
ATOM     25  C   UNL     1      -6.429  -7.145   1.166  0.00  0.00    +0.003 A 
ATOM     26  C   UNL     1      -6.316  -6.916   2.539  0.00  0.00    +0.010 A 
ATOM     27  C   UNL     1      -6.592  -6.276  -0.001  0.00  0.00    -0.014 A 
ATOM     28  C   UNL     1      -6.646  -7.073  -1.080  0.00  0.00    +0.087 A 
ATOM     29  N   UNL     1      -6.522  -8.382  -0.699  0.00  0.00    -0.360 N 
ATOM     30  H   UNL     1      -6.530  -9.141  -1.303  0.00  0.00    +0.165 HD
ENDBRANCH  20  27
ENDBRANCH   1  20
TORSDOF 6
