REMARK  Name = ZINC64002325
REMARK  8 active torsions:
REMARK  status: ('A' for Active; 'I' for Inactive)
REMARK    1  A    between atoms: C_1  and  C_2
REMARK    2  A    between atoms: C_2  and  C_3
REMARK    3  A    between atoms: N_5  and  C_6
REMARK    4  A    between atoms: C_15  and  O_17
REMARK    5  A    between atoms: O_17  and  C_18
REMARK    6  A    between atoms: N_21  and  C_24
REMARK    7  A    between atoms: C_24  and  C_25
REMARK    8  A    between atoms: C_27  and  C_36
REMARK                            x       y       z     vdW  Elec       q    Type
REMARK                         _______ _______ _______ _____ _____    ______ ____
ROOT
ATOM      1  C   UNL     1      -3.014  -2.361   0.018  0.00  0.00    +0.133 C 
ATOM      2  C   UNL     1      -3.513  -2.499   1.441  0.00  0.00    -0.021 A 
ATOM      3  C   UNL     1      -3.975  -1.539   2.326  0.00  0.00    +0.006 A 
ATOM      4  C   UNL     1      -4.383  -1.902   3.595  0.00  0.00    +0.000 A 
ATOM      5  C   UNL     1      -4.330  -3.228   3.983  0.00  0.00    +0.000 A 
ATOM      6  C   UNL     1      -3.871  -4.186   3.102  0.00  0.00    +0.004 A 
ATOM      7  C   UNL     1      -3.461  -3.825   1.829  0.00  0.00    -0.034 A 
ATOM      8  C   UNL     1      -2.930  -4.664   0.692  0.00  0.00    +0.021 C 
ATOM      9  C   UNL     1      -3.063  -3.788  -0.570  0.00  0.00    +0.153 C 
ATOM     10  C   UNL     1      -3.760  -5.936   0.534  0.00  0.00    -0.005 C 
ATOM     11  C   UNL     1      -3.170  -6.788  -0.593  0.00  0.00    -0.078 C 
ATOM     12  N   UNL     1      -1.778  -7.128  -0.275  0.00  0.00    +0.381 N 
ATOM     13  C   UNL     1      -0.966  -5.906  -0.213  0.00  0.00    -0.078 C 
ATOM     14  C   UNL     1      -1.464  -5.017   0.930  0.00  0.00    -0.005 C 
ATOM     15  H   UNL     1      -1.743  -7.599   0.617  0.00  0.00    -0.082 HD
ENDROOT
BRANCH   1  18
ATOM     16  C   UNL     1      -1.412  -0.526   0.013  0.00  0.00    +0.213 C 
ATOM     17  O   UNL     1      -2.344   0.250   0.026  0.00  0.00    -0.276 OA
ATOM     18  N   UNL     1      -1.640  -1.854   0.008  0.00  0.00    -0.306 N 
ATOM     19  H   UNL     1      -0.894  -2.474  -0.003  0.00  0.00    +0.149 HD
BRANCH  16  21
ATOM     20  C   UNL     1      -0.019   1.526   0.010  0.00  0.00    +0.013 C 
ATOM     21  C   UNL     1       0.002  -0.004   0.002  0.00  0.00    +0.092 C 
ENDBRANCH  16  21
ENDBRANCH   1  18
BRANCH   9  22
ATOM     22  O   UNL     1      -4.311  -4.026  -1.225  0.00  0.00    -0.377 OA
ATOM     23  C   UNL     1      -4.305  -3.709  -2.618  0.00  0.00    +0.194 C 
ENDBRANCH   9  22
BRANCH  12  24
ATOM     24  C   UNL     1      -1.243  -8.017  -1.315  0.00  0.00    -0.050 C 
BRANCH  24  25
ATOM     25  C   UNL     1       0.164  -8.472  -0.923  0.00  0.00    +0.089 C 
ATOM     26  C   UNL     1       0.671  -9.502  -1.907  0.00  0.00    -0.043 C 
ATOM     27  C   UNL     1       0.893 -10.628  -1.191  0.00  0.00    +0.000 A 
ATOM     28  C   UNL     1       1.382 -11.962  -1.557  0.00  0.00    +0.010 A 
ATOM     29  C   UNL     1       1.504 -12.911  -0.605  0.00  0.00    +0.002 A 
ATOM     30  C   UNL     1       1.180 -12.674   0.737  0.00  0.00    +0.022 A 
ATOM     31  C   UNL     1       0.722 -11.480   1.176  0.00  0.00    +0.064 A 
ATOM     32  C   UNL     1       0.550 -10.375   0.227  0.00  0.00    +0.061 A 
ATOM     33  N   UNL     1       0.133  -9.141   0.382  0.00  0.00    -0.378 N 
ATOM     34 CL   UNL     1       0.339 -11.256   2.854  0.00  0.00    -0.081 Cl
ATOM     35  C   UNL     1       0.886  -9.313  -3.387  0.00  0.00    +0.042 C 
ATOM     36  H   UNL     1      -0.148  -8.738   1.218  0.00  0.00    +0.160 HD
ENDBRANCH  24  25
ENDBRANCH  12  24
TORSDOF 5
