REMARK  Name = ZINC60238951
REMARK  11 active torsions:
REMARK  status: ('A' for Active; 'I' for Inactive)
REMARK    1  A    between atoms: C_1  and  C_2
REMARK    2  A    between atoms: C_5  and  C_8
REMARK    3  A    between atoms: C_8  and  C_10
REMARK    4  A    between atoms: C_8  and  N_30
REMARK    5  A    between atoms: C_10  and  N_11
REMARK    6  A    between atoms: C_12  and  C_14
REMARK    7  A    between atoms: C_14  and  C_16
REMARK    8  A    between atoms: C_14  and  N_19
REMARK    9  A    between atoms: C_16  and  C_17
REMARK   10  A    between atoms: C_16  and  C_18
REMARK   11  A    between atoms: C_20  and  C_22
REMARK                            x       y       z     vdW  Elec       q    Type
REMARK                         _______ _______ _______ _____ _____    ______ ____
ROOT
ATOM      1  N   UNL     1       2.336  -6.016  -0.241  0.00  0.00    -0.315 N 
ATOM      2  C   UNL     1       3.518  -6.522   0.165  0.00  0.00    +0.234 C 
ATOM      3  O   UNL     1       4.547  -5.931  -0.085  0.00  0.00    -0.274 OA
ATOM      4  H   UNL     1       1.520  -6.522  -0.105  0.00  0.00    +0.149 HD
ENDROOT
BRANCH   1   5
ATOM      5  C   UNL     1       2.284  -4.702  -0.887  0.00  0.00    +0.093 C 
BRANCH   5   6
ATOM      6  C   UNL     1       0.826  -4.315  -1.141  0.00  0.00    -0.020 C 
BRANCH   6  11
ATOM      7  C   UNL     1      -1.492  -7.946  -4.992  0.00  0.00    +0.044 C 
ATOM      8  C   UNL     1      -0.887  -7.000  -3.988  0.00  0.00    -0.050 A 
ATOM      9  C   UNL     1      -1.131  -7.175  -2.639  0.00  0.00    +0.003 A 
ATOM     10  C   UNL     1      -0.576  -6.307  -1.717  0.00  0.00    +0.002 A 
ATOM     11  C   UNL     1       0.222  -5.263  -2.145  0.00  0.00    -0.059 A 
ATOM     12  C   UNL     1       0.467  -5.087  -3.494  0.00  0.00    +0.002 A 
ATOM     13  C   UNL     1      -0.084  -5.958  -4.415  0.00  0.00    +0.003 A 
ENDBRANCH   6  11
BRANCH   6  14
ATOM     14  N   UNL     1       0.767  -2.944  -1.664  0.00  0.00    +0.385 N 
ATOM     15  C   UNL     1      -0.646  -2.525  -1.845  0.00  0.00    -0.078 C 
ATOM     16  C   UNL     1      -0.562  -0.978  -1.836  0.00  0.00    -0.020 C 
ATOM     17  C   UNL     1       0.527  -0.698  -0.774  0.00  0.00    -0.020 C 
ATOM     18  C   UNL     1       1.345  -1.999  -0.684  0.00  0.00    -0.078 C 
ATOM     19  H   UNL     1       1.264  -2.884  -2.540  0.00  0.00    -0.081 HD
ENDBRANCH   6  14
ENDBRANCH   5   6
ENDBRANCH   1   5
BRANCH   2  20
ATOM     20  C   UNL     1       3.559  -7.820   0.928  0.00  0.00    +0.162 C 
BRANCH  20  21
ATOM     21  N   UNL     1       4.733  -7.834   1.805  0.00  0.00    -0.300 N 
ATOM     22  C   UNL     1       4.737  -8.600   2.914  0.00  0.00    +0.250 C 
ATOM     23  O   UNL     1       3.766  -9.280   3.186  0.00  0.00    -0.270 OA
ATOM     24  H   UNL     1       5.507  -7.292   1.587  0.00  0.00    +0.150 HD
BRANCH  22  25
ATOM     25  C   UNL     1       5.919  -8.614   3.797  0.00  0.00    +0.107 A 
ATOM     26  C   UNL     1       6.015  -7.706   4.857  0.00  0.00    +0.138 A 
ATOM     27  C   UNL     1       7.126  -7.726   5.679  0.00  0.00    +0.039 A 
ATOM     28  C   UNL     1       8.140  -8.640   5.456  0.00  0.00    +0.006 A 
ATOM     29  C   UNL     1       8.053  -9.541   4.410  0.00  0.00    +0.039 A 
ATOM     30  C   UNL     1       6.946  -9.538   3.582  0.00  0.00    +0.138 A 
ATOM     31  F   UNL     1       6.861 -10.422   2.564  0.00  0.00    -0.205 F 
ATOM     32  F   UNL     1       5.026  -6.812   5.076  0.00  0.00    -0.205 F 
ENDBRANCH  22  25
ENDBRANCH  20  21
BRANCH  20  33
ATOM     33  C   UNL     1       3.644  -8.988  -0.057  0.00  0.00    +0.012 C 
ATOM     34  C   UNL     1       2.376  -9.028  -0.911  0.00  0.00    +0.009 C 
ATOM     35  C   UNL     1       4.864  -8.803  -0.962  0.00  0.00    +0.009 C 
ENDBRANCH  20  33
ENDBRANCH   2  20
TORSDOF 8
