REMARK  Name = ZINC14879051
REMARK  13 active torsions:
REMARK  status: ('A' for Active; 'I' for Inactive)
REMARK    1  A    between atoms: C_1  and  C_2
REMARK    2  A    between atoms: C_3  and  C_4
REMARK    3  A    between atoms: C_3  and  C_5
REMARK    4  A    between atoms: C_5  and  N_68
REMARK    5  A    between atoms: C_8  and  C_11
REMARK    6  A    between atoms: C_11  and  C_23
REMARK    7  A    between atoms: N_14  and  C_18
REMARK    8  A    between atoms: C_18  and  C_19
REMARK    9  A    between atoms: C_19  and  C_20
REMARK   10  A    between atoms: C_20  and  N_70
REMARK   11  A    between atoms: C_21  and  N_70
REMARK   12  A    between atoms: C_22  and  N_70
REMARK   13  A    between atoms: C_23  and  C_24
REMARK                            x       y       z     vdW  Elec       q    Type
REMARK                         _______ _______ _______ _____ _____    ______ ____
ROOT
ATOM      1  C   UNL     1      -1.204   1.830   0.017  0.00  0.00    +0.119 C 
ATOM      2  C   UNL     1      -0.628   3.232   0.024  0.00  0.00    +0.247 C 
ATOM      3  O   UNL     1      -1.244   4.276   0.034  0.00  0.00    -0.273 OA
ATOM      4  N   UNL     1       0.710   3.076   0.011  0.00  0.00    -0.224 N 
ATOM      5  C   UNL     1       1.057   1.784   0.002  0.00  0.00    +0.309 C 
ATOM      6  O   UNL     1       2.207   1.393  -0.011  0.00  0.00    -0.252 OA
ATOM      7  N   UNL     1      -0.011   0.966   0.007  0.00  0.00    -0.284 N 
ATOM      8  H   UNL     1       0.002  -0.004   0.002  0.00  0.00    +0.151 HD
ENDROOT
BRANCH   1  11
ATOM      9  C   UNL     1      -2.087   1.810   3.764  0.00  0.00    -0.078 C 
ATOM     10  C   UNL     1      -1.228   1.999   2.511  0.00  0.00    -0.013 C 
ATOM     11  C   UNL     1      -2.036   1.585   1.278  0.00  0.00    +0.018 C 
ATOM     12  C   UNL     1      -3.320   2.417   1.213  0.00  0.00    -0.013 C 
ATOM     13  C   UNL     1      -4.117   2.217   2.504  0.00  0.00    -0.078 C 
ATOM     14  N   UNL     1      -3.294   2.656   3.651  0.00  0.00    +0.382 N 
ATOM     15  H   UNL     1      -3.005   3.630   3.500  0.00  0.00    -0.081 HD
BRANCH  14  16
ATOM     16  C   UNL     1      -4.083   2.579   4.898  0.00  0.00    -0.048 C 
BRANCH  16  19
ATOM     17  C   UNL     1      -7.478   4.301   4.387  0.00  0.00    +0.035 C 
ATOM     18  C   UNL     1      -6.380   3.269   4.443  0.00  0.00    -0.033 C 
ATOM     19  C   UNL     1      -5.180   3.610   4.842  0.00  0.00    -0.093 C 
ATOM     20  C   UNL     1      -4.897   5.034   5.247  0.00  0.00    +0.037 C 
ENDBRANCH  16  19
ENDBRANCH  14  16
ENDBRANCH   1  11
BRANCH   4  21
ATOM     21  C   UNL     1       1.668   4.185   0.007  0.00  0.00    +0.116 C 
BRANCH  21  22
ATOM     22  C   UNL     1       1.987   4.578  -1.437  0.00  0.00    +0.001 C 
BRANCH  22  23
ATOM     23  C   UNL     1       2.987   5.736  -1.441  0.00  0.00    -0.078 C 
BRANCH  23  26
ATOM     24  C   UNL     1       4.060   7.365  -2.875  0.00  0.00    -0.097 C 
ATOM     25  C   UNL     1       4.008   5.032  -3.521  0.00  0.00    -0.097 C 
ATOM     26  N   UNL     1       3.269   6.117  -2.841  0.00  0.00    +0.376 N 
ATOM     27  H   UNL     1       2.380   6.272  -3.330  0.00  0.00    -0.083 HD
ENDBRANCH  23  26
ENDBRANCH  22  23
ENDBRANCH  21  22
ENDBRANCH   4  21
BRANCH   1  28
ATOM     28  C   UNL     1      -2.047   1.598  -1.239  0.00  0.00    +0.070 C 
BRANCH  28  29
ATOM     29  C   UNL     1      -1.186   1.779  -2.462  0.00  0.00    -0.045 A 
ATOM     30  C   UNL     1      -1.077   3.024  -3.052  0.00  0.00    +0.006 A 
ATOM     31  C   UNL     1      -0.284   3.192  -4.172  0.00  0.00    +0.038 A 
ATOM     32  C   UNL     1       0.394   2.110  -4.708  0.00  0.00    +0.123 A 
ATOM     33  C   UNL     1       0.280   0.862  -4.119  0.00  0.00    +0.038 A 
ATOM     34  C   UNL     1      -0.510   0.698  -2.997  0.00  0.00    +0.006 A 
ATOM     35  F   UNL     1       1.166   2.272  -5.805  0.00  0.00    -0.205 F 
ENDBRANCH  28  29
ENDBRANCH   1  28
TORSDOF 9
