REMARK  Name = ZINC03877666
REMARK  4 active torsions:
REMARK  status: ('A' for Active; 'I' for Inactive)
REMARK    1  A    between atoms: C_7  and  N_19
REMARK    2  A    between atoms: N_19  and  S_20
REMARK    3  A    between atoms: S_20  and  C_23
REMARK    4  A    between atoms: C_27  and  N_29
REMARK                            x       y       z     vdW  Elec       q    Type
REMARK                         _______ _______ _______ _____ _____    ______ ____
ROOT
ATOM      1  C   UNL     1      -3.191   4.507  -0.214  0.00  0.00    +0.001 A 
ATOM      2  C   UNL     1      -3.593   3.185  -0.390  0.00  0.00    +0.001 A 
ATOM      3  C   UNL     1      -2.676   2.183  -0.487  0.00  0.00    +0.012 A 
ATOM      4  C   UNL     1      -1.307   2.482  -0.409  0.00  0.00    +0.027 A 
ATOM      5  C   UNL     1      -0.898   3.826  -0.236  0.00  0.00    +0.008 A 
ATOM      6  C   UNL     1      -1.870   4.833  -0.145  0.00  0.00    +0.010 A 
ATOM      7  C   UNL     1       0.479   4.135  -0.152  0.00  0.00    +0.057 A 
ATOM      8  C   UNL     1       1.408   3.142  -0.242  0.00  0.00    +0.037 A 
ATOM      9  C   UNL     1       1.018   1.806  -0.418  0.00  0.00    +0.033 A 
ATOM     10  C   UNL     1      -0.334   1.465  -0.505  0.00  0.00    +0.144 A 
ATOM     11  O   UNL     1      -0.421   0.126  -0.671  0.00  0.00    -0.458 OA
ATOM     12  C   UNL     1       0.783  -0.440  -0.700  0.00  0.00    +0.117 A 
ATOM     13  C   UNL     1       1.736   0.537  -0.547  0.00  0.00    +0.066 A 
ATOM     14  C   UNL     1       3.170   0.239  -0.532  0.00  0.00    +0.167 C 
ATOM     15  O   UNL     1       4.015   1.107  -0.597  0.00  0.00    -0.292 OA
ATOM     16  C   UNL     1       3.523  -1.238  -0.430  0.00  0.00    +0.080 C 
ATOM     17  C   UNL     1       2.581  -2.021  -1.350  0.00  0.00    +0.016 C 
ATOM     18  C   UNL     1       1.133  -1.899  -0.869  0.00  0.00    +0.075 C 
ENDROOT
BRANCH   7  19
ATOM     19  N   UNL     1       0.888   5.459   0.023  0.00  0.00    -0.216 N 
ATOM     20  H   UNL     1       0.360   6.061   0.571  0.00  0.00    +0.174 HD
BRANCH  19  21
ATOM     21  S   UNL     1       2.273   6.001  -0.706  0.00  0.00    +0.072 S 
ATOM     22  O   UNL     1       2.343   7.398  -0.456  0.00  0.00    -0.150 OA
ATOM     23  O   UNL     1       3.309   5.106  -0.325  0.00  0.00    -0.150 OA
BRANCH  21  24
ATOM     24  C   UNL     1       2.056   5.811  -2.444  0.00  0.00    +0.111 A 
ATOM     25  C   UNL     1       2.441   4.636  -3.064  0.00  0.00    +0.030 A 
ATOM     26  C   UNL     1       2.267   4.484  -4.426  0.00  0.00    +0.024 A 
ATOM     27  C   UNL     1       1.717   5.512  -5.172  0.00  0.00    +0.071 A 
ATOM     28  C   UNL     1       1.337   6.689  -4.552  0.00  0.00    +0.146 A 
ATOM     29  C   UNL     1       1.507   6.838  -3.188  0.00  0.00    +0.063 A 
ATOM     30 CL   UNL     1       1.503   5.325  -6.884  0.00  0.00    -0.081 Cl
BRANCH  28  31
ATOM     31  N   UNL     1       0.748   7.789  -5.349  0.00  0.00    +0.058 N 
ATOM     32  O   UNL     1       0.413   8.825  -4.803  0.00  0.00    -0.126 OA
ATOM     33  O   UNL     1       0.598   7.657  -6.550  0.00  0.00    -0.126 OA
ENDBRANCH  28  31
ENDBRANCH  21  24
ENDBRANCH  19  21
ENDBRANCH   7  19
TORSDOF 4
