REMARK  Name = ZINC38683683
REMARK  12 active torsions:
REMARK  status: ('A' for Active; 'I' for Inactive)
REMARK    1  A    between atoms: C_1  and  C_2
REMARK    2  A    between atoms: C_2  and  O_3
REMARK    3  A    between atoms: O_3  and  C_4
REMARK    4  A    between atoms: C_9  and  C_10
REMARK    5  A    between atoms: C_10  and  O_12
REMARK    6  A    between atoms: O_12  and  C_13
REMARK    7  A    between atoms: C_20  and  N_36
REMARK    8  A    between atoms: C_21  and  C_34
REMARK    9  A    between atoms: C_22  and  C_24
REMARK   10  A    between atoms: C_27  and  C_30
REMARK   11  A    between atoms: C_30  and  O_32
REMARK   12  A    between atoms: O_32  and  C_33
REMARK                            x       y       z     vdW  Elec       q    Type
REMARK                         _______ _______ _______ _____ _____    ______ ____
ROOT
ATOM      1  C   UNL     1      -6.207  -1.148   0.022  0.00  0.00    +0.135 A 
ATOM      2  C   UNL     1      -5.906   0.205  -0.050  0.00  0.00    +0.047 A 
ATOM      3  C   UNL     1      -6.924   1.138  -0.069  0.00  0.00    +0.012 A 
ATOM      4  C   UNL     1      -8.245   0.730  -0.016  0.00  0.00    +0.008 A 
ATOM      5  C   UNL     1      -8.551  -0.621   0.057  0.00  0.00    +0.138 A 
ATOM      6  C   UNL     1      -7.528  -1.560   0.070  0.00  0.00    +0.093 A 
ATOM      7  O   UNL     1      -9.839  -1.040   0.110  0.00  0.00    -0.441 OA
ATOM      8  C   UNL     1     -10.827  -0.221  -0.287  0.00  0.00    +0.199 C 
ATOM      9  C   UNL     1     -10.655   1.119  -0.378  0.00  0.00    +0.098 C 
ATOM     10  C   UNL     1      -9.340   1.762  -0.037  0.00  0.00    +0.098 C 
ENDROOT
BRANCH  10  11
ATOM     11  C   UNL     1      -9.440   2.412   1.319  0.00  0.00    -0.035 A 
ATOM     12  C   UNL     1      -9.717   1.641   2.434  0.00  0.00    +0.005 A 
ATOM     13  C   UNL     1      -9.810   2.230   3.678  0.00  0.00    +0.015 A 
ATOM     14  C   UNL     1      -9.623   3.607   3.811  0.00  0.00    +0.059 A 
ATOM     15  C   UNL     1      -9.343   4.379   2.682  0.00  0.00    +0.015 A 
ATOM     16  C   UNL     1      -9.247   3.777   1.444  0.00  0.00    +0.005 A 
BRANCH  14  17
ATOM     17  C   UNL     1      -9.720   4.244   5.140  0.00  0.00    +0.339 C 
ATOM     18  O   UNL     1      -9.964   3.570   6.120  0.00  0.00    -0.245 OA
BRANCH  17  19
ATOM     19  O   UNL     1      -9.539   5.573   5.265  0.00  0.00    -0.464 OA
ATOM     20  C   UNL     1      -9.648   6.122   6.580  0.00  0.00    +0.280 C 
ENDBRANCH  17  19
ENDBRANCH  14  17
ENDBRANCH  10  11
BRANCH   8  21
ATOM     21  N   UNL     1     -12.048  -0.759  -0.610  0.00  0.00    -0.328 N 
ATOM     22  H   UNL     1     -12.188  -1.717  -0.550  0.00  0.00    +0.145 HD
ATOM     23  H   UNL     1     -12.772  -0.180  -0.898  0.00  0.00    +0.145 HD
ENDBRANCH   8  21
BRANCH   9  24
ATOM     24  C   UNL     1     -11.747   1.939  -0.808  0.00  0.00    +0.101 C 
ATOM     25  N   UNL     1     -12.614   2.590  -1.149  0.00  0.00    -0.191 NA
ENDBRANCH   9  24
BRANCH   1  26
ATOM     26  O   UNL     1      -5.206  -2.068   0.041  0.00  0.00    -0.422 OA
BRANCH  26  27
ATOM     27  C   UNL     1      -4.947  -2.745  -1.095  0.00  0.00    +0.348 C 
ATOM     28  O   UNL     1      -5.657  -2.591  -2.069  0.00  0.00    -0.244 OA
BRANCH  27  34
ATOM     29  C   UNL     1      -3.531  -4.379  -2.336  0.00  0.00    +0.134 A 
ATOM     30  C   UNL     1      -2.449  -5.245  -2.384  0.00  0.00    +0.046 A 
ATOM     31  C   UNL     1      -1.647  -5.413  -1.272  0.00  0.00    +0.004 A 
ATOM     32  C   UNL     1      -1.917  -4.721  -0.102  0.00  0.00    +0.001 A 
ATOM     33  C   UNL     1      -2.987  -3.857  -0.036  0.00  0.00    +0.018 A 
ATOM     34  C   UNL     1      -3.804  -3.673  -1.156  0.00  0.00    +0.101 A 
BRANCH  29  35
ATOM     35  O   UNL     1      -4.319  -4.213  -3.427  0.00  0.00    -0.491 OA
BRANCH  35  37
ATOM     36  C   UNL     1      -4.974  -4.649  -5.712  0.00  0.00    +0.048 C 
ATOM     37  C   UNL     1      -3.980  -4.966  -4.593  0.00  0.00    +0.226 C 
ENDBRANCH  35  37
ENDBRANCH  29  35
ENDBRANCH  27  34
ENDBRANCH  26  27
ENDBRANCH   1  26
TORSDOF 10
