REMARK  Name = ZINC22325142
REMARK  7 active torsions:
REMARK  status: ('A' for Active; 'I' for Inactive)
REMARK    1  A    between atoms: C_1  and  C_2
REMARK    2  A    between atoms: C_5  and  C_36
REMARK    3  A    between atoms: N_8  and  C_10
REMARK    4  A    between atoms: C_10  and  C_11
REMARK    5  A    between atoms: N_16  and  C_17
REMARK    6  A    between atoms: C_17  and  C_19
REMARK    7  A    between atoms: C_22  and  N_25
REMARK                            x       y       z     vdW  Elec       q    Type
REMARK                         _______ _______ _______ _____ _____    ______ ____
ROOT
ATOM      1  C   UNL     1       0.807   3.692   6.407  0.00  0.00    +0.269 C 
ATOM      2  O   UNL     1      -0.111   2.922   6.633  0.00  0.00    -0.268 OA
ENDROOT
BRANCH   1   8
ATOM      3  C   UNL     1       2.936   0.023   4.531  0.00  0.00    +0.008 A 
ATOM      4  C   UNL     1       1.803  -0.590   4.893  0.00  0.00    +0.067 A 
ATOM      5  S   UNL     1       0.884   0.742   5.641  0.00  0.00    -0.061 S 
ATOM      6  C   UNL     1       2.009   1.975   5.436  0.00  0.00    +0.163 A 
ATOM      7  N   UNL     1       3.046   1.349   4.815  0.00  0.00    -0.341 N 
ATOM      8  N   UNL     1       1.911   3.253   5.797  0.00  0.00    -0.152 NA
ATOM      9  H   UNL     1       3.849   1.839   4.578  0.00  0.00    +0.167 HD
BRANCH   3  10
ATOM     10  C   UNL     1       4.047  -0.726   3.841  0.00  0.00    -0.024 C 
BRANCH  10  16
ATOM     11  C   UNL     1       3.358   1.666   0.434  0.00  0.00    +0.005 C 
ATOM     12  C   UNL     1       3.162   0.154   0.302  0.00  0.00    -0.031 C 
ATOM     13  C   UNL     1       4.377  -0.460  -0.399  0.00  0.00    +0.003 C 
ATOM     14  C   UNL     1       5.620  -0.239   0.469  0.00  0.00    -0.031 C 
ATOM     15  C   UNL     1       5.382  -0.844   1.854  0.00  0.00    -0.075 C 
ATOM     16  N   UNL     1       4.224  -0.197   2.482  0.00  0.00    +0.384 N 
ATOM     17  C   UNL     1       3.014  -0.465   1.693  0.00  0.00    -0.075 C 
ATOM     18  C   UNL     1       6.826  -0.916  -0.185  0.00  0.00    +0.005 C 
ATOM     19  H   UNL     1       4.380   0.798   2.528  0.00  0.00    -0.081 HD
ENDBRANCH  10  16
ENDBRANCH   3  10
ENDBRANCH   1   8
BRANCH   1  20
ATOM     20  C   UNL     1       0.698   5.112   6.808  0.00  0.00    +0.039 A 
ATOM     21  C   UNL     1       1.746   5.995   6.545  0.00  0.00    +0.015 A 
ATOM     22  C   UNL     1       1.642   7.317   6.919  0.00  0.00    +0.027 A 
ATOM     23  C   UNL     1       0.494   7.771   7.559  0.00  0.00    +0.051 A 
ATOM     24  C   UNL     1      -0.551   6.893   7.823  0.00  0.00    +0.027 A 
ATOM     25  C   UNL     1      -0.455   5.572   7.446  0.00  0.00    +0.015 A 
BRANCH  23  26
ATOM     26  N   UNL     1       0.391   9.113   7.938  0.00  0.00    -0.267 N 
ATOM     27  C   UNL     1       0.827   9.502   9.167  0.00  0.00    +0.207 A 
ATOM     28  N   UNL     1       0.765  10.728   9.590  0.00  0.00    -0.237 NA
ATOM     29  C   UNL     1       0.253  11.721   8.821  0.00  0.00    +0.078 A 
ATOM     30  C   UNL     1       0.187  13.040   9.276  0.00  0.00    +0.028 A 
ATOM     31  C   UNL     1      -0.340  14.016   8.462  0.00  0.00    +0.002 A 
ATOM     32  C   UNL     1      -0.809  13.707   7.191  0.00  0.00    +0.001 A 
ATOM     33  C   UNL     1      -0.755  12.414   6.720  0.00  0.00    +0.015 A 
ATOM     34  C   UNL     1      -0.224  11.410   7.528  0.00  0.00    +0.065 A 
ATOM     35  C   UNL     1      -0.136  10.014   7.077  0.00  0.00    +0.266 A 
ATOM     36  O   UNL     1      -0.525   9.681   5.972  0.00  0.00    -0.267 OA
ENDBRANCH  23  26
ENDBRANCH   1  20
TORSDOF 5
