REMARK  Name = ZINC04721401
REMARK  6 active torsions:
REMARK  status: ('A' for Active; 'I' for Inactive)
REMARK    1  A    between atoms: C_1  and  O_2
REMARK    2  A    between atoms: O_2  and  C_3
REMARK    3  A    between atoms: C_6  and  C_10
REMARK    4  A    between atoms: N_11  and  N_12
REMARK    5  A    between atoms: C_13  and  C_15
REMARK    6  A    between atoms: C_17  and  C_23
REMARK                            x       y       z     vdW  Elec       q    Type
REMARK                         _______ _______ _______ _____ _____    ______ ____
ROOT
ATOM      1  N   UNL     1       1.879   3.779   1.963  0.00  0.00    -0.206 N 
ATOM      2  C   UNL     1       2.721   3.207   1.080  0.00  0.00    +0.245 C 
ATOM      3  O   UNL     1       3.554   2.412   1.463  0.00  0.00    -0.273 OA
ATOM      4  H   UNL     1       1.213   4.414   1.657  0.00  0.00    +0.177 HD
ENDROOT
BRANCH   2   5
ATOM      5  C   UNL     1       2.628   3.553  -0.384  0.00  0.00    +0.171 C 
ATOM      6  C   UNL     1       3.592   4.712  -0.728  0.00  0.00    +0.057 C 
ATOM      7  C   UNL     1       4.847   3.946  -1.202  0.00  0.00    +0.113 C 
ATOM      8  N   UNL     1       4.356   2.649  -1.683  0.00  0.00    -0.314 N 
ATOM      9  C   UNL     1       3.114   2.400  -1.233  0.00  0.00    +0.226 C 
ATOM     10  O   UNL     1       2.474   1.399  -1.478  0.00  0.00    -0.275 OA
ATOM     11  H   UNL     1       4.863   2.048  -2.251  0.00  0.00    +0.149 HD
BRANCH   6  12
ATOM     12  C   UNL     1       3.896   5.542   0.492  0.00  0.00    -0.042 A 
ATOM     13  C   UNL     1       3.379   6.818   0.606  0.00  0.00    +0.004 A 
ATOM     14  C   UNL     1       3.654   7.578   1.728  0.00  0.00    +0.000 A 
ATOM     15  C   UNL     1       4.454   7.064   2.732  0.00  0.00    +0.000 A 
ATOM     16  C   UNL     1       4.976   5.789   2.615  0.00  0.00    +0.000 A 
ATOM     17  C   UNL     1       4.697   5.028   1.496  0.00  0.00    +0.004 A 
ENDBRANCH   6  12
ENDBRANCH   2   5
BRANCH   1  19
ATOM     18  C   UNL     1       1.067   3.891   4.152  0.00  0.00    +0.138 C 
ATOM     19  N   UNL     1       1.966   3.456   3.324  0.00  0.00    -0.188 NA
BRANCH  18  23
ATOM     20  C   UNL     1      -2.625   5.388   2.684  0.00  0.00    +0.134 A 
ATOM     21  C   UNL     1      -1.857   4.543   1.894  0.00  0.00    +0.047 A 
ATOM     22  C   UNL     1      -0.658   4.054   2.366  0.00  0.00    +0.013 A 
ATOM     23  C   UNL     1      -0.215   4.411   3.643  0.00  0.00    -0.004 A 
ATOM     24  C   UNL     1      -0.993   5.257   4.437  0.00  0.00    +0.028 A 
ATOM     25  C   UNL     1      -2.188   5.746   3.954  0.00  0.00    +0.060 A 
ATOM     26 BR   UNL     1      -3.239   6.898   5.024  0.00  0.00    -0.046 Br
BRANCH  20  28
ATOM     27  C   UNL     1      -4.195   5.459   0.901  0.00  0.00    +0.277 C 
ATOM     28  O   UNL     1      -3.806   5.867   2.214  0.00  0.00    -0.494 OA
ENDBRANCH  20  28
ENDBRANCH  18  23
ENDBRANCH   1  19
TORSDOF 5
