REMARK  Name = ZINC18195640
REMARK  7 active torsions:
REMARK  status: ('A' for Active; 'I' for Inactive)
REMARK    1  A    between atoms: C_1  and  O_2
REMARK    2  A    between atoms: O_2  and  C_3
REMARK    3  A    between atoms: C_5  and  C_17
REMARK    4  A    between atoms: C_8  and  O_9
REMARK    5  A    between atoms: O_9  and  C_10
REMARK    6  A    between atoms: C_10  and  C_11
REMARK    7  A    between atoms: N_23  and  C_26
REMARK                            x       y       z     vdW  Elec       q    Type
REMARK                         _______ _______ _______ _____ _____    ______ ____
ROOT
ATOM      1  C   UNL     1      -4.871   0.257   0.037  0.00  0.00    +0.093 C 
ATOM      2  C   UNL     1      -5.681  -0.073  -1.185  0.00  0.00    +0.070 A 
ATOM      3  C   UNL     1      -6.819  -0.839  -1.129  0.00  0.00    +0.125 A 
ATOM      4  N   UNL     1      -7.313  -0.958  -2.392  0.00  0.00    -0.277 N 
ATOM      5  H   UNL     1      -8.110  -1.447  -2.649  0.00  0.00    +0.189 HD
ATOM      6  N   UNL     1      -6.464  -0.246  -3.255  0.00  0.00    -0.218 N 
ATOM      7  C   UNL     1      -5.470   0.292  -2.515  0.00  0.00    +0.278 A 
ATOM      8  O   UNL     1      -4.553   0.977  -2.934  0.00  0.00    -0.265 OA
ATOM      9  N   UNL     1      -7.286  -1.343   0.060  0.00  0.00    -0.303 N 
ATOM     10  C   UNL     1      -6.784  -0.837   1.237  0.00  0.00    +0.017 C 
ATOM     11  C   UNL     1      -5.669  -0.079   1.279  0.00  0.00    +0.024 C 
ATOM     12  C   UNL     1      -5.194   0.440   2.499  0.00  0.00    +0.162 C 
ATOM     13  O   UNL     1      -4.179   1.109   2.504  0.00  0.00    -0.292 OA
ATOM     14  C   UNL     1      -5.913   0.188   3.794  0.00  0.00    +0.080 C 
ATOM     15  C   UNL     1      -7.403  -0.023   3.503  0.00  0.00    +0.014 C 
ATOM     16  C   UNL     1      -7.538  -1.172   2.503  0.00  0.00    +0.051 C 
ATOM     17  H   UNL     1      -7.958  -2.043   0.070  0.00  0.00    +0.153 HD
ENDROOT
BRANCH   1  20
ATOM     18  C   UNL     1      -1.201  -0.638   0.010  0.00  0.00    +0.162 A 
ATOM     19  C   UNL     1      -2.374   0.099   0.019  0.00  0.00    +0.054 A 
ATOM     20  C   UNL     1      -3.596  -0.546   0.027  0.00  0.00    -0.032 A 
ATOM     21  C   UNL     1      -3.652  -1.928   0.026  0.00  0.00    +0.008 A 
ATOM     22  C   UNL     1      -2.485  -2.669   0.017  0.00  0.00    +0.050 A 
ATOM     23  C   UNL     1      -1.257  -2.028   0.003  0.00  0.00    +0.162 A 
BRANCH  18  25
ATOM     24  C   UNL     1      -0.017   1.425   0.010  0.00  0.00    +0.277 C 
ATOM     25  O   UNL     1       0.002  -0.004   0.002  0.00  0.00    -0.491 OA
ENDBRANCH  18  25
BRANCH  23  26
ATOM     26  O   UNL     1      -0.108  -2.756  -0.012  0.00  0.00    -0.484 OA
BRANCH  26  27
ATOM     27  C   UNL     1      -0.242  -4.179  -0.018  0.00  0.00    +0.264 C 
BRANCH  27  28
ATOM     28  C   UNL     1       1.125  -4.812  -0.034  0.00  0.00    -0.010 A 
ATOM     29  C   UNL     1       1.744  -5.091  -1.239  0.00  0.00    +0.007 A 
ATOM     30  C   UNL     1       2.998  -5.671  -1.254  0.00  0.00    +0.000 A 
ATOM     31  C   UNL     1       3.635  -5.973  -0.064  0.00  0.00    +0.000 A 
ATOM     32  C   UNL     1       3.017  -5.693   1.140  0.00  0.00    +0.000 A 
ATOM     33  C   UNL     1       1.764  -5.109   1.155  0.00  0.00    +0.007 A 
ENDBRANCH  27  28
ENDBRANCH  26  27
ENDBRANCH  23  26
ENDBRANCH   1  20
BRANCH   6  34
ATOM     34  C   UNL     1      -6.620  -0.117  -4.639  0.00  0.00    +0.067 A 
ATOM     35  C   UNL     1      -5.699   0.614  -5.378  0.00  0.00    +0.028 A 
ATOM     36  C   UNL     1      -5.856   0.739  -6.745  0.00  0.00    +0.002 A 
ATOM     37  C   UNL     1      -6.929   0.137  -7.377  0.00  0.00    +0.000 A 
ATOM     38  C   UNL     1      -7.847  -0.592  -6.644  0.00  0.00    +0.002 A 
ATOM     39  C   UNL     1      -7.693  -0.726  -5.278  0.00  0.00    +0.028 A 
ENDBRANCH   6  34
TORSDOF 6
