REMARK  Name = ZINC04990073
REMARK  3 active torsions:
REMARK  status: ('A' for Active; 'I' for Inactive)
REMARK    1  A    between atoms: C_1  and  C_2
REMARK    2  A    between atoms: N_16  and  N_17
REMARK    3  A    between atoms: C_18  and  C_19
REMARK                            x       y       z     vdW  Elec       q    Type
REMARK                         _______ _______ _______ _____ _____    ______ ____
ROOT
ATOM      1  C   UNL     1      -8.367   5.125  -0.050  0.00  0.00    +0.044 C 
ATOM      2  C   UNL     1      -6.866   5.260  -0.037  0.00  0.00    -0.050 A 
ATOM      3  C   UNL     1      -6.286   6.519  -0.024  0.00  0.00    +0.005 A 
ATOM      4  C   UNL     1      -4.914   6.659  -0.013  0.00  0.00    +0.026 A 
ATOM      5  C   UNL     1      -4.099   5.532  -0.013  0.00  0.00    +0.050 A 
ATOM      6  C   UNL     1      -4.688   4.258  -0.026  0.00  0.00    +0.029 A 
ATOM      7  C   UNL     1      -6.075   4.132  -0.037  0.00  0.00    +0.015 A 
ATOM      8  C   UNL     1      -3.579   3.289  -0.023  0.00  0.00    +0.138 A 
ATOM      9  C   UNL     1      -2.389   4.047  -0.009  0.00  0.00    +0.163 A 
ATOM     10  N   UNL     1      -2.722   5.379  -0.003  0.00  0.00    -0.338 N 
ATOM     11  H   UNL     1      -2.084   6.109   0.007  0.00  0.00    +0.167 HD
ATOM     12  N   UNL     1      -1.228   3.399   0.002  0.00  0.00    -0.192 NA
ATOM     13  C   UNL     1      -1.225   2.073  -0.011  0.00  0.00    +0.256 A 
ATOM     14  N   UNL     1      -2.359   1.380  -0.024  0.00  0.00    -0.111 NA
ATOM     15  N   UNL     1      -3.508   1.966  -0.030  0.00  0.00    -0.142 NA
ATOM     16  N   UNL     1      -0.017   1.397  -0.005  0.00  0.00    -0.204 N 
ATOM     17  H   UNL     1       0.816   1.893   0.001  0.00  0.00    +0.177 HD
ENDROOT
BRANCH  16  18
ATOM     18  N   UNL     1       0.002  -0.004  -0.013  0.00  0.00    -0.187 NA
ATOM     19  C   UNL     1       1.138  -0.640  -0.012  0.00  0.00    +0.139 C 
BRANCH  19  20
ATOM     20  C   UNL     1       1.158  -2.105  -0.020  0.00  0.00    +0.010 A 
ATOM     21  C   UNL     1       2.378  -2.801  -0.147  0.00  0.00    -0.009 A 
ATOM     22  C   UNL     1       3.599  -2.113  -0.258  0.00  0.00    +0.009 A 
ATOM     23  C   UNL     1       4.758  -2.814  -0.373  0.00  0.00    +0.001 A 
ATOM     24  C   UNL     1       4.772  -4.208  -0.380  0.00  0.00    +0.001 A 
ATOM     25  C   UNL     1       3.628  -4.933  -0.272  0.00  0.00    +0.008 A 
ATOM     26  C   UNL     1       2.390  -4.265  -0.149  0.00  0.00    -0.017 A 
ATOM     27  C   UNL     1       1.197  -4.980  -0.036  0.00  0.00    +0.017 A 
ATOM     28  C   UNL     1      -0.015  -4.299   0.084  0.00  0.00    -0.017 A 
ATOM     29  C   UNL     1      -0.043  -2.835   0.093  0.00  0.00    -0.009 A 
ATOM     30  C   UNL     1      -1.281  -2.182   0.217  0.00  0.00    +0.009 A 
ATOM     31  C   UNL     1      -2.421  -2.916   0.325  0.00  0.00    +0.001 A 
ATOM     32  C   UNL     1      -2.397  -4.309   0.317  0.00  0.00    +0.001 A 
ATOM     33  C   UNL     1      -1.234  -5.001   0.200  0.00  0.00    +0.008 A 
ENDBRANCH  19  20
ENDBRANCH  16  18
TORSDOF 2
