REMARK  Name = ZINC04874918
REMARK  6 active torsions:
REMARK  status: ('A' for Active; 'I' for Inactive)
REMARK    1  A    between atoms: C_3  and  C_6
REMARK    2  A    between atoms: C_6  and  N_7
REMARK    3  A    between atoms: C_8  and  C_12
REMARK    4  A    between atoms: C_12  and  C_14
REMARK    5  A    between atoms: C_12  and  N_49
REMARK    6  A    between atoms: C_23  and  C_26
REMARK                            x       y       z     vdW  Elec       q    Type
REMARK                         _______ _______ _______ _____ _____    ______ ____
ROOT
ATOM      1  C   UNL     1      -0.018   1.503   0.010  0.00  0.00    +0.033 C 
ENDROOT
BRANCH   1   2
ATOM      2  C   UNL     1      -0.724   1.989   1.250  0.00  0.00    -0.054 A 
ATOM      3  C   UNL     1      -0.054   2.020   2.459  0.00  0.00    +0.004 A 
ATOM      4  C   UNL     1      -0.698   2.471   3.595  0.00  0.00    +0.020 A 
ATOM      5  C   UNL     1      -2.018   2.881   3.525  0.00  0.00    +0.041 A 
ATOM      6  C   UNL     1      -2.690   2.844   2.316  0.00  0.00    +0.020 A 
ATOM      7  C   UNL     1      -2.042   2.398   1.179  0.00  0.00    +0.004 A 
ATOM      8 CL   UNL     1      -2.830   3.441   4.953  0.00  0.00    -0.084 Cl
ENDBRANCH   1   2
BRANCH   1  14
ATOM      9  C   UNL     1       1.381   3.475   0.108  0.00  0.00    -0.077 C 
ATOM     10  C   UNL     1       2.828   3.957   0.241  0.00  0.00    -0.006 C 
ATOM     11  C   UNL     1       3.625   3.506  -0.986  0.00  0.00    +0.071 C 
ATOM     12  C   UNL     1       3.547   1.981  -1.103  0.00  0.00    -0.006 C 
ATOM     13  C   UNL     1       2.079   1.557  -1.197  0.00  0.00    -0.077 C 
ATOM     14  N   UNL     1       1.373   1.999   0.024  0.00  0.00    +0.389 N 
ATOM     15  H   UNL     1       1.856   1.616   0.845  0.00  0.00    -0.080 HD
BRANCH  11  16
ATOM     16  C   UNL     1       5.065   3.926  -0.835  0.00  0.00    +0.213 C 
ATOM     17  O   UNL     1       5.942   3.089  -0.822  0.00  0.00    -0.276 OA
ATOM     18  N   UNL     1       5.377   5.231  -0.714  0.00  0.00    -0.329 N 
ATOM     19  H   UNL     1       4.675   5.901  -0.724  0.00  0.00    +0.145 HD
ATOM     20  H   UNL     1       6.303   5.502  -0.617  0.00  0.00    +0.145 HD
ENDBRANCH  11  16
ENDBRANCH   1  14
BRANCH   1  22
ATOM     21  N   UNL     1      -0.758  -0.814  -0.759  0.00  0.00    -0.226 N 
ATOM     22  C   UNL     1       0.002  -0.004   0.002  0.00  0.00    +0.143 A 
ATOM     23  N   UNL     1       0.767  -0.780   0.730  0.00  0.00    -0.115 NA
ATOM     24  N   UNL     1       0.486  -2.003   0.438  0.00  0.00    -0.023 NA
ATOM     25  N   UNL     1      -0.433  -2.027  -0.464  0.00  0.00    -0.044 NA
BRANCH  21  26
ATOM     26  C   UNL     1      -1.764  -0.396  -1.738  0.00  0.00    +0.189 C 
BRANCH  26  29
ATOM     27  C   UNL     1      -0.318  -0.773  -5.242  0.00  0.00    +0.008 A 
ATOM     28  C   UNL     1      -0.951  -1.151  -4.072  0.00  0.00    +0.013 A 
ATOM     29  C   UNL     1      -1.115  -0.234  -3.088  0.00  0.00    +0.011 A 
ATOM     30  S   UNL     1      -0.367   1.219  -3.808  0.00  0.00    -0.100 S 
ATOM     31  C   UNL     1       0.120   0.503  -5.369  0.00  0.00    +0.045 A 
ENDBRANCH  26  29
ENDBRANCH  21  26
ENDBRANCH   1  22
TORSDOF 6
