REMARK  Name = ZINC01262489
REMARK  9 active torsions:
REMARK  status: ('A' for Active; 'I' for Inactive)
REMARK    1  A    between atoms: C_1  and  C_2
REMARK    2  A    between atoms: C_7  and  C_8
REMARK    3  A    between atoms: C_12  and  C_15
REMARK    4  A    between atoms: C_17  and  O_23
REMARK    5  A    between atoms: C_20  and  O_21
REMARK    6  A    between atoms: O_21  and  C_22
REMARK    7  A    between atoms: O_23  and  C_24
REMARK    8  A    between atoms: C_28  and  C_30
REMARK    9  A    between atoms: C_28  and  C_31
REMARK                            x       y       z     vdW  Elec       q    Type
REMARK                         _______ _______ _______ _____ _____    ______ ____
ROOT
ATOM      1  C   UNL     1       1.591   1.544   2.677  0.00  0.00    +0.044 C 
ATOM      2  C   UNL     1       0.103   1.775   2.602  0.00  0.00    -0.046 A 
ATOM      3  C   UNL     1      -0.573   2.269   3.704  0.00  0.00    +0.028 A 
ATOM      4  C   UNL     1      -1.940   2.478   3.626  0.00  0.00    +0.050 A 
ATOM      5  C   UNL     1      -2.627   2.163   2.463  0.00  0.00    +0.053 A 
ATOM      6  C   UNL     1      -1.946   1.691   1.355  0.00  0.00    +0.028 A 
ATOM      7  C   UNL     1      -0.578   1.493   1.432  0.00  0.00    -0.046 A 
ATOM      8  C   UNL     1       0.174   0.974   0.234  0.00  0.00    +0.044 C 
ATOM      9  N   UNL     1      -4.010   2.299   2.481  0.00  0.00    -0.316 N 
ATOM     10  C   UNL     1      -4.670   3.477   2.612  0.00  0.00    +0.017 C 
ATOM     11  C   UNL     1      -4.378   4.422   3.521  0.00  0.00    +0.037 C 
ATOM     12  C   UNL     1      -3.268   4.356   4.543  0.00  0.00    +0.140 C 
ATOM     13  N   UNL     1      -2.652   3.052   4.678  0.00  0.00    -0.331 N 
ATOM     14  C   UNL     1      -5.144   5.610   3.585  0.00  0.00    +0.163 C 
ATOM     15  O   UNL     1      -4.844   6.457   4.404  0.00  0.00    -0.292 OA
ATOM     16  C   UNL     1      -6.312   5.862   2.680  0.00  0.00    +0.086 C 
ATOM     17  C   UNL     1      -6.912   4.513   2.267  0.00  0.00    -0.023 C 
ATOM     18  C   UNL     1      -5.801   3.688   1.619  0.00  0.00    +0.058 C 
ATOM     19  C   UNL     1      -7.448   3.785   3.501  0.00  0.00    +0.011 C 
ATOM     20  C   UNL     1      -8.046   4.736   1.264  0.00  0.00    +0.011 C 
ATOM     21  H   UNL     1      -4.542   1.493   2.395  0.00  0.00    +0.152 HD
ATOM     22  H   UNL     1      -2.738   2.570   5.515  0.00  0.00    +0.147 HD
ENDROOT
BRANCH  12  23
ATOM     23  C   UNL     1      -2.202   5.349   4.155  0.00  0.00    +0.022 A 
ATOM     24  C   UNL     1      -2.168   5.860   2.872  0.00  0.00    +0.055 A 
ATOM     25  C   UNL     1      -1.190   6.777   2.517  0.00  0.00    +0.121 A 
ATOM     26  C   UNL     1      -0.241   7.173   3.447  0.00  0.00    +0.049 A 
ATOM     27  C   UNL     1      -0.272   6.659   4.729  0.00  0.00    +0.049 A 
ATOM     28  C   UNL     1      -1.253   5.745   5.085  0.00  0.00    +0.126 A 
BRANCH  28  29
ATOM     29  O   UNL     1      -1.284   5.238   6.347  0.00  0.00    -0.495 OA
ATOM     30  C   UNL     1      -0.275   5.690   7.252  0.00  0.00    +0.277 C 
ENDBRANCH  28  29
BRANCH  25  31
ATOM     31  O   UNL     1      -1.159   7.284   1.256  0.00  0.00    -0.495 OA
ATOM     32  C   UNL     1      -0.122   8.220   0.958  0.00  0.00    +0.277 C 
ENDBRANCH  25  31
ENDBRANCH  12  23
TORSDOF 3
