REMARK  Name = ZINC63137457
REMARK  6 active torsions:
REMARK  status: ('A' for Active; 'I' for Inactive)
REMARK    1  A    between atoms: C_1  and  C_2
REMARK    2  A    between atoms: C_2  and  C_3
REMARK    3  A    between atoms: C_2  and  N_4
REMARK    4  A    between atoms: N_4  and  C_5
REMARK    5  A    between atoms: C_5  and  C_6
REMARK    6  A    between atoms: C_13  and  C_15
REMARK                            x       y       z     vdW  Elec       q    Type
REMARK                         _______ _______ _______ _____ _____    ______ ____
ROOT
ATOM      1  C   UNL     1       2.376  -1.473  -2.464  0.00  0.00    -0.011 C 
ATOM      2  C   UNL     1       3.848  -1.814  -2.221  0.00  0.00    +0.005 C 
ATOM      3  C   UNL     1       4.479  -2.313  -3.523  0.00  0.00    +0.019 C 
ATOM      4  C   UNL     1       4.407  -1.205  -4.579  0.00  0.00    +0.108 C 
ATOM      5  N   UNL     1       3.010  -0.770  -4.713  0.00  0.00    -0.297 N 
ATOM      6  C   UNL     1       2.279  -0.355  -3.507  0.00  0.00    +0.109 C 
ATOM      7  C   UNL     1       2.410  -0.751  -5.920  0.00  0.00    +0.253 C 
ATOM      8  O   UNL     1       1.221  -0.504  -6.004  0.00  0.00    -0.269 OA
ENDROOT
BRANCH   7   9
ATOM      9  C   UNL     1       3.188  -1.028  -7.129  0.00  0.00    +0.075 A 
ATOM     10  C   UNL     1       2.747  -1.450  -8.375  0.00  0.00    +0.022 A 
ATOM     11  C   UNL     1       3.723  -1.628  -9.325  0.00  0.00    +0.024 A 
ATOM     12  C   UNL     1       5.017  -1.387  -8.994  0.00  0.00    +0.056 A 
ATOM     13  S   UNL     1       4.948  -0.905  -7.386  0.00  0.00    -0.077 S 
ATOM     14 BR   UNL     1       6.547  -1.549 -10.093  0.00  0.00    -0.043 Br
ENDBRANCH   7   9
BRANCH   1  15
ATOM     15  C   UNL     1       1.737  -1.005  -1.155  0.00  0.00    -0.077 C 
BRANCH  15  16
ATOM     16  N   UNL     1       0.298  -0.791  -1.360  0.00  0.00    +0.381 N 
ATOM     17  H   UNL     1      -0.132  -1.655  -1.654  0.00  0.00    -0.086 HD
ATOM     18  H   UNL     1       0.161  -0.088  -2.071  0.00  0.00    -0.086 HD
BRANCH  16  20
ATOM     19  C   UNL     1       0.248   1.029   0.278  0.00  0.00    -0.014 C 
ATOM     20  C   UNL     1      -0.315  -0.342  -0.103  0.00  0.00    -0.078 C 
ATOM     21  C   UNL     1      -1.830  -0.239  -0.283  0.00  0.00    -0.014 C 
ENDBRANCH  16  20
ENDBRANCH  15  16
ENDBRANCH   1  15
TORSDOF 4
