REMARK  Name = ZINC58237508
REMARK  8 active torsions:
REMARK  status: ('A' for Active; 'I' for Inactive)
REMARK    1  A    between atoms: C_1  and  C_2
REMARK    2  A    between atoms: C_10  and  O_13
REMARK    3  A    between atoms: O_13  and  C_14
REMARK    4  A    between atoms: C_14  and  C_15
REMARK    5  A    between atoms: N_17  and  C_18
REMARK    6  A    between atoms: C_18  and  C_19
REMARK    7  A    between atoms: C_18  and  C_20
REMARK    8  A    between atoms: C_23  and  N_26
REMARK                            x       y       z     vdW  Elec       q    Type
REMARK                         _______ _______ _______ _____ _____    ______ ____
ROOT
ATOM      1  C   UNL     1      -0.182  -0.330   7.300  0.00  0.00    +0.251 C 
ATOM      2  O   UNL     1      -0.080   0.865   7.118  0.00  0.00    -0.272 OA
ATOM      3  N   UNL     1      -0.126  -0.828   8.551  0.00  0.00    -0.306 N 
ATOM      4  H   UNL     1      -0.208  -1.784   8.697  0.00  0.00    +0.149 HD
ENDROOT
BRANCH   3   5
ATOM      5  C   UNL     1       0.059   0.073   9.691  0.00  0.00    +0.100 C 
ATOM      6  C   UNL     1      -1.298   0.626  10.130  0.00  0.00    +0.033 C 
BRANCH   5   7
ATOM      7  C   UNL     1       0.686  -0.684  10.834  0.00  0.00    -0.027 A 
ATOM      8  C   UNL     1       0.289  -1.981  11.102  0.00  0.00    +0.007 A 
ATOM      9  C   UNL     1       0.862  -2.677  12.149  0.00  0.00    +0.023 A 
ATOM     10  C   UNL     1       1.838  -2.074  12.931  0.00  0.00    +0.035 A 
ATOM     11  C   UNL     1       2.235  -0.771  12.658  0.00  0.00    +0.023 A 
ATOM     12  C   UNL     1       1.662  -0.082  11.607  0.00  0.00    +0.007 A 
BRANCH  10  13
ATOM     13  N   UNL     1       2.420  -2.776  13.992  0.00  0.00    -0.270 N 
ATOM     14  C   UNL     1       2.596  -4.109  13.901  0.00  0.00    +0.301 C 
ATOM     15  O   UNL     1       2.340  -4.687  12.862  0.00  0.00    -0.253 OA
ATOM     16  N   UNL     1       3.057  -4.802  14.961  0.00  0.00    -0.313 N 
ATOM     17  H   UNL     1       2.697  -2.304  14.792  0.00  0.00    +0.156 HD
ATOM     18  H   UNL     1       3.262  -4.341  15.790  0.00  0.00    +0.146 HD
ATOM     19  H   UNL     1       3.184  -5.761  14.896  0.00  0.00    +0.146 HD
ENDBRANCH  10  13
ENDBRANCH   5   7
ENDBRANCH   3   5
BRANCH   1  20
ATOM     20  C   UNL     1      -0.373  -1.257   6.128  0.00  0.00    +0.324 C 
BRANCH  20  21
ATOM     21  O   UNL     1      -0.400  -0.496   4.918  0.00  0.00    -0.483 OA
BRANCH  21  31
ATOM     22  C   UNL     1      -0.673   0.958  -0.016  0.00  0.00    +0.045 C 
ATOM     23  C   UNL     1      -0.814  -0.540   0.071  0.00  0.00    -0.033 A 
ATOM     24  C   UNL     1      -0.978  -1.291  -1.047  0.00  0.00    +0.096 A 
ATOM     25  C   UNL     1      -1.107  -2.693  -0.938  0.00  0.00    +0.337 A 
ATOM     26  O   UNL     1      -1.254  -3.355  -1.949  0.00  0.00    -0.245 OA
ATOM     27  O   UNL     1      -1.072  -3.313   0.251  0.00  0.00    -0.422 OA
ATOM     28  C   UNL     1      -0.911  -2.625   1.402  0.00  0.00    +0.140 A 
ATOM     29  C   UNL     1      -0.771  -1.226   1.366  0.00  0.00    +0.024 A 
ATOM     30  C   UNL     1      -0.601  -0.510   2.555  0.00  0.00    +0.057 A 
ATOM     31  C   UNL     1      -0.566  -1.186   3.759  0.00  0.00    +0.122 A 
ATOM     32  C   UNL     1      -0.699  -2.571   3.789  0.00  0.00    +0.049 A 
ATOM     33  C   UNL     1      -0.878  -3.285   2.623  0.00  0.00    +0.050 A 
ENDBRANCH  21  31
ENDBRANCH  20  21
ENDBRANCH   1  20
TORSDOF 6
