REMARK  Name = ZINC17526745
REMARK  12 active torsions:
REMARK  status: ('A' for Active; 'I' for Inactive)
REMARK    1  A    between atoms: C_1  and  C_2
REMARK    2  A    between atoms: C_6  and  C_16
REMARK    3  A    between atoms: C_9  and  O_11
REMARK    4  A    between atoms: O_11  and  C_12
REMARK    5  A    between atoms: C_12  and  C_13
REMARK    6  A    between atoms: C_13  and  C_14
REMARK    7  A    between atoms: C_18  and  O_26
REMARK    8  A    between atoms: C_19  and  O_24
REMARK    9  A    between atoms: C_20  and  O_22
REMARK   10  A    between atoms: O_22  and  C_23
REMARK   11  A    between atoms: O_24  and  C_25
REMARK   12  A    between atoms: O_26  and  C_27
REMARK                            x       y       z     vdW  Elec       q    Type
REMARK                         _______ _______ _______ _____ _____    ______ ____
ROOT
ATOM      1  C   UNL     1       0.029   1.503   0.006  0.00  0.00    +0.066 C 
ATOM      2  C   UNL     1       0.025  -0.004  -0.000  0.00  0.00    +0.050 C 
ATOM      3  N   UNL     1      -0.071  -0.623  -1.134  0.00  0.00    -0.250 NA
ATOM      4  C   UNL     1      -0.090  -1.986  -1.325  0.00  0.00    +0.095 C 
ATOM      5  C   UNL     1      -0.002  -2.780  -0.243  0.00  0.00    +0.109 C 
ATOM      6  C   UNL     1       0.115  -2.206   1.141  0.00  0.00    +0.108 C 
ATOM      7  C   UNL     1       0.131  -0.687   1.227  0.00  0.00    +0.070 C 
ATOM      8  C   UNL     1       0.236  -0.030   2.413  0.00  0.00    +0.338 C 
ATOM      9  O   UNL     1       0.459  -0.723   3.550  0.00  0.00    -0.245 OA
ATOM     10  S   UNL     1      -0.059  -4.438  -0.868  0.00  0.00    +0.025 S 
ATOM     11  O   UNL     1       1.214  -5.030  -0.650  0.00  0.00    -0.165 OA
ATOM     12  O   UNL     1      -1.281  -5.023  -0.441  0.00  0.00    -0.165 OA
ATOM     13  C   UNL     1      -0.202  -4.071  -2.598  0.00  0.00    +0.103 A 
ATOM     14  C   UNL     1      -0.202  -2.677  -2.643  0.00  0.00    +0.027 A 
ATOM     15  C   UNL     1      -0.306  -2.078  -3.912  0.00  0.00    +0.012 A 
ATOM     16  C   UNL     1      -0.402  -2.853  -5.044  0.00  0.00    +0.001 A 
ATOM     17  C   UNL     1      -0.400  -4.234  -4.965  0.00  0.00    +0.002 A 
ATOM     18  C   UNL     1      -0.298  -4.842  -3.723  0.00  0.00    +0.028 A 
ENDROOT
BRANCH   6  19
ATOM     19  C   UNL     1      -1.044  -2.712   1.961  0.00  0.00    -0.027 A 
ATOM     20  C   UNL     1      -2.340  -2.436   1.567  0.00  0.00    +0.054 A 
ATOM     21  C   UNL     1      -3.409  -2.900   2.319  0.00  0.00    +0.165 A 
ATOM     22  C   UNL     1      -3.175  -3.643   3.470  0.00  0.00    +0.204 A 
ATOM     23  C   UNL     1      -1.871  -3.919   3.862  0.00  0.00    +0.165 A 
ATOM     24  C   UNL     1      -0.808  -3.456   3.102  0.00  0.00    +0.054 A 
BRANCH  23  25
ATOM     25  O   UNL     1      -1.638  -4.646   4.987  0.00  0.00    -0.491 OA
ATOM     26  C   UNL     1      -0.272  -4.891   5.330  0.00  0.00    +0.277 C 
ENDBRANCH  23  25
BRANCH  22  27
ATOM     27  O   UNL     1      -4.222  -4.100   4.211  0.00  0.00    -0.488 OA
ATOM     28  C   UNL     1      -4.741  -5.388   3.876  0.00  0.00    +0.277 C 
ENDBRANCH  22  27
BRANCH  21  29
ATOM     29  O   UNL     1      -4.683  -2.627   1.931  0.00  0.00    -0.491 OA
ATOM     30  C   UNL     1      -4.848  -1.857   0.739  0.00  0.00    +0.277 C 
ENDBRANCH  21  29
ENDBRANCH   6  19
BRANCH   8  31
ATOM     31  O   UNL     1       0.119   1.314   2.453  0.00  0.00    -0.460 OA
BRANCH  31  32
ATOM     32  C   UNL     1       0.241   1.938   3.733  0.00  0.00    +0.247 C 
BRANCH  32  33
ATOM     33  C   UNL     1       0.081   3.451   3.580  0.00  0.00    +0.159 C 
BRANCH  33  34
ATOM     34  C   UNL     1       0.206   4.094   4.899  0.00  0.00    +0.066 C 
ATOM     35  N   UNL     1       0.303   4.590   5.916  0.00  0.00    -0.196 NA
ENDBRANCH  33  34
ENDBRANCH  32  33
ENDBRANCH  31  32
ENDBRANCH   8  31
TORSDOF 8
