REMARK  Name = ZINC13128662
REMARK  8 active torsions:
REMARK  status: ('A' for Active; 'I' for Inactive)
REMARK    1  A    between atoms: C_3  and  S_11
REMARK    2  A    between atoms: C_6  and  S_7
REMARK    3  A    between atoms: S_7  and  N_10
REMARK    4  A    between atoms: S_11  and  N_14
REMARK    5  A    between atoms: N_17  and  C_20
REMARK    6  A    between atoms: C_20  and  C_21
REMARK    7  A    between atoms: N_23  and  C_24
REMARK    8  A    between atoms: N_23  and  C_27
REMARK                            x       y       z     vdW  Elec       q    Type
REMARK                         _______ _______ _______ _____ _____    ______ ____
ROOT
ATOM      1  N   UNL     1       4.330   1.791   1.437  0.00  0.00    -0.174 NA
ATOM      2  C   UNL     1       3.833   3.048   2.017  0.00  0.00    +0.125 C 
ATOM      3  C   UNL     1       3.214   2.740   3.385  0.00  0.00    +0.102 C 
ATOM      4  N   UNL     1       4.191   2.019   4.211  0.00  0.00    -0.291 NA
ATOM      5  C   UNL     1       4.535   0.720   3.617  0.00  0.00    +0.102 C 
ATOM      6  C   UNL     1       5.203   0.941   2.261  0.00  0.00    +0.125 C 
ENDROOT
BRANCH   1   7
ATOM      7  S   UNL     1       3.913   1.342  -0.102  0.00  0.00    +0.061 S 
ATOM      8  O   UNL     1       4.927   0.455  -0.554  0.00  0.00    -0.153 OA
ATOM      9  O   UNL     1       3.580   2.536  -0.797  0.00  0.00    -0.153 OA
BRANCH   7  12
ATOM     10  C   UNL     1       0.040   0.284   0.035  0.00  0.00    +0.030 A 
ATOM     11  C   UNL     1       1.202   1.026  -0.056  0.00  0.00    +0.030 A 
ATOM     12  C   UNL     1       2.431   0.397   0.015  0.00  0.00    +0.106 A 
ATOM     13  C   UNL     1       2.497  -0.975   0.177  0.00  0.00    +0.030 A 
ATOM     14  C   UNL     1       1.334  -1.717   0.269  0.00  0.00    +0.030 A 
ATOM     15  C   UNL     1       0.106  -1.087   0.196  0.00  0.00    +0.105 A 
BRANCH  15  16
ATOM     16  S   UNL     1      -1.377  -2.033   0.312  0.00  0.00    +0.056 S 
ATOM     17  O   UNL     1      -1.043  -3.227   1.007  0.00  0.00    -0.153 OA
ATOM     18  O   UNL     1      -2.390  -1.146   0.766  0.00  0.00    -0.153 OA
BRANCH  16  19
ATOM     19  N   UNL     1      -1.793  -2.481  -1.226  0.00  0.00    -0.204 NA
ATOM     20  H   UNL     1      -1.241  -2.211  -1.977  0.00  0.00    +0.144 HD
ATOM     21  H   UNL     1      -2.590  -3.014  -1.378  0.00  0.00    +0.144 HD
ENDBRANCH  16  19
ENDBRANCH  15  16
ENDBRANCH   7  12
ENDBRANCH   1   7
BRANCH   4  22
ATOM     22  C   UNL     1       3.701   1.856   5.586  0.00  0.00    +0.181 C 
BRANCH  22  23
ATOM     23  C   UNL     1       4.816   1.338   6.458  0.00  0.00    +0.234 C 
ATOM     24  O   UNL     1       5.888   1.055   5.968  0.00  0.00    -0.274 OA
ATOM     25  N   UNL     1       4.620   1.190   7.784  0.00  0.00    -0.271 N 
BRANCH  25  26
ATOM     26  C   UNL     1       5.681   0.823   8.607  0.00  0.00    +0.010 C 
ATOM     27  C   UNL     1       5.479   0.804   9.895  0.00  0.00    -0.008 C 
ATOM     28  C   UNL     1       6.530   0.439  10.903  0.00  0.00    +0.029 C 
ATOM     29  C   UNL     1       7.684  -0.296  10.218  0.00  0.00    +0.004 C 
ATOM     30  C   UNL     1       8.117   0.515   8.991  0.00  0.00    +0.006 C 
ATOM     31  C   UNL     1       6.987   0.468   7.958  0.00  0.00    +0.051 C 
ENDBRANCH  25  26
BRANCH  25  32
ATOM     32  C   UNL     1       3.292   1.415   8.358  0.00  0.00    +0.081 C 
ATOM     33  C   UNL     1       2.740   0.345   9.302  0.00  0.00    +0.025 C 
ATOM     34  C   UNL     1       2.158   0.498   7.896  0.00  0.00    +0.025 C 
ENDBRANCH  25  32
ENDBRANCH  22  23
ENDBRANCH   4  22
TORSDOF 8
