REMARK  Name = ZINC59830084
REMARK  6 active torsions:
REMARK  status: ('A' for Active; 'I' for Inactive)
REMARK    1  A    between atoms: C_4  and  N_25
REMARK    2  A    between atoms: C_5  and  N_7
REMARK    3  A    between atoms: N_7  and  C_8
REMARK    4  A    between atoms: C_8  and  C_9
REMARK    5  A    between atoms: C_9  and  N_10
REMARK    6  A    between atoms: C_11  and  C_13
REMARK                            x       y       z     vdW  Elec       q    Type
REMARK                         _______ _______ _______ _____ _____    ______ ____
ROOT
ATOM      1  N   UNL     1      -0.951  -4.978   1.130  0.00  0.00    -0.309 N 
ATOM      2  C   UNL     1      -0.925  -6.301   1.383  0.00  0.00    +0.262 C 
ATOM      3  O   UNL     1       0.140  -6.883   1.472  0.00  0.00    -0.269 OA
ATOM      4  H   UNL     1      -1.801  -4.514   1.060  0.00  0.00    +0.149 HD
ENDROOT
BRANCH   2   5
ATOM      5  C   UNL     1      -2.182  -7.042   1.552  0.00  0.00    +0.121 A 
ATOM      6  C   UNL     1      -2.285  -8.373   1.815  0.00  0.00    +0.078 A 
ATOM      7  C   UNL     1      -3.663  -8.689   1.904  0.00  0.00    +0.020 A 
ATOM      8  C   UNL     1      -4.362  -9.878   2.150  0.00  0.00    +0.031 A 
ATOM      9  C   UNL     1      -5.728  -9.870   2.174  0.00  0.00    +0.042 A 
ATOM     10  C   UNL     1      -6.432  -8.692   1.956  0.00  0.00    +0.022 A 
ATOM     11  C   UNL     1      -5.767  -7.512   1.711  0.00  0.00    +0.028 A 
ATOM     12  C   UNL     1      -4.375  -7.495   1.683  0.00  0.00    +0.049 A 
ATOM     13  N   UNL     1      -3.451  -6.497   1.475  0.00  0.00    -0.349 N 
ATOM     14  H   UNL     1      -3.656  -5.565   1.300  0.00  0.00    +0.166 HD
ATOM     15 CL   UNL     1      -6.591 -11.345   2.479  0.00  0.00    -0.084 Cl
ATOM     16 CL   UNL     1      -0.965  -9.483   2.008  0.00  0.00    -0.081 Cl
ENDBRANCH   2   5
BRANCH   1  17
ATOM     17  C   UNL     1       0.302  -4.239   0.962  0.00  0.00    +0.123 C 
BRANCH  17  18
ATOM     18  C   UNL     1      -0.006  -2.766   0.686  0.00  0.00    +0.120 C 
BRANCH  18  19
ATOM     19  N   UNL     1       1.248  -2.028   0.518  0.00  0.00    -0.341 N 
ATOM     20  H   UNL     1       2.097  -2.491   0.588  0.00  0.00    +0.146 HD
BRANCH  19  25
ATOM     21  C   UNL     1      -0.010   1.389   0.014  0.00  0.00    +0.002 A 
ATOM     22  C   UNL     1       1.166   2.061  -0.265  0.00  0.00    +0.002 A 
ATOM     23  C   UNL     1       2.368   1.379  -0.285  0.00  0.00    +0.034 A 
ATOM     24  C   UNL     1       2.399   0.023  -0.026  0.00  0.00    +0.147 A 
ATOM     25  C   UNL     1       1.220  -0.656   0.255  0.00  0.00    +0.058 A 
ATOM     26  C   UNL     1       0.014   0.033   0.275  0.00  0.00    +0.025 A 
BRANCH  24  27
ATOM     27  N   UNL     1       3.687  -0.707  -0.048  0.00  0.00    +0.058 N 
ATOM     28  O   UNL     1       4.688  -0.179   0.376  0.00  0.00    -0.126 OA
ATOM     29  O   UNL     1       3.737  -1.831  -0.489  0.00  0.00    -0.126 OA
ENDBRANCH  24  27
ENDBRANCH  19  25
ENDBRANCH  18  19
ENDBRANCH  17  18
ENDBRANCH   1  17
TORSDOF 6
