REMARK  Name = ZINC31812192
REMARK  9 active torsions:
REMARK  status: ('A' for Active; 'I' for Inactive)
REMARK    1  A    between atoms: C_1  and  O_2
REMARK    2  A    between atoms: O_2  and  C_3
REMARK    3  A    between atoms: C_3  and  C_5
REMARK    4  A    between atoms: C_5  and  C_6
REMARK    5  A    between atoms: C_6  and  C_8
REMARK    6  A    between atoms: C_6  and  N_12
REMARK    7  A    between atoms: C_8  and  O_10
REMARK    8  A    between atoms: O_10  and  C_11
REMARK    9  A    between atoms: C_24  and  C_26
REMARK                            x       y       z     vdW  Elec       q    Type
REMARK                         _______ _______ _______ _____ _____    ______ ____
ROOT
ATOM      1  N   UNL     1      -5.162  -2.213   0.406  0.00  0.00    -0.286 N 
ATOM      2  C   UNL     1      -4.524  -1.918   1.556  0.00  0.00    +0.304 C 
ATOM      3  O   UNL     1      -3.323  -2.088   1.646  0.00  0.00    -0.253 OA
ATOM      4  N   UNL     1      -5.216  -1.435   2.607  0.00  0.00    -0.273 N 
ATOM      5  C   UNL     1      -4.524  -0.994   3.826  0.00  0.00    +0.116 C 
ATOM      6  C   UNL     1      -4.745   0.513   4.011  0.00  0.00    +0.074 C 
ATOM      7  C   UNL     1      -6.198   0.824   3.769  0.00  0.00    +0.040 A 
ATOM      8  C   UNL     1      -7.064   0.012   3.123  0.00  0.00    +0.062 A 
ATOM      9  N   UNL     1      -8.255   0.615   3.094  0.00  0.00    -0.348 N 
ATOM     10  C   UNL     1      -8.165   1.770   3.700  0.00  0.00    +0.171 A 
ATOM     11  N   UNL     1      -6.895   1.935   4.136  0.00  0.00    -0.349 N 
ATOM     12  H   UNL     1      -6.546   2.701   4.619  0.00  0.00    +0.166 HD
ATOM     13  C   UNL     1      -6.686  -1.332   2.558  0.00  0.00    +0.159 C 
ATOM     14  H   UNL     1      -6.128  -2.151   0.358  0.00  0.00    +0.151 HD
ATOM     15  H   UNL     1      -9.058   0.253   2.689  0.00  0.00    +0.167 HD
ENDROOT
BRANCH  13  16
ATOM     16  C   UNL     1      -7.305  -2.425   3.390  0.00  0.00    +0.017 A 
ATOM     17  C   UNL     1      -7.814  -2.136   4.642  0.00  0.00    +0.011 A 
ATOM     18  C   UNL     1      -8.382  -3.138   5.407  0.00  0.00    +0.042 A 
ATOM     19  C   UNL     1      -8.443  -4.432   4.920  0.00  0.00    +0.161 A 
ATOM     20  C   UNL     1      -7.934  -4.724   3.664  0.00  0.00    +0.194 A 
ATOM     21  C   UNL     1      -7.369  -3.717   2.897  0.00  0.00    +0.167 A 
ATOM     22  F   UNL     1      -6.877  -3.997   1.670  0.00  0.00    -0.202 F 
ATOM     23  F   UNL     1      -7.992  -5.986   3.187  0.00  0.00    -0.199 F 
ATOM     24  F   UNL     1      -8.998  -5.411   5.668  0.00  0.00    -0.202 F 
ENDBRANCH  13  16
BRANCH   1  25
ATOM     25  C   UNL     1      -4.395  -2.627  -0.771  0.00  0.00    +0.194 C 
BRANCH  25  26
ATOM     26  C   UNL     1      -3.920  -1.406  -1.516  0.00  0.00    +0.328 C 
ATOM     27  O   UNL     1      -4.194  -0.303  -1.106  0.00  0.00    -0.249 OA
BRANCH  26  28
ATOM     28  O   UNL     1      -3.193  -1.544  -2.636  0.00  0.00    -0.467 OA
ATOM     29  C   UNL     1      -2.776  -0.344  -3.291  0.00  0.00    +0.280 C 
ENDBRANCH  26  28
ENDBRANCH  25  26
BRANCH  25  30
ATOM     30  C   UNL     1      -5.284  -3.470  -1.688  0.00  0.00    +0.154 C 
BRANCH  30  31
ATOM     31  C   UNL     1      -5.659  -4.750  -0.986  0.00  0.00    +0.309 C 
ATOM     32  O   UNL     1      -5.256  -4.966   0.133  0.00  0.00    -0.251 OA
BRANCH  31  34
ATOM     33  C   UNL     1      -6.755  -6.841  -0.879  0.00  0.00    +0.280 C 
ATOM     34  O   UNL     1      -6.440  -5.650  -1.603  0.00  0.00    -0.468 OA
ENDBRANCH  31  34
ENDBRANCH  30  31
ENDBRANCH  25  30
ENDBRANCH   1  25
TORSDOF 7
