REMARK  Name = ZINC42100404
REMARK  7 active torsions:
REMARK  status: ('A' for Active; 'I' for Inactive)
REMARK    1  A    between atoms: C_1  and  C_2
REMARK    2  A    between atoms: C_2  and  C_4
REMARK    3  A    between atoms: C_2  and  N_18
REMARK    4  A    between atoms: C_4  and  N_5
REMARK    5  A    between atoms: N_5  and  C_6
REMARK    6  A    between atoms: N_18  and  C_19
REMARK    7  A    between atoms: N_18  and  C_20
REMARK                            x       y       z     vdW  Elec       q    Type
REMARK                         _______ _______ _______ _____ _____    ______ ____
ROOT
ATOM      1  C   UNL     1       1.296  -3.005  -1.914  0.00  0.00    +0.173 C 
ATOM      2  C   UNL     1       0.775  -4.423  -1.953  0.00  0.00    +0.001 A 
ATOM      3  C   UNL     1      -0.475  -4.956  -2.172  0.00  0.00    +0.007 A 
ATOM      4  C   UNL     1      -0.656  -6.328  -2.146  0.00  0.00    +0.002 A 
ATOM      5  C   UNL     1       0.422  -7.159  -1.899  0.00  0.00    +0.017 A 
ATOM      6  C   UNL     1       1.676  -6.628  -1.679  0.00  0.00    +0.039 A 
ATOM      7  C   UNL     1       1.866  -5.246  -1.704  0.00  0.00    +0.053 A 
ATOM      8  N   UNL     1       3.016  -4.479  -1.513  0.00  0.00    -0.283 N 
ATOM      9  C   UNL     1       2.773  -3.159  -1.621  0.00  0.00    +0.239 C 
ATOM     10  O   UNL     1       3.582  -2.263  -1.504  0.00  0.00    -0.273 OA
ATOM     11 BR   UNL     1       3.141  -7.775  -1.341  0.00  0.00    -0.048 Br
ATOM     12  H   UNL     1       3.891  -4.854  -1.326  0.00  0.00    +0.155 HD
ENDROOT
BRANCH   1  13
ATOM     13  N   UNL     1       0.636  -2.244  -0.845  0.00  0.00    -0.304 NA
ATOM     14  H   UNL     1       1.040  -2.458   0.055  0.00  0.00    +0.123 HD
BRANCH  13  15
ATOM     15  C   UNL     1       0.690  -0.801  -1.115  0.00  0.00    +0.066 C 
BRANCH  15  17
ATOM     16  C   UNL     1      -0.030   1.452  -0.308  0.00  0.00    -0.012 C 
ATOM     17  C   UNL     1      -0.006  -0.043   0.018  0.00  0.00    -0.058 C 
BRANCH  17  18
ATOM     18  N   UNL     1      -1.382  -0.535   0.163  0.00  0.00    +0.378 N 
ATOM     19  C   UNL     1      -2.012   0.108   1.323  0.00  0.00    -0.096 C 
ATOM     20  C   UNL     1      -2.147  -0.214  -1.050  0.00  0.00    -0.096 C 
ATOM     21  H   UNL     1      -1.369  -1.535   0.298  0.00  0.00    -0.082 HD
ENDBRANCH  17  18
ENDBRANCH  15  17
ENDBRANCH  13  15
ENDBRANCH   1  13
TORSDOF 4
