REMARK  Name = ZINC07979771
REMARK  7 active torsions:
REMARK  status: ('A' for Active; 'I' for Inactive)
REMARK    1  A    between atoms: C_1  and  C_2
REMARK    2  A    between atoms: C_8  and  N_10
REMARK    3  A    between atoms: C_14  and  C_16
REMARK    4  A    between atoms: C_16  and  S_17
REMARK    5  A    between atoms: S_17  and  C_18
REMARK    6  A    between atoms: C_21  and  C_24
REMARK    7  A    between atoms: N_22  and  N_23
REMARK                            x       y       z     vdW  Elec       q    Type
REMARK                         _______ _______ _______ _____ _____    ______ ____
ROOT
ATOM      1  N   UNL     1      -3.525   1.834   0.029  0.00  0.00    -0.296 N 
ATOM      2  C   UNL     1      -2.349   1.176   0.020  0.00  0.00    +0.306 C 
ATOM      3  O   UNL     1      -2.332  -0.039   0.013  0.00  0.00    -0.252 OA
ATOM      4  N   UNL     1      -1.191   1.866   0.018  0.00  0.00    -0.239 N 
ATOM      5  C   UNL     1      -0.014   1.208   0.009  0.00  0.00    +0.231 C 
ATOM      6  O   UNL     1       0.002  -0.004   0.002  0.00  0.00    -0.274 OA
ATOM      7  H   UNL     1      -3.538   2.804   0.034  0.00  0.00    +0.151 HD
ATOM      8  H   UNL     1      -1.204   2.836   0.023  0.00  0.00    +0.159 HD
ENDROOT
BRANCH   1  15
ATOM      9  C   UNL     1      -5.526   2.327  -2.006  0.00  0.00    +0.009 C 
ATOM     10  C   UNL     1      -5.893   1.950  -0.569  0.00  0.00    +0.006 C 
ATOM     11  C   UNL     1      -7.208   1.167  -0.567  0.00  0.00    +0.005 C 
ATOM     12  C   UNL     1      -7.575   0.790   0.870  0.00  0.00    +0.000 C 
ATOM     13  C   UNL     1      -6.465  -0.075   1.469  0.00  0.00    +0.002 C 
ATOM     14  C   UNL     1      -5.150   0.708   1.467  0.00  0.00    +0.022 C 
ATOM     15  C   UNL     1      -4.783   1.085   0.031  0.00  0.00    +0.077 C 
ENDBRANCH   1  15
BRANCH   5  16
ATOM     16  C   UNL     1       1.280   1.979   0.001  0.00  0.00    +0.173 C 
BRANCH  16  17
ATOM     17  S   UNL     1       2.672   0.822  -0.019  0.00  0.00    -0.075 S 
BRANCH  17  18
ATOM     18  C   UNL     1       4.017   1.960  -0.026  0.00  0.00    +0.209 A 
ATOM     19  N   UNL     1       3.928   3.271  -0.024  0.00  0.00    -0.121 NA
ATOM     20  N   UNL     1       5.101   3.795  -0.028  0.00  0.00    -0.126 NA
ATOM     21  C   UNL     1       6.014   2.849  -0.041  0.00  0.00    +0.188 A 
ATOM     22  N   UNL     1       5.347   1.644  -0.040  0.00  0.00    -0.223 N 
BRANCH  21  23
ATOM     23  C   UNL     1       7.474   3.041  -0.054  0.00  0.00    +0.058 A 
ATOM     24  C   UNL     1       8.194   4.174  -0.337  0.00  0.00    +0.019 A 
ATOM     25  C   UNL     1       9.568   4.114  -0.281  0.00  0.00    +0.008 A 
ATOM     26  C   UNL     1      10.168   2.938   0.040  0.00  0.00    +0.046 A 
ATOM     27  S   UNL     1       8.767   1.858   0.286  0.00  0.00    -0.093 S 
ENDBRANCH  21  23
BRANCH  22  28
ATOM     28  N   UNL     1       5.898   0.394  -0.051  0.00  0.00    -0.295 N 
ATOM     29  H   UNL     1       6.035   0.068  -0.996  0.00  0.00    +0.163 HD
ATOM     30  H   UNL     1       6.764   0.376   0.467  0.00  0.00    +0.163 HD
ENDBRANCH  22  28
ENDBRANCH  17  18
ENDBRANCH  16  17
ENDBRANCH   5  16
TORSDOF 6
