REMARK  Name = ZINC02279627
REMARK  10 active torsions:
REMARK  status: ('A' for Active; 'I' for Inactive)
REMARK    1  A    between atoms: C_6  and  C_7
REMARK    2  A    between atoms: N_9  and  C_10
REMARK    3  A    between atoms: C_10  and  C_21
REMARK    4  A    between atoms: C_11  and  C_12
REMARK    5  A    between atoms: N_23  and  C_24
REMARK    6  A    between atoms: C_24  and  C_25
REMARK    7  A    between atoms: C_25  and  C_26
REMARK    8  A    between atoms: C_26  and  C_27
REMARK    9  A    between atoms: C_27  and  C_28
REMARK   10  A    between atoms: C_28  and  C_29
REMARK                            x       y       z     vdW  Elec       q    Type
REMARK                         _______ _______ _______ _____ _____    ______ ____
ROOT
ATOM      1  C   UNL     1       1.246   1.695  -0.241  0.00  0.00    +0.097 C 
ATOM      2  C   UNL     1       1.366   3.029  -0.041  0.00  0.00    +0.036 C 
ENDROOT
BRANCH   2   3
ATOM      3  C   UNL     1       2.693   3.661  -0.076  0.00  0.00    -0.019 A 
ATOM      4  C   UNL     1       3.809   2.979   0.422  0.00  0.00    +0.012 A 
ATOM      5  C   UNL     1       5.051   3.572   0.382  0.00  0.00    +0.050 A 
ATOM      6  C   UNL     1       5.200   4.850  -0.141  0.00  0.00    +0.166 A 
ATOM      7  C   UNL     1       4.091   5.538  -0.634  0.00  0.00    +0.167 A 
ATOM      8  C   UNL     1       2.843   4.949  -0.604  0.00  0.00    +0.057 A 
ATOM      9  O   UNL     1       4.502   6.759  -1.087  0.00  0.00    -0.453 OA
ATOM     10  C   UNL     1       5.930   6.651  -1.241  0.00  0.00    +0.466 C 
ATOM     11  O   UNL     1       6.303   5.642  -0.284  0.00  0.00    -0.453 OA
ENDBRANCH   2   3
BRANCH   1  14
ATOM     12  C   UNL     1      -0.134  -0.239  -0.360  0.00  0.00    +0.248 C 
ATOM     13  O   UNL     1       0.841  -0.903  -0.653  0.00  0.00    -0.270 OA
ATOM     14  N   UNL     1       0.002   1.074  -0.087  0.00  0.00    -0.277 N 
ATOM     15  H   UNL     1      -0.762   1.587   0.221  0.00  0.00    +0.155 HD
BRANCH  12  21
ATOM     16  C   UNL     1      -2.589  -0.112   0.041  0.00  0.00    +0.014 A 
ATOM     17  C   UNL     1      -3.833  -0.707   0.087  0.00  0.00    +0.016 A 
ATOM     18  C   UNL     1      -3.970  -2.056  -0.194  0.00  0.00    +0.018 A 
ATOM     19  C   UNL     1      -2.861  -2.815  -0.528  0.00  0.00    +0.016 A 
ATOM     20  C   UNL     1      -1.613  -2.231  -0.584  0.00  0.00    +0.014 A 
ATOM     21  C   UNL     1      -1.469  -0.871  -0.302  0.00  0.00    +0.037 A 
ATOM     22 BR   UNL     1      -5.677  -2.865  -0.120  0.00  0.00    -0.050 Br
ENDBRANCH  12  21
ENDBRANCH   1  14
BRANCH   1  23
ATOM     23  C   UNL     1       2.421   0.901  -0.620  0.00  0.00    +0.258 C 
ATOM     24  O   UNL     1       2.909   0.118   0.174  0.00  0.00    -0.269 OA
ATOM     25  N   UNL     1       2.961   1.039  -1.848  0.00  0.00    -0.310 N 
ATOM     26  H   UNL     1       2.618   1.712  -2.455  0.00  0.00    +0.149 HD
BRANCH  25  27
ATOM     27  C   UNL     1       4.065   0.171  -2.264  0.00  0.00    +0.104 C 
BRANCH  27  28
ATOM     28  C   UNL     1       4.569   0.612  -3.640  0.00  0.00    +0.019 C 
BRANCH  28  29
ATOM     29  C   UNL     1       5.637  -0.368  -4.130  0.00  0.00    +0.002 C 
BRANCH  29  30
ATOM     30  C   UNL     1       6.142   0.074  -5.505  0.00  0.00    +0.011 C 
BRANCH  30  31
ATOM     31  C   UNL     1       7.210  -0.906  -5.995  0.00  0.00    +0.125 C 
BRANCH  31  32
ATOM     32  C   UNL     1       7.707  -0.471  -7.350  0.00  0.00    +0.356 C 
ATOM     33  O   UNL     1       7.254   0.521  -7.870  0.00  0.00    -0.246 OA
ATOM     34  O   UNL     1       8.653  -1.186  -7.979  0.00  0.00    -0.246 OA
ENDBRANCH  31  32
ENDBRANCH  30  31
ENDBRANCH  29  30
ENDBRANCH  28  29
ENDBRANCH  27  28
ENDBRANCH  25  27
ENDBRANCH   1  23
TORSDOF 10
