REMARK  Name = ZINC65562311
REMARK  3 active torsions:
REMARK  status: ('A' for Active; 'I' for Inactive)
REMARK    1  A    between atoms: C_6  and  C_7
REMARK    2  A    between atoms: C_13  and  C_15
REMARK    3  A    between atoms: C_18  and  C_20
REMARK                            x       y       z     vdW  Elec       q    Type
REMARK                         _______ _______ _______ _____ _____    ______ ____
ROOT
ATOM      1  C   UNL     1      -1.293  -0.774   0.009  0.00  0.00    +0.107 C 
ATOM      2  C   UNL     1      -1.865  -0.826   1.441  0.00  0.00    +0.029 C 
ATOM      3  C   UNL     1      -3.392  -0.672   1.211  0.00  0.00    +0.021 C 
ATOM      4  C   UNL     1      -3.429   0.305   0.010  0.00  0.00    +0.109 C 
ATOM      5  N   UNL     1      -2.285  -0.092  -0.836  0.00  0.00    -0.290 N 
ATOM      6  C   UNL     1      -2.167   0.134  -2.159  0.00  0.00    +0.254 C 
ATOM      7  O   UNL     1      -1.173  -0.239  -2.754  0.00  0.00    -0.269 OA
ENDROOT
BRANCH   1  13
ATOM      8  C   UNL     1      -0.017   1.378   0.010  0.00  0.00    +0.009 A 
ATOM      9  C   UNL     1       1.170   2.088   0.002  0.00  0.00    +0.050 A 
ATOM     10  C   UNL     1       2.382   1.415  -0.013  0.00  0.00    +0.162 A 
ATOM     11  C   UNL     1       2.401   0.025  -0.018  0.00  0.00    +0.162 A 
ATOM     12  C   UNL     1       1.207  -0.681  -0.011  0.00  0.00    +0.055 A 
ATOM     13  C   UNL     1       0.002  -0.004   0.002  0.00  0.00    -0.023 A 
ATOM     14  O   UNL     1       3.579  -0.656  -0.024  0.00  0.00    -0.485 OA
ATOM     15  C   UNL     1       4.746   0.081  -0.406  0.00  0.00    +0.270 C 
ATOM     16  C   UNL     1       4.733   1.422   0.340  0.00  0.00    +0.270 C 
ATOM     17  O   UNL     1       3.542   2.127  -0.024  0.00  0.00    -0.485 OA
ENDBRANCH   1  13
BRANCH   6  18
ATOM     18  C   UNL     1      -3.240   0.832  -2.886  0.00  0.00    +0.075 A 
ATOM     19  C   UNL     1      -3.314   1.153  -4.233  0.00  0.00    +0.021 A 
ATOM     20  C   UNL     1      -4.421   1.811  -4.691  0.00  0.00    +0.021 A 
ATOM     21  C   UNL     1      -5.426   2.131  -3.790  0.00  0.00    +0.074 A 
ATOM     22  S   UNL     1      -4.783   1.475  -2.260  0.00  0.00    -0.079 S 
BRANCH  21  23
ATOM     23  C   UNL     1      -6.699   2.828  -4.035  0.00  0.00    +0.248 C 
ATOM     24  O   UNL     1      -6.979   3.207  -5.156  0.00  0.00    -0.270 OA
ATOM     25  N   UNL     1      -7.554   3.047  -3.017  0.00  0.00    -0.325 N 
ATOM     26  H   UNL     1      -7.331   2.745  -2.122  0.00  0.00    +0.145 HD
ATOM     27  H   UNL     1      -8.393   3.507  -3.178  0.00  0.00    +0.145 HD
ENDBRANCH  21  23
ENDBRANCH   6  18
TORSDOF 3
