REMARK  Name = ZINC39543055
REMARK  7 active torsions:
REMARK  status: ('A' for Active; 'I' for Inactive)
REMARK    1  A    between atoms: C_1  and  N_2
REMARK    2  A    between atoms: N_2  and  C_3
REMARK    3  A    between atoms: C_8  and  O_9
REMARK    4  A    between atoms: C_10  and  C_12
REMARK    5  A    between atoms: C_15  and  S_26
REMARK    6  A    between atoms: S_26  and  O_29
REMARK    7  A    between atoms: O_29  and  C_30
REMARK                            x       y       z     vdW  Elec       q    Type
REMARK                         _______ _______ _______ _____ _____    ______ ____
ROOT
ATOM      1  C   UNL     1       0.332  -0.096  -2.173  0.00  0.00    +0.150 C 
ATOM      2  C   UNL     1       1.569   0.812  -2.315  0.00  0.00    +0.092 C 
ATOM      3  C   UNL     1       2.115   0.478  -3.685  0.00  0.00    +0.142 C 
ATOM      4  C   UNL     1       1.358  -0.429  -4.247  0.00  0.00    +0.100 C 
ATOM      5  N   UNL     1       1.569  -1.016  -5.508  0.00  0.00    -0.302 N 
ATOM      6  C   UNL     1       1.233  -2.379  -5.588  0.00  0.00    +0.037 A 
ATOM      7  C   UNL     1       1.506  -3.089  -6.748  0.00  0.00    +0.023 A 
ATOM      8  C   UNL     1       1.168  -4.426  -6.831  0.00  0.00    +0.002 A 
ATOM      9  C   UNL     1       0.558  -5.049  -5.757  0.00  0.00    +0.000 A 
ATOM     10  C   UNL     1       0.290  -4.343  -4.601  0.00  0.00    +0.007 A 
ATOM     11  C   UNL     1       0.630  -3.003  -4.506  0.00  0.00    -0.010 A 
ATOM     12  C   UNL     1       0.348  -2.266  -3.223  0.00  0.00    +0.124 C 
ATOM     13  N   UNL     1       0.267  -0.820  -3.454  0.00  0.00    -0.368 NA
ATOM     14  H   UNL     1       1.918  -0.519  -6.264  0.00  0.00    +0.153 HD
ATOM     15  H   UNL     1      -0.596  -0.598  -3.926  0.00  0.00    +0.129 HD
ENDROOT
BRANCH   1  18
ATOM     16  C   UNL     1      -1.754  -0.539  -0.307  0.00  0.00    +0.138 C 
ATOM     17  N   UNL     1      -0.489  -1.260  -0.151  0.00  0.00    -0.270 N 
ATOM     18  C   UNL     1       0.513  -1.061  -1.030  0.00  0.00    +0.239 C 
ATOM     19  O   UNL     1       1.561  -1.658  -0.901  0.00  0.00    -0.273 OA
BRANCH  17  20
ATOM     20  C   UNL     1      -0.320  -2.157   0.912  0.00  0.00    +0.078 A 
ATOM     21  C   UNL     1      -0.654  -3.494   0.754  0.00  0.00    +0.027 A 
ATOM     22  C   UNL     1      -0.487  -4.377   1.804  0.00  0.00    +0.002 A 
ATOM     23  C   UNL     1       0.013  -3.931   3.014  0.00  0.00    +0.004 A 
ATOM     24  C   UNL     1       0.348  -2.600   3.179  0.00  0.00    +0.047 A 
ATOM     25  C   UNL     1       0.189  -1.710   2.129  0.00  0.00    +0.138 A 
BRANCH  25  26
ATOM     26  O   UNL     1       0.524  -0.402   2.288  0.00  0.00    -0.505 OA
ATOM     27  H   UNL     1      -0.199   0.153   2.613  0.00  0.00    +0.292 HD
ENDBRANCH  25  26
ENDBRANCH  17  20
ENDBRANCH   1  18
BRANCH   3  28
ATOM     28  S   UNL     1       3.548   1.201  -4.413  0.00  0.00    +0.150 S 
ATOM     29  O   UNL     1       4.502   1.351  -3.370  0.00  0.00    -0.132 OA
ATOM     30  O   UNL     1       3.822   0.459  -5.594  0.00  0.00    -0.132 OA
BRANCH  28  31
ATOM     31  O   UNL     1       3.167   2.605  -4.859  0.00  0.00    -0.342 OA
BRANCH  31  32
ATOM     32  C   UNL     1       2.416   2.640  -5.991  0.00  0.00    +0.157 A 
ATOM     33  C   UNL     1       3.030   2.741  -7.230  0.00  0.00    +0.048 A 
ATOM     34  C   UNL     1       2.264   2.776  -8.379  0.00  0.00    +0.004 A 
ATOM     35  C   UNL     1       0.885   2.712  -8.294  0.00  0.00    +0.000 A 
ATOM     36  C   UNL     1       0.270   2.613  -7.060  0.00  0.00    +0.004 A 
ATOM     37  C   UNL     1       1.032   2.571  -5.908  0.00  0.00    +0.048 A 
ENDBRANCH  31  32
ENDBRANCH  28  31
ENDBRANCH   3  28
TORSDOF 6
