REMARK  Name = ZINC18199951
REMARK  6 active torsions:
REMARK  status: ('A' for Active; 'I' for Inactive)
REMARK    1  A    between atoms: C_1  and  O_2
REMARK    2  A    between atoms: O_2  and  C_3
REMARK    3  A    between atoms: C_6  and  C_11
REMARK    4  A    between atoms: C_8  and  O_9
REMARK    5  A    between atoms: O_9  and  C_10
REMARK    6  A    between atoms: C_16  and  C_28
REMARK                            x       y       z     vdW  Elec       q    Type
REMARK                         _______ _______ _______ _____ _____    ______ ____
ROOT
ATOM      1  C   UNL     1      -0.684  -4.592   1.877  0.00  0.00    +0.032 C 
ATOM      2  C   UNL     1       0.327  -4.221   0.789  0.00  0.00    +0.059 C 
ATOM      3  C   UNL     1       0.136  -2.777   0.392  0.00  0.00    +0.016 C 
ATOM      4  C   UNL     1      -1.085  -2.199   0.438  0.00  0.00    +0.024 C 
ATOM      5  C   UNL     1      -1.291  -0.769   0.008  0.00  0.00    +0.086 C 
ATOM      6  C   UNL     1       0.002  -0.004   0.002  0.00  0.00    -0.011 A 
ATOM      7  C   UNL     1      -0.017   1.380   0.010  0.00  0.00    +0.056 A 
ATOM      8  C   UNL     1       1.170   2.094   0.002  0.00  0.00    +0.167 A 
ATOM      9  C   UNL     1       2.389   1.418  -0.012  0.00  0.00    +0.168 A 
ATOM     10  C   UNL     1       2.408   0.034  -0.021  0.00  0.00    +0.073 A 
ATOM     11  C   UNL     1       1.216  -0.677  -0.013  0.00  0.00    +0.039 A 
ATOM     12  N   UNL     1       1.230  -2.073  -0.019  0.00  0.00    -0.317 N 
ATOM     13  O   UNL     1       3.397   2.338  -0.015  0.00  0.00    -0.453 OA
ATOM     14  C   UNL     1       2.792   3.574   0.408  0.00  0.00    +0.466 C 
ATOM     15  O   UNL     1       1.417   3.437   0.006  0.00  0.00    -0.453 OA
ATOM     16  C   UNL     1      -2.207  -2.916   0.884  0.00  0.00    +0.162 C 
ATOM     17  O   UNL     1      -3.291  -2.368   0.911  0.00  0.00    -0.292 OA
ATOM     18  C   UNL     1      -2.095  -4.347   1.330  0.00  0.00    +0.088 C 
ATOM     19  H   UNL     1       2.023  -2.546  -0.317  0.00  0.00    +0.152 HD
ENDROOT
BRANCH   5  20
ATOM     20  C   UNL     1      -1.880  -0.751  -1.379  0.00  0.00    -0.035 A 
ATOM     21  C   UNL     1      -1.169  -1.284  -2.438  0.00  0.00    +0.007 A 
ATOM     22  C   UNL     1      -1.710  -1.273  -3.710  0.00  0.00    +0.038 A 
ATOM     23  C   UNL     1      -2.960  -0.718  -3.925  0.00  0.00    +0.123 A 
ATOM     24  C   UNL     1      -3.669  -0.179  -2.864  0.00  0.00    +0.038 A 
ATOM     25  C   UNL     1      -3.128  -0.197  -1.592  0.00  0.00    +0.007 A 
ATOM     26  F   UNL     1      -3.488  -0.701  -5.168  0.00  0.00    -0.205 F 
ENDBRANCH   5  20
BRANCH   1  30
ATOM     27  C   UNL     1      -0.243  -8.716   2.917  0.00  0.00    +0.161 A 
ATOM     28  C   UNL     1      -0.543  -8.356   1.613  0.00  0.00    +0.049 A 
ATOM     29  C   UNL     1      -0.685  -7.022   1.280  0.00  0.00    +0.008 A 
ATOM     30  C   UNL     1      -0.529  -6.045   2.245  0.00  0.00    -0.040 A 
ATOM     31  C   UNL     1      -0.224  -6.397   3.547  0.00  0.00    +0.053 A 
ATOM     32  C   UNL     1      -0.085  -7.733   3.888  0.00  0.00    +0.162 A 
BRANCH  27  34
ATOM     33  C   UNL     1      -0.279 -10.983   2.197  0.00  0.00    +0.277 C 
ATOM     34  O   UNL     1      -0.103 -10.028   3.246  0.00  0.00    -0.491 OA
ENDBRANCH  27  34
BRANCH  32  35
ATOM     35  O   UNL     1       0.209  -8.082   5.170  0.00  0.00    -0.491 OA
ATOM     36  C   UNL     1       0.357  -7.019   6.114  0.00  0.00    +0.277 C 
ENDBRANCH  32  35
ENDBRANCH   1  30
TORSDOF 4
