REMARK  Name = ZINC14741535
REMARK  7 active torsions:
REMARK  status: ('A' for Active; 'I' for Inactive)
REMARK    1  A    between atoms: C_1  and  C_2
REMARK    2  A    between atoms: C_2  and  N_3
REMARK    3  A    between atoms: C_6  and  C_8
REMARK    4  A    between atoms: N_14  and  C_17
REMARK    5  A    between atoms: C_19  and  N_23
REMARK    6  A    between atoms: N_23  and  C_24
REMARK    7  A    between atoms: C_24  and  C_25
REMARK                            x       y       z     vdW  Elec       q    Type
REMARK                         _______ _______ _______ _____ _____    ______ ____
ROOT
ATOM      1  N   UNL     1       2.463   4.009  -0.100  0.00  0.00    -0.268 N 
ATOM      2  C   UNL     1       2.424   4.958   0.849  0.00  0.00    +0.043 A 
ATOM      3  C   UNL     1       1.398   4.652   1.681  0.00  0.00    +0.004 A 
ATOM      4  C   UNL     1       0.832   3.469   1.176  0.00  0.00    +0.151 A 
ATOM      5  N   UNL     1       1.532   3.142   0.104  0.00  0.00    -0.166 NA
ATOM      6  C   UNL     1       1.001   5.463   2.883  0.00  0.00    +0.023 C 
ATOM      7  C   UNL     1       1.653   6.847   2.767  0.00  0.00    -0.067 C 
ATOM      8  C   UNL     1       3.144   6.686   2.454  0.00  0.00    -0.009 C 
ATOM      9  C   UNL     1       3.317   6.160   1.024  0.00  0.00    +0.054 C 
ENDROOT
BRANCH   4  10
ATOM     10  C   UNL     1      -0.318   2.732   1.738  0.00  0.00    +0.267 C 
ATOM     11  O   UNL     1      -0.940   3.197   2.673  0.00  0.00    -0.268 OA
ATOM     12  N   UNL     1      -0.677   1.543   1.214  0.00  0.00    -0.298 N 
ATOM     13  C   UNL     1      -1.781   0.794   1.845  0.00  0.00    +0.106 C 
ATOM     14  C   UNL     1      -2.709   0.172   0.788  0.00  0.00    +0.000 C 
ATOM     15  C   UNL     1      -2.909   1.148  -0.351  0.00  0.00    -0.078 C 
ATOM     16  N   UNL     1      -1.910   0.885  -1.386  0.00  0.00    +0.379 N 
ATOM     17  C   UNL     1      -0.664   1.537  -1.236  0.00  0.00    -0.060 C 
ATOM     18  C   UNL     1       0.037   1.048   0.054  0.00  0.00    +0.089 C 
ATOM     19  C   UNL     1      -2.467   1.116  -2.726  0.00  0.00    -0.096 C 
ATOM     20  H   UNL     1      -1.626  -0.168  -1.244  0.00  0.00    -0.082 HD
ENDBRANCH   4  10
BRANCH   7  21
ATOM     21  N   UNL     1       1.495   7.572   4.035  0.00  0.00    +0.381 N 
ATOM     22  H   UNL     1       0.525   7.314   4.486  0.00  0.00    -0.086 HD
ATOM     23  H   UNL     1       2.306   7.289   4.723  0.00  0.00    -0.086 HD
BRANCH  21  24
ATOM     24  C   UNL     1       1.543   9.024   3.821  0.00  0.00    -0.079 C 
BRANCH  24  25
ATOM     25  C   UNL     1       1.375   9.743   5.161  0.00  0.00    -0.028 C 
ATOM     26  C   UNL     1      -0.022   9.462   5.719  0.00  0.00    +0.002 C 
ATOM     27  C   UNL     1      -0.191  10.180   7.059  0.00  0.00    +0.000 C 
ATOM     28  C   UNL     1      -0.016  11.687   6.856  0.00  0.00    +0.000 C 
ATOM     29  C   UNL     1       1.381  11.968   6.298  0.00  0.00    +0.000 C 
ATOM     30  C   UNL     1       1.549  11.249   4.958  0.00  0.00    +0.002 C 
ENDBRANCH  24  25
ENDBRANCH  21  24
ENDBRANCH   7  21
BRANCH   1  32
ATOM     31  C   UNL     1       4.660   3.169  -0.771  0.00  0.00    +0.029 C 
ATOM     32  C   UNL     1       3.426   3.964  -1.203  0.00  0.00    +0.140 C 
ENDBRANCH   1  32
TORSDOF 5
