REMARK  Name = ZINC09713176
REMARK  5 active torsions:
REMARK  status: ('A' for Active; 'I' for Inactive)
REMARK    1  A    between atoms: C_4  and  C_7
REMARK    2  A    between atoms: C_7  and  C_30
REMARK    3  A    between atoms: N_10  and  C_14
REMARK    4  A    between atoms: C_14  and  N_61
REMARK    5  A    between atoms: C_19  and  C_21
REMARK                            x       y       z     vdW  Elec       q    Type
REMARK                         _______ _______ _______ _____ _____    ______ ____
ROOT
ATOM      1  C   UNL     1       3.871   2.199   0.394  0.00  0.00    +0.164 C 
ATOM      2  C   UNL     1       4.364   2.236  -1.039  0.00  0.00    +0.254 C 
ATOM      3  O   UNL     1       3.824   2.767  -1.985  0.00  0.00    -0.272 OA
ATOM      4  N   UNL     1       5.530   1.554  -1.038  0.00  0.00    -0.241 N 
ATOM      5  C   UNL     1       5.836   1.100   0.183  0.00  0.00    +0.308 C 
ATOM      6  O   UNL     1       6.838   0.459   0.434  0.00  0.00    -0.252 OA
ATOM      7  N   UNL     1       4.911   1.432   1.102  0.00  0.00    -0.278 N 
ATOM      8  H   UNL     1       4.926   1.211   2.046  0.00  0.00    +0.152 HD
ENDROOT
BRANCH   1  12
ATOM      9  C   UNL     1       0.104   0.200   0.637  0.00  0.00    +0.000 A 
ATOM     10  C   UNL     1       0.203   1.409  -0.025  0.00  0.00    +0.000 A 
ATOM     11  C   UNL     1       1.422   2.056  -0.103  0.00  0.00    +0.006 A 
ATOM     12  C   UNL     1       2.542   1.493   0.479  0.00  0.00    -0.011 A 
ATOM     13  C   UNL     1       2.443   0.284   1.142  0.00  0.00    +0.006 A 
ATOM     14  C   UNL     1       1.224  -0.363   1.220  0.00  0.00    +0.000 A 
ENDBRANCH   1  12
BRANCH   1  15
ATOM     15  C   UNL     1       3.766   3.593   0.956  0.00  0.00    -0.011 A 
ATOM     16  C   UNL     1       3.299   4.624   0.162  0.00  0.00    +0.006 A 
ATOM     17  C   UNL     1       3.198   5.903   0.679  0.00  0.00    +0.000 A 
ATOM     18  C   UNL     1       3.573   6.152   1.986  0.00  0.00    +0.000 A 
ATOM     19  C   UNL     1       4.045   5.122   2.777  0.00  0.00    +0.000 A 
ATOM     20  C   UNL     1       4.142   3.842   2.262  0.00  0.00    +0.006 A 
ENDBRANCH   1  15
BRANCH   4  21
ATOM     21  C   UNL     1       6.359   1.339  -2.227  0.00  0.00    +0.043 C 
BRANCH  21  27
ATOM     22  C   UNL     1       5.973  -1.051  -2.237  0.00  0.00    -0.076 C 
ATOM     23  C   UNL     1       5.286  -2.187  -2.998  0.00  0.00    -0.019 C 
ATOM     24  C   UNL     1       5.926  -2.328  -4.382  0.00  0.00    -0.003 C 
ATOM     25  C   UNL     1       5.809  -0.997  -5.128  0.00  0.00    -0.009 C 
ATOM     26  C   UNL     1       6.481   0.105  -4.306  0.00  0.00    -0.009 C 
ATOM     27  N   UNL     1       5.803   0.207  -2.996  0.00  0.00    +0.396 N 
ATOM     28  H   UNL     1       4.801   0.369  -3.151  0.00  0.00    -0.079 HD
BRANCH  26  29
ATOM     29  C   UNL     1       6.350   1.421  -5.027  0.00  0.00    +0.066 A 
ATOM     30  N   UNL     1       5.299   2.184  -5.135  0.00  0.00    -0.246 NA
ATOM     31  C   UNL     1       5.315   3.350  -5.812  0.00  0.00    +0.078 A 
ATOM     32  C   UNL     1       4.270   4.279  -6.012  0.00  0.00    +0.029 A 
ATOM     33  C   UNL     1       4.476   5.412  -6.736  0.00  0.00    +0.002 A 
ATOM     34  C   UNL     1       5.710   5.698  -7.305  0.00  0.00    +0.001 A 
ATOM     35  C   UNL     1       6.758   4.814  -7.133  0.00  0.00    +0.017 A 
ATOM     36  C   UNL     1       6.560   3.668  -6.402  0.00  0.00    +0.039 A 
ATOM     37  S   UNL     1       7.562   2.283  -5.923  0.00  0.00    -0.074 S 
ENDBRANCH  26  29
ENDBRANCH  21  27
ENDBRANCH   4  21
TORSDOF 5
