REMARK  Name = ZINC38779487
REMARK  9 active torsions:
REMARK  status: ('A' for Active; 'I' for Inactive)
REMARK    1  A    between atoms: C_1  and  C_2
REMARK    2  A    between atoms: C_7  and  C_8
REMARK    3  A    between atoms: C_10  and  C_25
REMARK    4  A    between atoms: N_14  and  N_15
REMARK    5  A    between atoms: N_15  and  C_16
REMARK    6  A    between atoms: C_28  and  C_31
REMARK    7  A    between atoms: C_31  and  C_32
REMARK    8  A    between atoms: C_31  and  C_33
REMARK    9  A    between atoms: C_31  and  C_34
REMARK                            x       y       z     vdW  Elec       q    Type
REMARK                         _______ _______ _______ _____ _____    ______ ____
ROOT
ATOM      1  C   UNL     1      -0.018   1.503   0.010  0.00  0.00    +0.044 C 
ATOM      2  C   UNL     1       0.002  -0.004   0.002  0.00  0.00    -0.047 A 
ATOM      3  C   UNL     1       0.006  -0.687  -1.199  0.00  0.00    +0.017 A 
ATOM      4  C   UNL     1       0.023  -2.079  -1.198  0.00  0.00    +0.040 A 
ATOM      5  C   UNL     1       0.035  -2.786   0.011  0.00  0.00    +0.131 A 
ATOM      6  C   UNL     1       0.034  -2.084   1.206  0.00  0.00    +0.050 A 
ATOM      7  C   UNL     1       0.023  -0.701   1.197  0.00  0.00    -0.044 A 
ATOM      8  C   UNL     1       0.027   0.054   2.502  0.00  0.00    +0.044 C 
ATOM      9  O   UNL     1       0.040  -4.142   0.023  0.00  0.00    -0.483 OA
ATOM     10  C   UNL     1       0.515  -4.837  -1.130  0.00  0.00    +0.209 C 
ATOM     11  C   UNL     1      -0.228  -4.327  -2.374  0.00  0.00    +0.107 C 
ATOM     12  C   UNL     1       0.033  -2.835  -2.471  0.00  0.00    +0.073 C 
ATOM     13  N   UNL     1       0.252  -2.252  -3.610  0.00  0.00    -0.188 NA
ENDROOT
BRANCH  10  14
ATOM     14  C   UNL     1       0.266  -6.314  -0.965  0.00  0.00    -0.007 A 
ATOM     15  C   UNL     1      -0.918  -6.757  -0.405  0.00  0.00    +0.007 A 
ATOM     16  C   UNL     1      -1.146  -8.112  -0.253  0.00  0.00    +0.004 A 
ATOM     17  C   UNL     1      -0.192  -9.024  -0.662  0.00  0.00    -0.042 A 
ATOM     18  C   UNL     1       0.992  -8.581  -1.223  0.00  0.00    +0.004 A 
ATOM     19  C   UNL     1       1.218  -7.226  -1.379  0.00  0.00    +0.007 A 
BRANCH  17  20
ATOM     20  C   UNL     1      -0.440 -10.501  -0.496  0.00  0.00    -0.013 C 
ATOM     21  C   UNL     1      -1.692 -10.899  -1.281  0.00  0.00    +0.015 C 
ATOM     22  C   UNL     1       0.764 -11.283  -1.024  0.00  0.00    +0.015 C 
ATOM     23  C   UNL     1      -0.645 -10.820   0.986  0.00  0.00    +0.015 C 
ENDBRANCH  17  20
ENDBRANCH  10  14
BRANCH  13  24
ATOM     24  N   UNL     1       0.253  -3.004  -4.792  0.00  0.00    -0.229 N 
ATOM     25  H   UNL     1       0.089  -3.959  -4.760  0.00  0.00    +0.172 HD
BRANCH  24  26
ATOM     26  C   UNL     1       0.501  -2.347  -6.078  0.00  0.00    +0.283 C 
ATOM     27  N   UNL     1      -0.772  -1.958  -6.699  0.00  0.00    -0.347 N 
ATOM     28  C   UNL     1      -0.857  -2.584  -7.837  0.00  0.00    +0.061 A 
ATOM     29  C   UNL     1      -1.880  -2.603  -8.892  0.00  0.00    +0.027 A 
ATOM     30  C   UNL     1      -1.692  -3.366  -9.988  0.00  0.00    +0.002 A 
ATOM     31  C   UNL     1      -0.545  -4.159 -10.171  0.00  0.00    +0.002 A 
ATOM     32  C   UNL     1       0.453  -4.215  -9.266  0.00  0.00    +0.027 A 
ATOM     33  C   UNL     1       0.357  -3.423  -8.032  0.00  0.00    +0.061 A 
ATOM     34  N   UNL     1       1.146  -3.283  -7.006  0.00  0.00    -0.347 N 
ATOM     35  H   UNL     1      -1.428  -1.348  -6.329  0.00  0.00    +0.163 HD
ATOM     36  H   UNL     1       2.004  -3.718  -6.879  0.00  0.00    +0.163 HD
ENDBRANCH  24  26
ENDBRANCH  13  24
TORSDOF 4
