REMARK  Name = ZINC41549603
REMARK  6 active torsions:
REMARK  status: ('A' for Active; 'I' for Inactive)
REMARK    1  A    between atoms: C_1  and  C_2
REMARK    2  A    between atoms: C_5  and  C_8
REMARK    3  A    between atoms: C_8  and  C_9
REMARK    4  A    between atoms: C_9  and  N_10
REMARK    5  A    between atoms: C_11  and  C_13
REMARK    6  A    between atoms: C_13  and  C_25
REMARK                            x       y       z     vdW  Elec       q    Type
REMARK                         _______ _______ _______ _____ _____    ______ ____
ROOT
ATOM      1  C   UNL     1       2.723  -8.397  -0.059  0.00  0.00    +0.257 C 
ATOM      2  C   UNL     1       4.016  -8.879  -0.665  0.00  0.00    +0.270 C 
ATOM      3  O   UNL     1       5.011  -8.188  -0.606  0.00  0.00    -0.271 OA
ATOM      4  N   UNL     1       4.063 -10.082  -1.274  0.00  0.00    -0.279 N 
ATOM      5  C   UNL     1       2.877 -10.809  -1.443  0.00  0.00    +0.077 A 
ATOM      6  C   UNL     1       2.914 -12.133  -1.852  0.00  0.00    +0.047 A 
ATOM      7  C   UNL     1       1.735 -12.841  -2.002  0.00  0.00    +0.043 A 
ATOM      8  C   UNL     1       0.520 -12.231  -1.744  0.00  0.00    +0.024 A 
ATOM      9  C   UNL     1       0.477 -10.909  -1.340  0.00  0.00    +0.049 A 
ATOM     10  C   UNL     1       1.653 -10.193  -1.194  0.00  0.00    +0.144 A 
ATOM     11  O   UNL     1       1.620  -8.883  -0.828  0.00  0.00    -0.466 OA
ATOM     12 CL   UNL     1       1.779 -14.498  -2.516  0.00  0.00    -0.083 Cl
ATOM     13  C   UNL     1       2.609  -8.916   1.376  0.00  0.00    +0.076 C 
ATOM     14  H   UNL     1       4.907 -10.440  -1.590  0.00  0.00    +0.155 HD
ENDROOT
BRANCH   1  16
ATOM     15  N   UNL     1       1.527  -6.231  -0.040  0.00  0.00    -0.311 N 
ATOM     16  C   UNL     1       2.703  -6.890  -0.050  0.00  0.00    +0.266 C 
ATOM     17  O   UNL     1       3.745  -6.270  -0.053  0.00  0.00    -0.271 OA
ATOM     18  H   UNL     1       0.694  -6.727  -0.038  0.00  0.00    +0.149 HD
BRANCH  15  19
ATOM     19  C   UNL     1       1.508  -4.767  -0.032  0.00  0.00    +0.109 C 
BRANCH  19  20
ATOM     20  C   UNL     1       0.059  -4.275  -0.021  0.00  0.00    +0.054 C 
BRANCH  20  25
ATOM     21  C   UNL     1      -0.018   1.503   0.010  0.00  0.00    +0.044 C 
ATOM     22  C   UNL     1       0.002  -0.004   0.002  0.00  0.00    -0.050 A 
ATOM     23  C   UNL     1       0.006  -0.689  -1.199  0.00  0.00    +0.003 A 
ATOM     24  C   UNL     1       0.025  -2.071  -1.206  0.00  0.00    +0.004 A 
ATOM     25  C   UNL     1       0.040  -2.768  -0.013  0.00  0.00    -0.046 A 
ATOM     26  C   UNL     1       0.037  -2.084   1.188  0.00  0.00    +0.004 A 
ATOM     27  C   UNL     1       0.023  -0.702   1.195  0.00  0.00    +0.003 A 
ENDBRANCH  20  25
ENDBRANCH  19  20
ENDBRANCH  15  19
ENDBRANCH   1  16
TORSDOF 4
