REMARK  Name = ZINC34747880
REMARK  6 active torsions:
REMARK  status: ('A' for Active; 'I' for Inactive)
REMARK    1  A    between atoms: C_1  and  N_2
REMARK    2  A    between atoms: N_2  and  C_3
REMARK    3  A    between atoms: C_4  and  C_6
REMARK    4  A    between atoms: C_6  and  N_7
REMARK    5  A    between atoms: N_20  and  C_23
REMARK    6  A    between atoms: C_23  and  C_24
REMARK                            x       y       z     vdW  Elec       q    Type
REMARK                         _______ _______ _______ _____ _____    ______ ____
ROOT
ATOM      1  N   UNL     1       0.027  -2.758  -2.531  0.00  0.00    -0.271 N 
ATOM      2  C   UNL     1      -1.143  -3.085  -3.111  0.00  0.00    +0.264 A 
ATOM      3  O   UNL     1      -2.179  -3.070  -2.467  0.00  0.00    -0.267 OA
ATOM      4  C   UNL     1      -1.153  -3.451  -4.493  0.00  0.00    +0.076 A 
ATOM      5  C   UNL     1      -2.307  -3.841  -5.320  0.00  0.00    -0.023 A 
ATOM      6  C   UNL     1      -2.060  -4.143  -6.604  0.00  0.00    -0.004 A 
ATOM      7  S   UNL     1      -0.305  -3.929  -6.798  0.00  0.00    -0.073 S 
ATOM      8  C   UNL     1       0.090  -3.436  -5.141  0.00  0.00    +0.117 A 
ATOM      9  N   UNL     1       1.212  -3.103  -4.511  0.00  0.00    -0.208 NA
ATOM     10  C   UNL     1       1.193  -2.765  -3.238  0.00  0.00    +0.202 A 
ATOM     11  N   UNL     1       2.365  -2.420  -2.612  0.00  0.00    -0.304 N 
ATOM     12  C   UNL     1       3.196  -3.436  -1.949  0.00  0.00    +0.089 C 
ATOM     13  C   UNL     1       4.638  -3.284  -2.445  0.00  0.00    -0.059 C 
ATOM     14  N   UNL     1       5.085  -1.901  -2.230  0.00  0.00    +0.384 N 
ATOM     15  C   UNL     1       4.285  -0.984  -3.052  0.00  0.00    -0.059 C 
ATOM     16  C   UNL     1       2.829  -1.024  -2.591  0.00  0.00    +0.089 C 
ATOM     17  C   UNL     1      -3.309  -4.530  -7.348  0.00  0.00    +0.043 C 
ATOM     18  C   UNL     1      -4.337  -4.849  -6.240  0.00  0.00    +0.010 C 
ATOM     19  C   UNL     1      -3.810  -3.995  -5.070  0.00  0.00    +0.037 C 
ATOM     20  H   UNL     1       4.975  -1.661  -1.257  0.00  0.00    -0.081 HD
ENDROOT
BRANCH   1  21
ATOM     21  C   UNL     1       0.047  -2.381  -1.115  0.00  0.00    +0.224 C 
BRANCH  21  25
ATOM     22  C   UNL     1      -0.609   1.087   0.368  0.00  0.00    +0.131 C 
ATOM     23  N   UNL     1      -0.304  -0.340   0.238  0.00  0.00    -0.306 N 
ATOM     24  C   UNL     1      -0.039  -1.145   1.433  0.00  0.00    +0.131 C 
ATOM     25  C   UNL     1      -0.267  -0.913  -0.982  0.00  0.00    +0.235 C 
ATOM     26  O   UNL     1      -0.485  -0.247  -1.971  0.00  0.00    -0.274 OA
ENDBRANCH  21  25
ENDBRANCH   1  21
BRANCH  14  27
ATOM     27  C   UNL     1       6.501  -1.783  -2.604  0.00  0.00    -0.043 C 
BRANCH  27  28
ATOM     28  C   UNL     1       6.994  -0.398  -2.269  0.00  0.00    -0.064 A 
ATOM     29  C   UNL     1       6.895   0.615  -3.205  0.00  0.00    +0.003 A 
ATOM     30  C   UNL     1       7.348   1.885  -2.899  0.00  0.00    +0.020 A 
ATOM     31  C   UNL     1       7.899   2.142  -1.656  0.00  0.00    +0.041 A 
ATOM     32  C   UNL     1       7.997   1.127  -0.720  0.00  0.00    +0.020 A 
ATOM     33  C   UNL     1       7.539  -0.141  -1.025  0.00  0.00    +0.003 A 
ATOM     34 CL   UNL     1       8.467   3.736  -1.271  0.00  0.00    -0.084 Cl
ENDBRANCH  27  28
ENDBRANCH  14  27
TORSDOF 4
