REMARK  Name = ZINC45071205
REMARK  8 active torsions:
REMARK  status: ('A' for Active; 'I' for Inactive)
REMARK    1  A    between atoms: C_1  and  O_2
REMARK    2  A    between atoms: O_2  and  C_3
REMARK    3  A    between atoms: C_10  and  O_26
REMARK    4  A    between atoms: C_17  and  O_18
REMARK    5  A    between atoms: C_17  and  O_20
REMARK    6  A    between atoms: O_18  and  C_19
REMARK    7  A    between atoms: O_20  and  C_21
REMARK    8  A    between atoms: O_26  and  C_27
REMARK                            x       y       z     vdW  Elec       q    Type
REMARK                         _______ _______ _______ _____ _____    ______ ____
ROOT
ATOM      1  C   UNL     1      -1.064  -1.363  -0.495  0.00  0.00    +0.134 A 
ATOM      2  C   UNL     1      -1.609  -1.763   0.745  0.00  0.00    +0.028 A 
ATOM      3  C   UNL     1      -0.828  -1.777   1.911  0.00  0.00    +0.012 A 
ATOM      4  C   UNL     1      -1.385  -2.168   3.090  0.00  0.00    +0.001 A 
ATOM      5  C   UNL     1      -2.723  -2.555   3.158  0.00  0.00    +0.001 A 
ATOM      6  C   UNL     1      -3.510  -2.553   2.047  0.00  0.00    +0.012 A 
ATOM      7  C   UNL     1      -2.969  -2.155   0.814  0.00  0.00    +0.028 A 
ATOM      8  C   UNL     1      -3.757  -2.139  -0.358  0.00  0.00    +0.134 A 
ATOM      9  C   UNL     1      -3.198  -1.747  -1.532  0.00  0.00    +0.035 A 
ATOM     10  C   UNL     1      -1.854  -1.354  -1.599  0.00  0.00    +0.035 A 
ATOM     11  C   UNL     1      -1.589  -0.979  -3.060  0.00  0.00    +0.166 C 
ATOM     12  C   UNL     1      -1.734  -2.309  -3.814  0.00  0.00    +0.065 C 
ATOM     13  C   UNL     1      -3.004  -2.674  -3.750  0.00  0.00    +0.065 C 
ATOM     14  C   UNL     1      -3.755  -1.616  -2.952  0.00  0.00    +0.166 C 
ATOM     15  C   UNL     1      -2.974  -0.321  -3.425  0.00  0.00    +0.227 C 
ATOM     16 CL   UNL     1      -5.551  -1.606  -3.116  0.00  0.00    -0.101 Cl
ATOM     17 CL   UNL     1      -3.693  -4.107  -4.445  0.00  0.00    -0.085 Cl
ATOM     18 CL   UNL     1      -0.459  -3.178  -4.610  0.00  0.00    -0.085 Cl
ATOM     19 CL   UNL     1      -0.110  -0.001  -3.386  0.00  0.00    -0.101 Cl
ENDROOT
BRANCH   1  21
ATOM     20  C   UNL     1       0.528   0.399  -0.374  0.00  0.00    +0.277 C 
ATOM     21  O   UNL     1       0.239  -0.985  -0.581  0.00  0.00    -0.494 OA
ENDBRANCH   1  21
BRANCH  15  22
ATOM     22  O   UNL     1      -3.265   0.833  -2.633  0.00  0.00    -0.348 OA
ATOM     23  C   UNL     1      -2.368   1.925  -2.846  0.00  0.00    +0.197 C 
ENDBRANCH  15  22
BRANCH  15  24
ATOM     24  O   UNL     1      -3.117  -0.071  -4.824  0.00  0.00    -0.348 OA
ATOM     25  C   UNL     1      -4.354   0.551  -5.180  0.00  0.00    +0.197 C 
ENDBRANCH  15  24
BRANCH   8  26
ATOM     26  O   UNL     1      -5.063  -2.513  -0.311  0.00  0.00    -0.494 OA
ATOM     27  C   UNL     1      -6.022  -1.487  -0.047  0.00  0.00    +0.277 C 
ENDBRANCH   8  26
TORSDOF 4
