REMARK  Name = ZINC20528806
REMARK  6 active torsions:
REMARK  status: ('A' for Active; 'I' for Inactive)
REMARK    1  A    between atoms: C_4  and  C_7
REMARK    2  A    between atoms: C_7  and  N_8
REMARK    3  A    between atoms: C_11  and  C_12
REMARK    4  A    between atoms: C_22  and  C_30
REMARK    5  A    between atoms: C_24  and  C_28
REMARK    6  A    between atoms: C_25  and  N_27
REMARK                            x       y       z     vdW  Elec       q    Type
REMARK                         _______ _______ _______ _____ _____    ______ ____
ROOT
ATOM      1  N   UNL     1       2.347   1.248   1.153  0.00  0.00    -0.290 NA
ATOM      2  C   UNL     1       2.595   0.119   0.237  0.00  0.00    +0.124 C 
ATOM      3  C   UNL     1       1.323  -0.702   0.194  0.00  0.00    +0.010 C 
ATOM      4  C   UNL     1       1.360  -2.046   0.196  0.00  0.00    +0.018 C 
ATOM      5  C   UNL     1       0.040   0.029   0.151  0.00  0.00    +0.136 C 
ATOM      6  C   UNL     1       0.023   1.346   0.360  0.00  0.00    -0.000 C 
ATOM      7  C   UNL     1       1.290   2.115   0.631  0.00  0.00    +0.120 C 
ATOM      8  C   UNL     1      -1.281   2.108   0.323  0.00  0.00    +0.096 C 
ATOM      9  C   UNL     1      -2.339   1.304  -0.373  0.00  0.00    +0.098 C 
ATOM     10  C   UNL     1      -2.190  -0.033  -0.551  0.00  0.00    +0.199 C 
ATOM     11  O   UNL     1      -1.094  -0.669  -0.102  0.00  0.00    -0.441 OA
ENDROOT
BRANCH   4  12
ATOM     12  C   UNL     1       2.650  -2.748   0.075  0.00  0.00    -0.006 A 
ATOM     13  C   UNL     1       3.668  -2.213  -0.720  0.00  0.00    +0.009 A 
ATOM     14  C   UNL     1       4.873  -2.875  -0.828  0.00  0.00    +0.001 A 
ATOM     15  C   UNL     1       5.077  -4.066  -0.153  0.00  0.00    +0.001 A 
ATOM     16  C   UNL     1       4.074  -4.602   0.636  0.00  0.00    +0.020 A 
ATOM     17  C   UNL     1       2.864  -3.949   0.759  0.00  0.00    +0.048 A 
ATOM     18 CL   UNL     1       1.610  -4.619   1.754  0.00  0.00    -0.083 Cl
ENDBRANCH   4  12
BRANCH   8  19
ATOM     19  C   UNL     1      -1.733   2.391   1.732  0.00  0.00    -0.017 A 
ATOM     20  C   UNL     1      -1.979   1.346   2.603  0.00  0.00    +0.006 A 
ATOM     21  C   UNL     1      -2.394   1.606   3.895  0.00  0.00    +0.000 A 
ATOM     22  C   UNL     1      -2.563   2.911   4.318  0.00  0.00    +0.001 A 
ATOM     23  C   UNL     1      -2.317   3.957   3.449  0.00  0.00    +0.020 A 
ATOM     24  C   UNL     1      -1.896   3.698   2.156  0.00  0.00    +0.045 A 
ATOM     25 CL   UNL     1      -1.580   5.011   1.066  0.00  0.00    -0.083 Cl
ENDBRANCH   8  19
BRANCH  10  26
ATOM     26  N   UNL     1      -3.170  -0.744  -1.196  0.00  0.00    -0.328 N 
ATOM     27  H   UNL     1      -3.056  -1.828  -1.344  0.00  0.00    +0.145 HD
ATOM     28  H   UNL     1      -4.070  -0.231  -1.566  0.00  0.00    +0.145 HD
ENDBRANCH  10  26
BRANCH   9  29
ATOM     29  C   UNL     1      -3.517   1.956  -0.860  0.00  0.00    +0.101 C 
ATOM     30  N   UNL     1      -4.452   2.473  -1.247  0.00  0.00    -0.191 NA
ENDBRANCH   9  29
BRANCH   1  31
ATOM     31  C   UNL     1       3.580   2.008   1.398  0.00  0.00    +0.120 C 
BRANCH  31  35
ATOM     32  C   UNL     1       6.362  -0.437   3.528  0.00  0.00    +0.000 A 
ATOM     33  C   UNL     1       6.360  -0.435   2.145  0.00  0.00    +0.000 A 
ATOM     34  C   UNL     1       5.460   0.356   1.456  0.00  0.00    +0.005 A 
ATOM     35  C   UNL     1       4.561   1.145   2.149  0.00  0.00    -0.033 A 
ATOM     36  C   UNL     1       4.566   1.147   3.532  0.00  0.00    +0.005 A 
ATOM     37  C   UNL     1       5.463   0.352   4.221  0.00  0.00    +0.000 A 
ENDBRANCH  31  35
ENDBRANCH   1  31
TORSDOF 6
