REMARK  Name = ZINC20881957
REMARK  8 active torsions:
REMARK  status: ('A' for Active; 'I' for Inactive)
REMARK    1  A    between atoms: C_1  and  C_2
REMARK    2  A    between atoms: C_2  and  C_3
REMARK    3  A    between atoms: C_2  and  C_4
REMARK    4  A    between atoms: C_2  and  C_5
REMARK    5  A    between atoms: C_8  and  C_11
REMARK    6  A    between atoms: C_16  and  C_22
REMARK    7  A    between atoms: C_25  and  O_29
REMARK    8  A    between atoms: O_29  and  C_30
REMARK                            x       y       z     vdW  Elec       q    Type
REMARK                         _______ _______ _______ _____ _____    ______ ____
ROOT
ATOM      1  C   UNL     1      -5.293   1.547  -3.198  0.00  0.00    +0.032 C 
ATOM      2  C   UNL     1      -4.923   2.806  -2.410  0.00  0.00    +0.059 C 
ATOM      3  C   UNL     1      -4.117   2.423  -1.194  0.00  0.00    +0.018 C 
ATOM      4  C   UNL     1      -3.317   1.336  -1.208  0.00  0.00    +0.020 C 
ATOM      5  C   UNL     1      -2.513   0.977   0.019  0.00  0.00    +0.063 C 
ATOM      6  C   UNL     1      -3.316   1.329   1.273  0.00  0.00    +0.109 C 
ATOM      7  C   UNL     1      -3.854   2.730   1.137  0.00  0.00    +0.218 C 
ATOM      8  O   UNL     1      -3.967   3.432   2.119  0.00  0.00    -0.275 OA
ATOM      9  N   UNL     1      -4.210   3.203  -0.070  0.00  0.00    -0.289 N 
ATOM     10  C   UNL     1      -3.212   0.520  -2.347  0.00  0.00    +0.162 C 
ATOM     11  O   UNL     1      -2.473  -0.444  -2.326  0.00  0.00    -0.292 OA
ATOM     12  C   UNL     1      -4.003   0.820  -3.592  0.00  0.00    +0.088 C 
ATOM     13  H   UNL     1      -4.581   4.236  -0.145  0.00  0.00    +0.155 HD
ENDROOT
BRANCH   5  14
ATOM     14  C   UNL     1      -1.220   1.750   0.017  0.00  0.00    -0.038 A 
ATOM     15  C   UNL     1      -0.013   1.076   0.008  0.00  0.00    +0.008 A 
ATOM     16  C   UNL     1       1.175   1.782   0.000  0.00  0.00    +0.047 A 
ATOM     17  C   UNL     1       1.156   3.169   0.008  0.00  0.00    +0.134 A 
ATOM     18  C   UNL     1      -0.057   3.844   0.022  0.00  0.00    +0.060 A 
ATOM     19  C   UNL     1      -1.242   3.132   0.030  0.00  0.00    +0.023 A 
ATOM     20 BR   UNL     1      -0.088   5.735   0.033  0.00  0.00    -0.047 Br
BRANCH  17  21
ATOM     21  O   UNL     1       2.322   3.866  -0.000  0.00  0.00    -0.494 OA
ATOM     22  C   UNL     1       3.532   3.106  -0.016  0.00  0.00    +0.277 C 
ENDBRANCH  17  21
ENDBRANCH   5  14
BRANCH   1  26
ATOM     23  C   UNL     1      -7.454   2.642  -6.717  0.00  0.00    -0.042 A 
ATOM     24  C   UNL     1      -8.034   1.805  -5.782  0.00  0.00    +0.004 A 
ATOM     25  C   UNL     1      -7.335   1.451  -4.643  0.00  0.00    +0.004 A 
ATOM     26  C   UNL     1      -6.055   1.933  -4.440  0.00  0.00    -0.043 A 
ATOM     27  C   UNL     1      -5.477   2.775  -5.372  0.00  0.00    +0.004 A 
ATOM     28  C   UNL     1      -6.175   3.125  -6.513  0.00  0.00    +0.004 A 
BRANCH  23  30
ATOM     29  C   UNL     1      -9.503   3.753  -7.561  0.00  0.00    +0.015 C 
ATOM     30  C   UNL     1      -8.216   3.028  -7.958  0.00  0.00    -0.013 C 
ATOM     31  C   UNL     1      -7.353   3.954  -8.819  0.00  0.00    +0.015 C 
ATOM     32  C   UNL     1      -8.565   1.769  -8.755  0.00  0.00    +0.015 C 
ENDBRANCH  23  30
ENDBRANCH   1  26
TORSDOF 4
