REMARK  Name = ZINC63526275
REMARK  6 active torsions:
REMARK  status: ('A' for Active; 'I' for Inactive)
REMARK    1  A    between atoms: C_4  and  C_7
REMARK    2  A    between atoms: C_7  and  N_8
REMARK    3  A    between atoms: C_9  and  C_11
REMARK    4  A    between atoms: C_11  and  S_12
REMARK    5  A    between atoms: S_12  and  C_13
REMARK    6  A    between atoms: C_16  and  C_19
REMARK                            x       y       z     vdW  Elec       q    Type
REMARK                         _______ _______ _______ _____ _____    ______ ____
ROOT
ATOM      1  C   UNL     1       7.737  -2.955   4.667  0.00  0.00    +0.269 C 
ATOM      2  N   UNL     1       6.988  -2.542   5.632  0.00  0.00    -0.140 NA
ATOM      3  N   UNL     1       7.565  -2.862   6.870  0.00  0.00    -0.225 N 
ATOM      4  C   UNL     1       8.823  -3.558   6.545  0.00  0.00    +0.304 C 
ATOM      5  O   UNL     1       8.852  -3.578   5.110  0.00  0.00    -0.445 OA
ATOM      6  H   UNL     1       7.212  -2.667   7.752  0.00  0.00    +0.172 HD
ENDROOT
BRANCH   4   7
ATOM      7  C   UNL     1      10.021  -2.786   7.101  0.00  0.00    +0.164 C 
ATOM      8  C   UNL     1       9.941  -2.717   8.610  0.00  0.00    +0.012 C 
ATOM      9  C   UNL     1      11.050  -3.339   9.073  0.00  0.00    -0.004 A 
ATOM     10  C   UNL     1      11.550  -3.602  10.428  0.00  0.00    +0.010 A 
ATOM     11  C   UNL     1      12.721  -4.263  10.578  0.00  0.00    +0.001 A 
ATOM     12  C   UNL     1      13.465  -4.703   9.475  0.00  0.00    +0.002 A 
ATOM     13  C   UNL     1      13.070  -4.500   8.200  0.00  0.00    +0.026 A 
ATOM     14  C   UNL     1      11.855  -3.814   7.925  0.00  0.00    +0.043 A 
ATOM     15  N   UNL     1      11.267  -3.498   6.795  0.00  0.00    -0.373 N 
ATOM     16  H   UNL     1      11.600  -3.700   5.907  0.00  0.00    +0.160 HD
ENDBRANCH   4   7
BRANCH   1  17
ATOM     17  S   UNL     1       7.347  -2.738   2.963  0.00  0.00    -0.057 S 
BRANCH  17  18
ATOM     18  C   UNL     1       5.764  -1.853   2.984  0.00  0.00    +0.174 C 
BRANCH  18  20
ATOM     19  N   UNL     1       4.152  -0.952   1.338  0.00  0.00    -0.311 N 
ATOM     20  C   UNL     1       5.311  -1.601   1.569  0.00  0.00    +0.224 C 
ATOM     21  O   UNL     1       5.989  -1.981   0.638  0.00  0.00    -0.275 OA
ATOM     22  H   UNL     1       3.610  -0.648   2.082  0.00  0.00    +0.149 HD
BRANCH  19  23
ATOM     23  C   UNL     1       3.711  -0.707  -0.038  0.00  0.00    +0.139 C 
BRANCH  23  27
ATOM     24  C   UNL     1      -0.017   1.378   0.010  0.00  0.00    +0.000 A 
ATOM     25  C   UNL     1       1.171   2.086   0.002  0.00  0.00    +0.000 A 
ATOM     26  C   UNL     1       2.377   1.411  -0.013  0.00  0.00    +0.005 A 
ATOM     27  C   UNL     1       2.396   0.029  -0.020  0.00  0.00    -0.030 A 
ATOM     28  C   UNL     1       1.208  -0.679  -0.012  0.00  0.00    +0.005 A 
ATOM     29  C   UNL     1       0.002  -0.004   0.002  0.00  0.00    +0.000 A 
ENDBRANCH  23  27
ENDBRANCH  19  23
ENDBRANCH  18  20
ENDBRANCH  17  18
ENDBRANCH   1  17
TORSDOF 6
