REMARK  Name = ZINC06932893
REMARK  6 active torsions:
REMARK  status: ('A' for Active; 'I' for Inactive)
REMARK    1  A    between atoms: C_1  and  C_2
REMARK    2  A    between atoms: C_2  and  C_19
REMARK    3  A    between atoms: N_5  and  C_9
REMARK    4  A    between atoms: C_9  and  C_10
REMARK    5  A    between atoms: C_10  and  O_11
REMARK    6  A    between atoms: O_11  and  C_12
REMARK                            x       y       z     vdW  Elec       q    Type
REMARK                         _______ _______ _______ _____ _____    ______ ____
ROOT
ATOM      1  C   UNL     1      -0.697   1.991   1.278  0.00  0.00    +0.047 C 
ATOM      2  C   UNL     1      -0.018   1.469   0.010  0.00  0.00    +0.135 C 
ATOM      3  C   UNL     1       1.450   1.845  -0.002  0.00  0.00    +0.251 C 
ATOM      4  O   UNL     1       1.920   2.963  -0.001  0.00  0.00    -0.272 OA
ATOM      5  N   UNL     1       2.125   0.679  -0.015  0.00  0.00    -0.221 N 
ATOM      6  C   UNL     1       1.296  -0.371  -0.012  0.00  0.00    +0.310 C 
ATOM      7  O   UNL     1       1.670  -1.528  -0.022  0.00  0.00    -0.252 OA
ATOM      8  N   UNL     1       0.002  -0.004   0.002  0.00  0.00    -0.281 N 
ATOM      9  H   UNL     1      -0.768  -0.594   0.006  0.00  0.00    +0.152 HD
ENDROOT
BRANCH   2  10
ATOM     10  C   UNL     1      -0.711   1.996  -1.220  0.00  0.00    -0.015 A 
ATOM     11  C   UNL     1      -0.324   3.207  -1.765  0.00  0.00    +0.007 A 
ATOM     12  C   UNL     1      -0.955   3.689  -2.896  0.00  0.00    +0.020 A 
ATOM     13  C   UNL     1      -1.981   2.965  -3.477  0.00  0.00    +0.041 A 
ATOM     14  C   UNL     1      -2.371   1.756  -2.928  0.00  0.00    +0.020 A 
ATOM     15  C   UNL     1      -1.736   1.273  -1.800  0.00  0.00    +0.007 A 
ATOM     16 CL   UNL     1      -2.780   3.573  -4.893  0.00  0.00    -0.084 Cl
ENDBRANCH   2  10
BRANCH   5  17
ATOM     17  C   UNL     1       3.587   0.574  -0.028  0.00  0.00    +0.159 C 
BRANCH  17  18
ATOM     18  C   UNL     1       4.082   0.545  -1.476  0.00  0.00    +0.248 C 
BRANCH  18  19
ATOM     19  O   UNL     1       3.787   1.793  -2.105  0.00  0.00    -0.490 OA
BRANCH  19  20
ATOM     20  C   UNL     1       4.164   1.934  -3.403  0.00  0.00    +0.121 A 
ATOM     21  C   UNL     1       4.810   0.894  -4.056  0.00  0.00    +0.047 A 
ATOM     22  C   UNL     1       5.188   1.037  -5.377  0.00  0.00    +0.023 A 
ATOM     23  C   UNL     1       4.933   2.221  -6.046  0.00  0.00    +0.041 A 
ATOM     24  C   UNL     1       4.293   3.261  -5.395  0.00  0.00    +0.023 A 
ATOM     25  C   UNL     1       3.909   3.120  -4.076  0.00  0.00    +0.047 A 
ATOM     26 CL   UNL     1       5.415   2.401  -7.704  0.00  0.00    -0.084 Cl
ENDBRANCH  19  20
ENDBRANCH  18  19
ENDBRANCH  17  18
ENDBRANCH   5  17
TORSDOF 5
