REMARK  Name = ZINC39533853
REMARK  10 active torsions:
REMARK  status: ('A' for Active; 'I' for Inactive)
REMARK    1  A    between atoms: C_1  and  C_2
REMARK    2  A    between atoms: C_2  and  O_3
REMARK    3  A    between atoms: O_3  and  C_4
REMARK    4  A    between atoms: N_7  and  C_11
REMARK    5  A    between atoms: C_11  and  C_13
REMARK    6  A    between atoms: C_11  and  C_17
REMARK    7  A    between atoms: C_13  and  N_14
REMARK    8  A    between atoms: N_14  and  S_15
REMARK    9  A    between atoms: S_15  and  C_16
REMARK   10  A    between atoms: C_20  and  C_23
REMARK                            x       y       z     vdW  Elec       q    Type
REMARK                         _______ _______ _______ _____ _____    ______ ____
ROOT
ATOM      1  C   UNL     1      -4.373  -4.201   0.355  0.00  0.00    -0.022 C 
ENDROOT
BRANCH   1   4
ATOM      2  C   UNL     1      -1.358  -1.972   0.189  0.00  0.00    +0.169 C 
ATOM      3  C   UNL     1      -2.834  -2.363   0.281  0.00  0.00    -0.030 C 
ATOM      4  N   UNL     1      -2.957  -3.826   0.248  0.00  0.00    +0.388 N 
ATOM      5  C   UNL     1      -2.410  -4.336  -1.017  0.00  0.00    -0.062 C 
ATOM      6  C   UNL     1      -0.930  -3.962  -1.120  0.00  0.00    +0.065 C 
ATOM      7  N   UNL     1      -0.791  -2.500  -1.061  0.00  0.00    -0.295 NA
ATOM      8  H   UNL     1      -1.219  -2.063  -1.864  0.00  0.00    +0.124 HD
ATOM      9  H   UNL     1      -2.444  -4.224   1.020  0.00  0.00    -0.081 HD
BRANCH   2  10
ATOM     10  O   UNL     1      -1.240  -0.548   0.202  0.00  0.00    -0.364 OA
BRANCH  10  12
ATOM     11  C   UNL     1       0.109   1.452   0.346  0.00  0.00    +0.034 C 
ATOM     12  C   UNL     1       0.102  -0.077   0.345  0.00  0.00    +0.158 C 
ENDBRANCH  10  12
ENDBRANCH   2  10
ENDBRANCH   1   4
BRANCH   1  13
ATOM     13  C   UNL     1      -4.943  -3.649   1.636  0.00  0.00    -0.060 A 
ATOM     14  C   UNL     1      -4.186  -3.671   2.793  0.00  0.00    +0.002 A 
ATOM     15  C   UNL     1      -4.703  -3.166   3.969  0.00  0.00    +0.009 A 
ATOM     16  C   UNL     1      -5.991  -2.634   3.989  0.00  0.00    -0.018 A 
ATOM     17  C   UNL     1      -6.749  -2.614   2.820  0.00  0.00    +0.009 A 
ATOM     18  C   UNL     1      -6.220  -3.116   1.649  0.00  0.00    +0.002 A 
BRANCH  16  19
ATOM     19  C   UNL     1      -6.553  -2.090   5.250  0.00  0.00    -0.018 A 
ATOM     20  C   UNL     1      -5.792  -2.105   6.418  0.00  0.00    +0.008 A 
ATOM     21  C   UNL     1      -6.319  -1.598   7.588  0.00  0.00    +0.001 A 
ATOM     22  C   UNL     1      -7.600  -1.076   7.604  0.00  0.00    +0.000 A 
ATOM     23  C   UNL     1      -8.360  -1.059   6.448  0.00  0.00    +0.001 A 
ATOM     24  C   UNL     1      -7.840  -1.558   5.270  0.00  0.00    +0.008 A 
ENDBRANCH  16  19
ENDBRANCH   1  13
BRANCH   1  25
ATOM     25  C   UNL     1      -4.498  -5.726   0.357  0.00  0.00    +0.082 C 
BRANCH  25  26
ATOM     26  N   UNL     1      -5.918  -6.101   0.388  0.00  0.00    -0.265 NA
ATOM     27  H   UNL     1      -6.465  -5.495  -0.205  0.00  0.00    +0.135 HD
BRANCH  26  28
ATOM     28  S   UNL     1      -6.136  -7.793  -0.065  0.00  0.00    -0.084 S 
ATOM     29  C   UNL     1      -7.929  -8.047   0.035  0.00  0.00    +0.102 C 
ENDBRANCH  26  28
ENDBRANCH  25  26
ENDBRANCH   1  25
TORSDOF 8
