REMARK  Name = ZINC00831409
REMARK  9 active torsions:
REMARK  status: ('A' for Active; 'I' for Inactive)
REMARK    1  A    between atoms: C_1  and  C_2
REMARK    2  A    between atoms: C_5  and  N_8
REMARK    3  A    between atoms: C_9  and  C_11
REMARK    4  A    between atoms: C_11  and  C_13
REMARK    5  A    between atoms: C_11  and  N_24
REMARK    6  A    between atoms: C_13  and  C_14
REMARK    7  A    between atoms: C_25  and  C_27
REMARK    8  A    between atoms: C_27  and  C_28
REMARK    9  A    between atoms: C_27  and  C_34
REMARK                            x       y       z     vdW  Elec       q    Type
REMARK                         _______ _______ _______ _____ _____    ______ ____
ROOT
ATOM      1  C   UNL     1       1.857   1.114  -0.729  0.00  0.00    +0.163 C 
ENDROOT
BRANCH   1   3
ATOM      2  N   UNL     1       4.196   0.379  -0.401  0.00  0.00    -0.284 N 
ATOM      3  C   UNL     1       2.890   0.049  -0.468  0.00  0.00    +0.238 C 
ATOM      4  O   UNL     1       2.548  -1.104  -0.318  0.00  0.00    -0.273 OA
ATOM      5  H   UNL     1       4.477   1.287  -0.596  0.00  0.00    +0.155 HD
BRANCH   2  10
ATOM      6  C   UNL     1       8.044  -3.541   1.016  0.00  0.00    +0.044 C 
ATOM      7  C   UNL     1       7.022  -2.500   0.639  0.00  0.00    -0.050 A 
ATOM      8  C   UNL     1       7.353  -1.500  -0.256  0.00  0.00    +0.005 A 
ATOM      9  C   UNL     1       6.419  -0.544  -0.603  0.00  0.00    +0.023 A 
ATOM     10  C   UNL     1       5.145  -0.588  -0.052  0.00  0.00    +0.033 A 
ATOM     11  C   UNL     1       4.816  -1.591   0.851  0.00  0.00    +0.023 A 
ATOM     12  C   UNL     1       5.754  -2.547   1.190  0.00  0.00    +0.005 A 
ENDBRANCH   2  10
ENDBRANCH   1   3
BRANCH   1  13
ATOM     13  N   UNL     1       0.524   0.506  -0.754  0.00  0.00    -0.303 N 
ATOM     14  C   UNL     1      -0.563   1.252  -0.473  0.00  0.00    +0.225 C 
ATOM     15  O   UNL     1      -0.437   2.426  -0.196  0.00  0.00    -0.275 OA
ATOM     16  H   UNL     1       0.424  -0.433  -0.976  0.00  0.00    +0.149 HD
BRANCH  14  17
ATOM     17  C   UNL     1      -1.934   0.627  -0.505  0.00  0.00    +0.135 C 
BRANCH  17  18
ATOM     18  C   UNL     1      -1.996  -0.498   0.495  0.00  0.00    -0.031 A 
ATOM     19  C   UNL     1      -1.580  -0.290   1.797  0.00  0.00    +0.005 A 
ATOM     20  C   UNL     1      -1.643  -1.320   2.716  0.00  0.00    +0.000 A 
ATOM     21  C   UNL     1      -2.111  -2.562   2.330  0.00  0.00    +0.000 A 
ATOM     22  C   UNL     1      -2.522  -2.772   1.027  0.00  0.00    +0.000 A 
ATOM     23  C   UNL     1      -2.465  -1.740   0.110  0.00  0.00    +0.005 A 
ENDBRANCH  17  18
BRANCH  17  24
ATOM     24  C   UNL     1      -2.967   1.667  -0.157  0.00  0.00    -0.031 A 
ATOM     25  C   UNL     1      -2.844   2.402   1.007  0.00  0.00    +0.005 A 
ATOM     26  C   UNL     1      -3.789   3.359   1.324  0.00  0.00    +0.000 A 
ATOM     27  C   UNL     1      -4.864   3.575   0.482  0.00  0.00    +0.000 A 
ATOM     28  C   UNL     1      -4.991   2.836  -0.680  0.00  0.00    +0.000 A 
ATOM     29  C   UNL     1      -4.042   1.883  -1.000  0.00  0.00    +0.005 A 
ENDBRANCH  17  24
ENDBRANCH  14  17
ENDBRANCH   1  13
BRANCH   1  30
ATOM     30  C   UNL     1       2.139   1.780  -2.078  0.00  0.00    +0.069 C 
BRANCH  30  31
ATOM     31  C   UNL     1       1.181   2.925  -2.283  0.00  0.00    -0.020 A 
ATOM     32  C   UNL     1       0.017   2.882  -2.950  0.00  0.00    +0.087 A 
ATOM     33  N   UNL     1      -0.579   4.114  -2.926  0.00  0.00    -0.360 N 
ATOM     34  H   UNL     1      -1.429   4.330  -3.342  0.00  0.00    +0.165 HD
ATOM     35  C   UNL     1       0.207   5.001  -2.226  0.00  0.00    +0.047 A 
ATOM     36  C   UNL     1       1.342   4.294  -1.788  0.00  0.00    +0.003 A 
ATOM     37  C   UNL     1       2.322   4.947  -1.038  0.00  0.00    +0.010 A 
ATOM     38  C   UNL     1       2.174   6.270  -0.732  0.00  0.00    +0.001 A 
ATOM     39  C   UNL     1       1.055   6.971  -1.160  0.00  0.00    +0.002 A 
ATOM     40  C   UNL     1       0.078   6.349  -1.906  0.00  0.00    +0.026 A 
ENDBRANCH  30  31
ENDBRANCH   1  30
TORSDOF 8
