REMARK  Name = ZINC33267915
REMARK  6 active torsions:
REMARK  status: ('A' for Active; 'I' for Inactive)
REMARK    1  A    between atoms: C_1  and  C_2
REMARK    2  A    between atoms: C_5  and  C_8
REMARK    3  A    between atoms: C_10  and  C_34
REMARK    4  A    between atoms: C_11  and  N_33
REMARK    5  A    between atoms: N_18  and  C_25
REMARK    6  A    between atoms: C_25  and  C_26
REMARK                            x       y       z     vdW  Elec       q    Type
REMARK                         _______ _______ _______ _____ _____    ______ ____
ROOT
ATOM      1  C   UNL     1      -3.406   2.853   4.418  0.00  0.00    +0.118 C 
ATOM      2  C   UNL     1      -4.122   4.160   4.215  0.00  0.00    +0.099 C 
ATOM      3  C   UNL     1      -5.475   4.211   4.237  0.00  0.00    +0.199 C 
ATOM      4  O   UNL     1      -6.209   3.104   4.435  0.00  0.00    -0.439 OA
ATOM      5  C   UNL     1      -5.655   2.009   5.020  0.00  0.00    +0.162 C 
ATOM      6  C   UNL     1      -4.336   1.847   5.038  0.00  0.00    +0.141 C 
ATOM      7  S   UNL     1      -3.663   0.406   5.814  0.00  0.00    +0.076 S 
ATOM      8  O   UNL     1      -3.627  -0.618   4.830  0.00  0.00    -0.150 OA
ATOM      9  O   UNL     1      -2.511   0.822   6.535  0.00  0.00    -0.150 OA
ATOM     10  N   UNL     1      -4.807  -0.039   6.939  0.00  0.00    -0.198 N 
ATOM     11  C   UNL     1      -6.149   0.054   6.551  0.00  0.00    +0.062 A 
ATOM     12  C   UNL     1      -6.570   1.014   5.630  0.00  0.00    +0.042 A 
ATOM     13  C   UNL     1      -7.919   1.051   5.256  0.00  0.00    +0.013 A 
ATOM     14  C   UNL     1      -8.814   0.154   5.796  0.00  0.00    +0.001 A 
ATOM     15  C   UNL     1      -8.391  -0.791   6.715  0.00  0.00    +0.002 A 
ATOM     16  C   UNL     1      -7.063  -0.841   7.093  0.00  0.00    +0.025 A 
ENDROOT
BRANCH   1  21
ATOM     17  C   UNL     1      -1.559   0.865  -0.684  0.00  0.00    +0.044 C 
ATOM     18  C   UNL     1      -2.041   1.383   0.647  0.00  0.00    -0.050 A 
ATOM     19  C   UNL     1      -3.391   1.590   0.860  0.00  0.00    +0.003 A 
ATOM     20  C   UNL     1      -3.833   2.061   2.083  0.00  0.00    +0.005 A 
ATOM     21  C   UNL     1      -2.924   2.335   3.087  0.00  0.00    -0.033 A 
ATOM     22  C   UNL     1      -1.574   2.133   2.872  0.00  0.00    +0.005 A 
ATOM     23  C   UNL     1      -1.132   1.657   1.652  0.00  0.00    +0.003 A 
ENDBRANCH   1  21
BRANCH   3  24
ATOM     24  N   UNL     1      -6.108   5.415   4.053  0.00  0.00    -0.328 N 
ATOM     25  H   UNL     1      -7.207   5.467   4.070  0.00  0.00    +0.145 HD
ATOM     26  H   UNL     1      -5.517   6.328   3.890  0.00  0.00    +0.145 HD
ENDBRANCH   3  24
BRANCH   2  27
ATOM     27  C   UNL     1      -3.370   5.359   3.996  0.00  0.00    +0.101 C 
ATOM     28  N   UNL     1      -2.774   6.311   3.823  0.00  0.00    -0.191 NA
ENDBRANCH   2  27
BRANCH  10  29
ATOM     29  C   UNL     1      -4.427  -0.506   8.275  0.00  0.00    +0.166 C 
BRANCH  29  30
ATOM     30  C   UNL     1      -4.502   0.641   9.249  0.00  0.00    -0.028 A 
ATOM     31  C   UNL     1      -3.365   1.365   9.554  0.00  0.00    +0.006 A 
ATOM     32  C   UNL     1      -3.434   2.421  10.443  0.00  0.00    +0.020 A 
ATOM     33  C   UNL     1      -4.641   2.746  11.037  0.00  0.00    +0.041 A 
ATOM     34  C   UNL     1      -5.778   2.018  10.736  0.00  0.00    +0.020 A 
ATOM     35  C   UNL     1      -5.708   0.966   9.842  0.00  0.00    +0.006 A 
ATOM     36 CL   UNL     1      -4.728   4.068  12.158  0.00  0.00    -0.084 Cl
ENDBRANCH  29  30
ENDBRANCH  10  29
TORSDOF 5
