REMARK  Name = ZINC34091754
REMARK  13 active torsions:
REMARK  status: ('A' for Active; 'I' for Inactive)
REMARK    1  A    between atoms: C_1  and  C_2
REMARK    2  A    between atoms: C_2  and  N_3
REMARK    3  A    between atoms: N_3  and  C_4
REMARK    4  A    between atoms: N_3  and  C_6
REMARK    5  A    between atoms: C_4  and  C_5
REMARK    6  A    between atoms: C_6  and  C_7
REMARK    7  A    between atoms: C_7  and  C_8
REMARK    8  A    between atoms: C_8  and  C_9
REMARK    9  A    between atoms: C_9  and  C_11
REMARK   10  A    between atoms: C_9  and  N_12
REMARK   11  A    between atoms: C_16  and  N_32
REMARK   12  A    between atoms: C_21  and  C_23
REMARK   13  A    between atoms: C_24  and  C_25
REMARK                            x       y       z     vdW  Elec       q    Type
REMARK                         _______ _______ _______ _____ _____    ______ ____
ROOT
ATOM      1  N   UNL     1       1.586  -3.981  -5.144  0.00  0.00    -0.326 N 
ATOM      2  C   UNL     1       2.379  -3.819  -6.260  0.00  0.00    +0.131 A 
ATOM      3  C   UNL     1       1.841  -3.296  -7.464  0.00  0.00    +0.042 A 
ATOM      4  C   UNL     1       0.497  -2.924  -7.574  0.00  0.00    +0.046 A 
ATOM      5  C   UNL     1       0.032  -2.426  -8.756  0.00  0.00    +0.127 A 
ATOM      6  C   UNL     1       0.876  -2.283  -9.854  0.00  0.00    +0.035 A 
ATOM      7  C   UNL     1       2.191  -2.637  -9.780  0.00  0.00    +0.031 A 
ATOM      8  C   UNL     1       2.702  -3.152  -8.579  0.00  0.00    +0.077 A 
ATOM      9  N   UNL     1       3.986  -3.513  -8.455  0.00  0.00    -0.228 NA
ATOM     10  C   UNL     1       4.438  -3.996  -7.309  0.00  0.00    +0.155 A 
ATOM     11  N   UNL     1       3.662  -4.143  -6.233  0.00  0.00    -0.213 NA
ATOM     12  H   UNL     1       0.647  -3.740  -5.176  0.00  0.00    +0.148 HD
ENDROOT
BRANCH   5  13
ATOM     13  N   UNL     1      -1.390  -2.032  -8.873  0.00  0.00    +0.056 N 
ATOM     14  O   UNL     1      -2.130  -2.153  -7.925  0.00  0.00    -0.126 OA
ATOM     15  O   UNL     1      -1.811  -1.590  -9.917  0.00  0.00    -0.126 OA
ENDBRANCH   5  13
BRANCH   1  16
ATOM     16  C   UNL     1       2.162  -4.517  -3.908  0.00  0.00    +0.069 C 
ATOM     17  C   UNL     1       2.147  -6.046  -3.960  0.00  0.00    +0.028 C 
BRANCH  16  18
ATOM     18  C   UNL     1       1.336  -4.039  -2.711  0.00  0.00    +0.020 C 
BRANCH  18  19
ATOM     19  C   UNL     1       1.453  -2.519  -2.586  0.00  0.00    -0.017 C 
BRANCH  19  20
ATOM     20  C   UNL     1       0.628  -2.041  -1.389  0.00  0.00    -0.079 C 
BRANCH  20  21
ATOM     21  N   UNL     1       0.827  -0.598  -1.203  0.00  0.00    +0.379 N 
ATOM     22  H   UNL     1       1.813  -0.402  -1.119  0.00  0.00    -0.082 HD
BRANCH  21  24
ATOM     23  C   UNL     1       0.597   1.616  -2.224  0.00  0.00    -0.017 C 
ATOM     24  C   UNL     1       0.280   0.126  -2.359  0.00  0.00    -0.082 C 
ENDBRANCH  21  24
BRANCH  21  25
ATOM     25  C   UNL     1       0.136  -0.162   0.018  0.00  0.00    -0.082 C 
ATOM     26  C   UNL     1       0.810  -0.793   1.238  0.00  0.00    -0.017 C 
ENDBRANCH  21  25
ENDBRANCH  20  21
ENDBRANCH  19  20
ENDBRANCH  18  19
ENDBRANCH  16  18
ENDBRANCH   1  16
BRANCH  10  27
ATOM     27  C   UNL     1       5.856  -4.381  -7.215  0.00  0.00    +0.049 C 
ATOM     28  C   UNL     1       6.663  -4.239  -8.280  0.00  0.00    +0.013 C 
BRANCH  28  29
ATOM     29  C   UNL     1       8.081  -4.625  -8.186  0.00  0.00    -0.007 A 
ATOM     30  C   UNL     1       8.590  -5.143  -6.992  0.00  0.00    +0.009 A 
ATOM     31  C   UNL     1       9.919  -5.502  -6.911  0.00  0.00    +0.001 A 
ATOM     32  C   UNL     1      10.750  -5.349  -8.008  0.00  0.00    +0.001 A 
ATOM     33  C   UNL     1      10.254  -4.836  -9.194  0.00  0.00    +0.020 A 
ATOM     34  C   UNL     1       8.924  -4.479  -9.293  0.00  0.00    +0.048 A 
ATOM     35 CL   UNL     1       8.302  -3.843 -10.783  0.00  0.00    -0.083 Cl
ENDBRANCH  28  29
ENDBRANCH  10  27
TORSDOF 10
