REMARK  Name = ZINC17640237
REMARK  14 active torsions:
REMARK  status: ('A' for Active; 'I' for Inactive)
REMARK    1  A    between atoms: C_1  and  C_2
REMARK    2  A    between atoms: C_6  and  O_9
REMARK    3  A    between atoms: C_7  and  C_8
REMARK    4  A    between atoms: O_9  and  C_10
REMARK    5  A    between atoms: C_10  and  C_12
REMARK    6  A    between atoms: C_10  and  C_13
REMARK    7  A    between atoms: N_15  and  N_16
REMARK    8  A    between atoms: C_17  and  C_19
REMARK    9  A    between atoms: C_19  and  C_21
REMARK   10  A    between atoms: C_19  and  S_22
REMARK   11  A    between atoms: S_22  and  C_23
REMARK   12  A    between atoms: C_23  and  C_24
REMARK   13  A    between atoms: C_30  and  C_36
REMARK   14  A    between atoms: C_31  and  C_35
REMARK                            x       y       z     vdW  Elec       q    Type
REMARK                         _______ _______ _______ _____ _____    ______ ____
ROOT
ATOM      1  N   UNL     1      -2.452   1.691  -2.916  0.00  0.00    -0.233 N 
ATOM      2  C   UNL     1      -3.677   1.269  -3.289  0.00  0.00    +0.242 C 
ATOM      3  O   UNL     1      -4.247   0.416  -2.643  0.00  0.00    -0.273 OA
ATOM      4  H   UNL     1      -1.996   2.373  -3.433  0.00  0.00    +0.173 HD
ENDROOT
BRANCH   1   7
ATOM      5  C   UNL     1      -0.614   1.565  -1.409  0.00  0.00    +0.270 C 
ATOM      6  O   UNL     1      -0.043   2.418  -2.055  0.00  0.00    -0.270 OA
ATOM      7  N   UNL     1      -1.838   1.143  -1.782  0.00  0.00    -0.231 N 
ATOM      8  H   UNL     1      -2.295   0.461  -1.265  0.00  0.00    +0.173 HD
BRANCH   5   9
ATOM      9  C   UNL     1       0.047   0.976  -0.189  0.00  0.00    +0.257 C 
ATOM     10  C   UNL     1      -0.826   1.239   1.040  0.00  0.00    +0.062 C 
BRANCH   9  11
ATOM     11  O   UNL     1       1.328   1.580  -0.002  0.00  0.00    -0.480 OA
BRANCH  11  17
ATOM     12  C   UNL     1       5.904   1.122   1.633  0.00  0.00    +0.044 C 
ATOM     13  C   UNL     1       4.495   0.603   1.498  0.00  0.00    -0.044 A 
ATOM     14  C   UNL     1       4.147  -0.608   2.067  0.00  0.00    +0.004 A 
ATOM     15  C   UNL     1       2.856  -1.087   1.944  0.00  0.00    +0.004 A 
ATOM     16  C   UNL     1       1.909  -0.352   1.257  0.00  0.00    +0.046 A 
ATOM     17  C   UNL     1       2.257   0.860   0.680  0.00  0.00    +0.125 A 
ATOM     18  C   UNL     1       3.553   1.338   0.804  0.00  0.00    -0.006 A 
ATOM     19  C   UNL     1       3.933   2.657   0.183  0.00  0.00    +0.048 C 
ENDBRANCH  11  17
ENDBRANCH   9  11
ENDBRANCH   5   9
ENDBRANCH   1   7
BRANCH   2  20
ATOM     20  C   UNL     1      -4.337   1.858  -4.509  0.00  0.00    +0.131 C 
ATOM     21  C   UNL     1      -3.861   1.112  -5.757  0.00  0.00    +0.029 C 
BRANCH  20  22
ATOM     22  S   UNL     1      -6.138   1.698  -4.359  0.00  0.00    -0.141 S 
BRANCH  22  23
ATOM     23  C   UNL     1      -6.779   2.577  -5.810  0.00  0.00    +0.144 C 
BRANCH  23  24
ATOM     24  C   UNL     1      -8.285   2.519  -5.808  0.00  0.00    +0.121 A 
ATOM     25  N   UNL     1      -8.977   3.123  -6.808  0.00  0.00    -0.310 N 
ATOM     26  H   UNL     1      -8.493   3.583  -7.511  0.00  0.00    +0.170 HD
ATOM     27  C   UNL     1     -10.322   3.090  -6.847  0.00  0.00    +0.260 A 
ATOM     28  O   UNL     1     -10.929   3.632  -7.754  0.00  0.00    -0.267 OA
ATOM     29  C   UNL     1     -11.030   2.413  -5.801  0.00  0.00    +0.075 A 
ATOM     30  C   UNL     1     -12.460   2.244  -5.616  0.00  0.00    -0.026 A 
ATOM     31  C   UNL     1     -12.907   1.563  -4.549  0.00  0.00    -0.008 A 
ATOM     32  S   UNL     1     -11.410   1.092  -3.703  0.00  0.00    -0.073 S 
ATOM     33  C   UNL     1     -10.229   1.823  -4.807  0.00  0.00    +0.116 A 
ATOM     34  N   UNL     1      -8.901   1.894  -4.840  0.00  0.00    -0.226 NA
ATOM     35  C   UNL     1     -14.332   1.268  -4.159  0.00  0.00    +0.052 C 
ATOM     36  C   UNL     1     -13.431   2.827  -6.610  0.00  0.00    +0.045 C 
ENDBRANCH  23  24
ENDBRANCH  22  23
ENDBRANCH  20  22
ENDBRANCH   2  20
TORSDOF 8
