REMARK  Name = ZINC36596830
REMARK  14 active torsions:
REMARK  status: ('A' for Active; 'I' for Inactive)
REMARK    1  A    between atoms: C_1  and  C_2
REMARK    2  A    between atoms: C_2  and  C_3
REMARK    3  A    between atoms: C_3  and  C_4
REMARK    4  A    between atoms: C_4  and  N_5
REMARK    5  A    between atoms: C_6  and  C_8
REMARK    6  A    between atoms: C_8  and  C_10
REMARK    7  A    between atoms: C_8  and  N_23
REMARK    8  A    between atoms: C_10  and  C_11
REMARK    9  A    between atoms: C_10  and  C_17
REMARK   10  A    between atoms: N_23  and  C_24
REMARK   11  A    between atoms: C_24  and  C_25
REMARK   12  A    between atoms: C_28  and  C_30
REMARK   13  A    between atoms: C_31  and  C_33
REMARK   14  A    between atoms: C_34  and  C_35
REMARK                            x       y       z     vdW  Elec       q    Type
REMARK                         _______ _______ _______ _____ _____    ______ ____
ROOT
ATOM      1  C   UNL     1       2.082  -5.052   3.774  0.00  0.00    +0.175 C 
ENDROOT
BRANCH   1   3
ATOM      2  N   UNL     1       0.797  -3.663   2.180  0.00  0.00    -0.314 N 
ATOM      3  C   UNL     1       1.472  -4.806   2.418  0.00  0.00    +0.235 C 
ATOM      4  O   UNL     1       1.588  -5.635   1.541  0.00  0.00    -0.274 OA
ATOM      5  H   UNL     1       0.704  -3.000   2.882  0.00  0.00    +0.149 HD
BRANCH   2   6
ATOM      6  C   UNL     1       0.204  -3.424   0.862  0.00  0.00    +0.104 C 
BRANCH   6   7
ATOM      7  C   UNL     1      -0.499  -2.065   0.859  0.00  0.00    +0.018 C 
BRANCH   7   9
ATOM      8  C   UNL     1      -1.822  -0.457  -0.521  0.00  0.00    +0.004 C 
ATOM      9  C   UNL     1      -1.119  -1.815  -0.518  0.00  0.00    -0.002 C 
ENDBRANCH   7   9
ENDBRANCH   6   7
ENDBRANCH   2   6
ENDBRANCH   1   3
BRANCH   1  10
ATOM     10  N   UNL     1       2.755  -6.353   3.777  0.00  0.00    -0.271 N 
ATOM     11  C   UNL     1       3.758  -6.595   2.910  0.00  0.00    +0.292 C 
ATOM     12  O   UNL     1       4.105  -5.732   2.125  0.00  0.00    -0.260 OA
BRANCH  11  13
ATOM     13  C   UNL     1       4.417  -7.867   2.914  0.00  0.00    -0.003 C 
ATOM     14  C   UNL     1       4.957  -8.909   2.916  0.00  0.00    -0.057 C 
BRANCH  14  15
ATOM     15  C   UNL     1       5.615 -10.181   2.920  0.00  0.00    +0.025 A 
ATOM     16  C   UNL     1       5.216 -11.176   3.817  0.00  0.00    +0.017 A 
ATOM     17  C   UNL     1       5.854 -12.398   3.814  0.00  0.00    +0.001 A 
ATOM     18  C   UNL     1       6.888 -12.641   2.926  0.00  0.00    +0.000 A 
ATOM     19  C   UNL     1       7.289 -11.661   2.035  0.00  0.00    +0.001 A 
ATOM     20  C   UNL     1       6.656 -10.435   2.022  0.00  0.00    +0.017 A 
ENDBRANCH  14  15
ENDBRANCH  11  13
BRANCH  10  21
ATOM     21  C   UNL     1       2.338  -7.391   4.723  0.00  0.00    +0.183 C 
BRANCH  21  22
ATOM     22  C   UNL     1       1.168  -8.150   4.153  0.00  0.00    +0.122 A 
ATOM     23  C   UNL     1       1.238  -9.305   3.467  0.00  0.00    +0.046 A 
ATOM     24  C   UNL     1      -0.087  -9.659   3.124  0.00  0.00    +0.045 A 
ATOM     25  C   UNL     1      -0.888  -8.699   3.620  0.00  0.00    +0.102 A 
ATOM     26  O   UNL     1      -0.122  -7.790   4.247  0.00  0.00    -0.463 OA
ATOM     27  C   UNL     1      -2.389  -8.653   3.498  0.00  0.00    +0.086 C 
ENDBRANCH  21  22
ENDBRANCH  10  21
ENDBRANCH   1  10
BRANCH   1  28
ATOM     28  C   UNL     1       3.098  -3.951   4.084  0.00  0.00    +0.078 C 
BRANCH  28  29
ATOM     29  C   UNL     1       2.379  -2.637   4.250  0.00  0.00    -0.038 A 
ATOM     30  C   UNL     1       1.338  -2.527   5.152  0.00  0.00    +0.004 A 
ATOM     31  C   UNL     1       0.679  -1.321   5.304  0.00  0.00    +0.000 A 
ATOM     32  C   UNL     1       1.062  -0.225   4.554  0.00  0.00    +0.000 A 
ATOM     33  C   UNL     1       2.103  -0.335   3.652  0.00  0.00    +0.000 A 
ATOM     34  C   UNL     1       2.765  -1.539   3.503  0.00  0.00    +0.004 A 
ENDBRANCH  28  29
BRANCH  28  35
ATOM     35  C   UNL     1       3.830  -4.287   5.357  0.00  0.00    -0.038 A 
ATOM     36  C   UNL     1       5.212  -4.288   5.380  0.00  0.00    +0.004 A 
ATOM     37  C   UNL     1       5.884  -4.596   6.548  0.00  0.00    +0.000 A 
ATOM     38  C   UNL     1       5.174  -4.903   7.694  0.00  0.00    +0.000 A 
ATOM     39  C   UNL     1       3.792  -4.902   7.671  0.00  0.00    +0.000 A 
ATOM     40  C   UNL     1       3.120  -4.589   6.504  0.00  0.00    +0.004 A 
ENDBRANCH  28  35
ENDBRANCH   1  28
TORSDOF 12
