REMARK  Name = ZINC04076682
REMARK  6 active torsions:
REMARK  status: ('A' for Active; 'I' for Inactive)
REMARK    1  A    between atoms: C_1  and  C_2
REMARK    2  A    between atoms: N_14  and  N_15
REMARK    3  A    between atoms: C_16  and  C_17
REMARK    4  A    between atoms: C_18  and  C_19
REMARK    5  A    between atoms: C_27  and  C_34
REMARK    6  A    between atoms: C_30  and  O_33
REMARK                            x       y       z     vdW  Elec       q    Type
REMARK                         _______ _______ _______ _____ _____    ______ ____
ROOT
ATOM      1  C   UNL     1       2.007   0.640  -1.933  0.00  0.00    +0.018 C 
ATOM      2  C   UNL     1       2.208   0.767  -0.424  0.00  0.00    +0.011 C 
ATOM      3  C   UNL     1       3.665   0.619  -0.072  0.00  0.00    +0.013 C 
ATOM      4  C   UNL     1       4.096  -0.850  -0.261  0.00  0.00    +0.005 C 
ATOM      5  C   UNL     1       3.256  -1.772   0.601  0.00  0.00    +0.003 C 
ATOM      6  C   UNL     1       1.759  -1.651   0.257  0.00  0.00    +0.001 C 
ATOM      7  C   UNL     1       1.357  -0.217   0.400  0.00  0.00    +0.005 C 
ATOM      8  C   UNL     1      -0.061   0.203  -0.007  0.00  0.00    +0.010 C 
ATOM      9  C   UNL     1       0.058   1.756  -0.017  0.00  0.00    +0.053 C 
ATOM     10  C   UNL     1       1.551   2.077  -0.022  0.00  0.00    +0.047 C 
ATOM     11  N   UNL     1       2.135   3.193   0.248  0.00  0.00    -0.158 NA
ATOM     12  C   UNL     1       1.524  -2.252  -1.124  0.00  0.00    +0.031 C 
ATOM     13  C   UNL     1       1.947  -3.700  -1.080  0.00  0.00    -0.027 C 
ATOM     14  C   UNL     1       2.909  -4.110  -0.313  0.00  0.00    -0.065 C 
ATOM     15  C   UNL     1       3.688  -3.221   0.620  0.00  0.00    -0.008 C 
ATOM     16  C   UNL     1       3.534  -3.786   2.041  0.00  0.00    +0.014 C 
ATOM     17  C   UNL     1       2.672  -5.044   2.015  0.00  0.00    +0.032 C 
ATOM     18  C   UNL     1       3.257  -6.106   1.089  0.00  0.00    +0.119 C 
ATOM     19  C   UNL     1       3.292  -5.580  -0.351  0.00  0.00    +0.062 C 
ATOM     20  C   UNL     1       5.169  -3.333   0.251  0.00  0.00    +0.016 C 
ENDROOT
BRANCH  11  21
ATOM     21  N   UNL     1       1.433   4.225   0.575  0.00  0.00    -0.158 NA
ATOM     22  C   UNL     1       2.028   5.363   0.851  0.00  0.00    +0.135 C 
BRANCH  22  23
ATOM     23  C   UNL     1       1.263   6.488   1.208  0.00  0.00    +0.025 C 
ATOM     24  C   UNL     1       1.879   7.666   1.492  0.00  0.00    +0.048 C 
BRANCH  24  25
ATOM     25  C   UNL     1       1.109   8.798   1.851  0.00  0.00    +0.128 A 
ATOM     26  C   UNL     1       1.600  10.049   2.164  0.00  0.00    +0.049 A 
ATOM     27  C   UNL     1       0.486  10.854   2.454  0.00  0.00    +0.042 A 
ATOM     28  C   UNL     1      -0.613  10.082   2.310  0.00  0.00    +0.195 A 
ATOM     29  O   UNL     1      -0.236   8.848   1.943  0.00  0.00    -0.464 OA
ENDBRANCH  24  25
ENDBRANCH  22  23
ENDBRANCH  11  21
BRANCH  18  30
ATOM     30  O   UNL     1       4.582  -6.437   1.512  0.00  0.00    -0.391 OA
ATOM     31  H   UNL     1       5.013  -7.108   0.965  0.00  0.00    +0.210 HD
ENDBRANCH  18  30
TORSDOF 4
