REMARK  Name = ZINC21231247
REMARK  9 active torsions:
REMARK  status: ('A' for Active; 'I' for Inactive)
REMARK    1  A    between atoms: C_1  and  C_2
REMARK    2  A    between atoms: C_2  and  C_3
REMARK    3  A    between atoms: C_3  and  O_4
REMARK    4  A    between atoms: O_4  and  C_5
REMARK    5  A    between atoms: C_8  and  C_11
REMARK    6  A    between atoms: C_16  and  C_26
REMARK    7  A    between atoms: C_29  and  O_34
REMARK    8  A    between atoms: C_30  and  O_32
REMARK    9  A    between atoms: O_32  and  C_33
REMARK                            x       y       z     vdW  Elec       q    Type
REMARK                         _______ _______ _______ _____ _____    ______ ____
ROOT
ATOM      1  C   UNL     1       5.188   7.623  -0.157  0.00  0.00    +0.032 C 
ATOM      2  C   UNL     1       5.039   6.956  -1.523  0.00  0.00    +0.059 C 
ATOM      3  C   UNL     1       5.291   5.462  -1.399  0.00  0.00    +0.017 C 
ATOM      4  C   UNL     1       4.948   4.807  -0.278  0.00  0.00    +0.036 C 
ATOM      5  C   UNL     1       5.107   3.325  -0.034  0.00  0.00    +0.136 C 
ATOM      6  N   UNL     1       5.919   2.639  -1.017  0.00  0.00    -0.331 N 
ATOM      7  C   UNL     1       5.514   2.548  -2.348  0.00  0.00    +0.049 A 
ATOM      8  C   UNL     1       5.205   1.328  -2.928  0.00  0.00    +0.025 A 
ATOM      9  C   UNL     1       4.765   1.291  -4.239  0.00  0.00    +0.002 A 
ATOM     10  C   UNL     1       4.631   2.460  -4.966  0.00  0.00    +0.002 A 
ATOM     11  C   UNL     1       4.954   3.679  -4.394  0.00  0.00    +0.025 A 
ATOM     12  C   UNL     1       5.415   3.715  -3.090  0.00  0.00    +0.052 A 
ATOM     13  N   UNL     1       5.857   4.890  -2.492  0.00  0.00    -0.316 N 
ATOM     14  C   UNL     1       4.386   5.508   0.815  0.00  0.00    +0.163 C 
ATOM     15  O   UNL     1       4.073   4.886   1.811  0.00  0.00    -0.292 OA
ATOM     16  C   UNL     1       4.160   6.989   0.787  0.00  0.00    +0.088 C 
ATOM     17  H   UNL     1       6.873   2.180  -0.719  0.00  0.00    +0.147 HD
ATOM     18  H   UNL     1       6.731   5.359  -2.968  0.00  0.00    +0.152 HD
ENDROOT
BRANCH   1  22
ATOM     19  C   UNL     1       4.446  11.817  -0.507  0.00  0.00    +0.121 A 
ATOM     20  C   UNL     1       5.676  11.365  -0.052  0.00  0.00    +0.046 A 
ATOM     21  C   UNL     1       5.913  10.009   0.060  0.00  0.00    +0.007 A 
ATOM     22  C   UNL     1       4.926   9.102  -0.281  0.00  0.00    -0.043 A 
ATOM     23  C   UNL     1       3.701   9.550  -0.740  0.00  0.00    +0.007 A 
ATOM     24  C   UNL     1       3.457  10.906  -0.848  0.00  0.00    +0.046 A 
BRANCH  19  25
ATOM     25  O   UNL     1       4.209  13.151  -0.618  0.00  0.00    -0.492 OA
BRANCH  25  26
ATOM     26  C   UNL     1       2.920  13.544  -1.093  0.00  0.00    +0.229 C 
BRANCH  26  28
ATOM     27  C   UNL     1       1.461  15.492  -1.659  0.00  0.00    +0.007 C 
ATOM     28  C   UNL     1       2.841  15.071  -1.150  0.00  0.00    +0.038 C 
ENDBRANCH  26  28
ENDBRANCH  25  26
ENDBRANCH  19  25
ENDBRANCH   1  22
BRANCH   5  29
ATOM     29  C   UNL     1       3.738   2.693  -0.020  0.00  0.00    -0.019 A 
ATOM     30  C   UNL     1       2.975   2.677  -1.173  0.00  0.00    +0.009 A 
ATOM     31  C   UNL     1       1.719   2.099  -1.165  0.00  0.00    +0.049 A 
ATOM     32  C   UNL     1       1.223   1.534  -0.001  0.00  0.00    +0.158 A 
ATOM     33  C   UNL     1       1.989   1.556   1.160  0.00  0.00    +0.162 A 
ATOM     34  C   UNL     1       3.249   2.132   1.145  0.00  0.00    +0.055 A 
BRANCH  33  35
ATOM     35  O   UNL     1       1.504   1.008   2.306  0.00  0.00    -0.491 OA
ATOM     36  C   UNL     1       2.346   1.066   3.460  0.00  0.00    +0.277 C 
ENDBRANCH  33  35
BRANCH  32  37
ATOM     37  O   UNL     1      -0.012   0.965   0.007  0.00  0.00    -0.503 OA
ATOM     38  H   UNL     1      -0.405   0.517   0.932  0.00  0.00    +0.292 HD
ENDBRANCH  32  37
ENDBRANCH   5  29
TORSDOF 7
