REMARK  Name = ZINC09672193
REMARK  9 active torsions:
REMARK  status: ('A' for Active; 'I' for Inactive)
REMARK    1  A    between atoms: C_1  and  C_2
REMARK    2  A    between atoms: C_6  and  N_9
REMARK    3  A    between atoms: C_7  and  C_8
REMARK    4  A    between atoms: C_13  and  S_14
REMARK    5  A    between atoms: S_14  and  C_15
REMARK    6  A    between atoms: C_15  and  C_16
REMARK    7  A    between atoms: N_18  and  C_19
REMARK    8  A    between atoms: C_23  and  S_25
REMARK    9  A    between atoms: S_25  and  N_28
REMARK                            x       y       z     vdW  Elec       q    Type
REMARK                         _______ _______ _______ _____ _____    ______ ____
ROOT
ATOM      1  C   UNL     1       4.888   2.026   4.676  0.00  0.00    +0.227 C 
ATOM      2  O   UNL     1       3.951   2.613   5.175  0.00  0.00    -0.275 OA
ATOM      3  N   UNL     1       6.059   1.942   5.338  0.00  0.00    -0.285 N 
ATOM      4  H   UNL     1       6.783   1.408   4.976  0.00  0.00    +0.155 HD
ENDROOT
BRANCH   3   5
ATOM      5  C   UNL     1       6.230   2.624   6.547  0.00  0.00    +0.035 A 
ATOM      6  C   UNL     1       5.604   3.847   6.751  0.00  0.00    +0.023 A 
ATOM      7  C   UNL     1       5.770   4.516   7.948  0.00  0.00    +0.004 A 
ATOM      8  C   UNL     1       6.568   3.974   8.939  0.00  0.00    +0.029 A 
ATOM      9  C   UNL     1       7.197   2.760   8.737  0.00  0.00    +0.110 A 
ATOM     10  C   UNL     1       7.031   2.083   7.544  0.00  0.00    +0.052 A 
BRANCH   9  11
ATOM     11  S   UNL     1       8.213   2.074  10.003  0.00  0.00    +0.073 S 
ATOM     12  O   UNL     1       7.770   2.638  11.230  0.00  0.00    -0.150 OA
ATOM     13  O   UNL     1       8.251   0.671   9.779  0.00  0.00    -0.150 OA
BRANCH  11  14
ATOM     14  N   UNL     1       9.752   2.634   9.754  0.00  0.00    -0.205 N 
ATOM     15  C   UNL     1      10.022   3.972   9.877  0.00  0.00    +0.088 C 
ATOM     16  C   UNL     1       9.728   6.213  10.243  0.00  0.00    +0.114 C 
ATOM     17  C   UNL     1      11.085   6.103   9.510  0.00  0.00    +0.028 C 
ATOM     18  C   UNL     1      11.387   4.592   9.678  0.00  0.00    +0.072 C 
ATOM     19  H   UNL     1      10.461   2.016   9.521  0.00  0.00    +0.175 HD
ATOM     20  N   UNL     1       9.130   4.862  10.185  0.00  0.00    -0.375 N 
ATOM     21  H   UNL     1       8.141   4.657  10.365  0.00  0.00    +0.161 HD
ENDBRANCH  11  14
ENDBRANCH   9  11
ENDBRANCH   3   5
BRANCH   1  22
ATOM     22  C   UNL     1       4.742   1.389   3.318  0.00  0.00    +0.173 C 
BRANCH  22  23
ATOM     23  S   UNL     1       3.067   1.673   2.695  0.00  0.00    -0.078 S 
BRANCH  23  28
ATOM     24  N   UNL     1       2.171   0.742   0.224  0.00  0.00    -0.294 N 
ATOM     25  C   UNL     1       2.672   0.018  -0.837  0.00  0.00    +0.113 A 
ATOM     26  C   UNL     1       3.948  -0.280  -0.538  0.00  0.00    +0.131 A 
ATOM     27  N   UNL     1       4.232   0.231   0.671  0.00  0.00    -0.230 NA
ATOM     28  C   UNL     1       3.174   0.848   1.142  0.00  0.00    +0.174 A 
BRANCH  24  34
ATOM     29  C   UNL     1      -0.811   4.641   0.545  0.00  0.00    +0.044 C 
ATOM     30  C   UNL     1      -0.598   3.149   0.497  0.00  0.00    -0.046 A 
ATOM     31  C   UNL     1      -1.683   2.294   0.567  0.00  0.00    +0.004 A 
ATOM     32  C   UNL     1      -1.492   0.926   0.517  0.00  0.00    +0.002 A 
ATOM     33  C   UNL     1      -0.216   0.408   0.409  0.00  0.00    +0.026 A 
ATOM     34  C   UNL     1       0.875   1.264   0.340  0.00  0.00    +0.052 A 
ATOM     35  C   UNL     1       0.679   2.638   0.384  0.00  0.00    -0.024 A 
ATOM     36  C   UNL     1       1.861   3.570   0.308  0.00  0.00    +0.046 C 
ENDBRANCH  24  34
ENDBRANCH  23  28
ENDBRANCH  22  23
ENDBRANCH   1  22
TORSDOF 7
