REMARK  Name = ZINC20858047
REMARK  10 active torsions:
REMARK  status: ('A' for Active; 'I' for Inactive)
REMARK    1  A    between atoms: C_1  and  C_2
REMARK    2  A    between atoms: C_2  and  C_3
REMARK    3  A    between atoms: C_2  and  C_4
REMARK    4  A    between atoms: C_7  and  S_10
REMARK    5  A    between atoms: S_10  and  C_13
REMARK    6  A    between atoms: C_13  and  C_14
REMARK    7  A    between atoms: C_15  and  C_29
REMARK    8  A    between atoms: C_16  and  C_22
REMARK    9  A    between atoms: C_29  and  O_31
REMARK   10  A    between atoms: O_31  and  C_32
REMARK                            x       y       z     vdW  Elec       q    Type
REMARK                         _______ _______ _______ _____ _____    ______ ____
ROOT
ATOM      1  C   UNL     1      -1.863   2.180   1.209  0.00  0.00    +0.045 C 
ATOM      2  C   UNL     1      -0.725   1.462   1.314  0.00  0.00    +0.080 C 
ATOM      3  C   UNL     1       0.043   1.167   0.041  0.00  0.00    +0.144 C 
ATOM      4  N   UNL     1      -0.519   1.692  -1.214  0.00  0.00    -0.288 N 
ATOM      5  C   UNL     1      -1.669   2.394  -1.158  0.00  0.00    +0.304 C 
ATOM      6  O   UNL     1      -2.141   2.832  -2.188  0.00  0.00    -0.252 OA
ATOM      7  N   UNL     1      -2.306   2.625  -0.003  0.00  0.00    -0.271 N 
ATOM      8  H   UNL     1      -0.003   1.508  -2.168  0.00  0.00    +0.151 HD
ATOM      9  H   UNL     1      -3.236   3.209  -0.068  0.00  0.00    +0.156 HD
ENDROOT
BRANCH   3  10
ATOM     10  C   UNL     1       1.433   1.728   0.198  0.00  0.00    -0.022 A 
ATOM     11  C   UNL     1       1.675   3.062  -0.074  0.00  0.00    +0.007 A 
ATOM     12  C   UNL     1       2.948   3.579   0.074  0.00  0.00    +0.020 A 
ATOM     13  C   UNL     1       3.983   2.758   0.485  0.00  0.00    +0.041 A 
ATOM     14  C   UNL     1       3.742   1.422   0.752  0.00  0.00    +0.020 A 
ATOM     15  C   UNL     1       2.468   0.908   0.608  0.00  0.00    +0.007 A 
ATOM     16 CL   UNL     1       5.585   3.405   0.665  0.00  0.00    -0.084 Cl
ENDBRANCH   3  10
BRANCH   2  17
ATOM     17  C   UNL     1      -0.266   1.000   2.569  0.00  0.00    +0.339 C 
ATOM     18  O   UNL     1      -0.453  -0.157   2.898  0.00  0.00    -0.245 OA
BRANCH  17  19
ATOM     19  O   UNL     1       0.380   1.842   3.403  0.00  0.00    -0.465 OA
ATOM     20  C   UNL     1       0.817   1.308   4.654  0.00  0.00    +0.280 C 
ENDBRANCH  17  19
ENDBRANCH   2  17
BRANCH   1  21
ATOM     21  C   UNL     1      -2.658   2.496   2.450  0.00  0.00    +0.223 C 
BRANCH  21  22
ATOM     22  S   UNL     1      -2.418   4.238   2.894  0.00  0.00    +0.002 S 
ATOM     23  O   UNL     1      -1.079   4.456   3.316  0.00  0.00    -0.169 OA
ATOM     24  O   UNL     1      -3.017   5.079   1.917  0.00  0.00    -0.169 OA
BRANCH  22  28
ATOM     25  C   UNL     1      -4.914   4.842   6.622  0.00  0.00    -0.045 A 
ATOM     26  C   UNL     1      -3.594   4.448   6.731  0.00  0.00    +0.006 A 
ATOM     27  C   UNL     1      -2.831   4.264   5.593  0.00  0.00    +0.027 A 
ATOM     28  C   UNL     1      -3.390   4.473   4.345  0.00  0.00    +0.089 A 
ATOM     29  C   UNL     1      -4.709   4.873   4.237  0.00  0.00    +0.027 A 
ATOM     30  C   UNL     1      -5.472   5.053   5.375  0.00  0.00    +0.006 A 
BRANCH  25  32
ATOM     31  C   UNL     1      -6.239   6.490   7.919  0.00  0.00    +0.012 C 
ATOM     32  C   UNL     1      -5.745   5.043   7.863  0.00  0.00    +0.013 C 
ATOM     33  C   UNL     1      -6.946   4.095   7.831  0.00  0.00    +0.012 C 
ENDBRANCH  25  32
ENDBRANCH  22  28
ENDBRANCH  21  22
ENDBRANCH   1  21
TORSDOF 7
