REMARK  Name = ZINC13058826
REMARK  11 active torsions:
REMARK  status: ('A' for Active; 'I' for Inactive)
REMARK    1  A    between atoms: C_1  and  C_2
REMARK    2  A    between atoms: C_5  and  N_8
REMARK    3  A    between atoms: N_8  and  C_9
REMARK    4  A    between atoms: C_9  and  N_11
REMARK    5  A    between atoms: N_11  and  N_12
REMARK    6  A    between atoms: C_13  and  C_14
REMARK    7  A    between atoms: C_13  and  C_15
REMARK    8  A    between atoms: C_18  and  S_21
REMARK    9  A    between atoms: S_21  and  N_24
REMARK   10  A    between atoms: N_24  and  C_25
REMARK   11  A    between atoms: C_28  and  C_31
REMARK                            x       y       z     vdW  Elec       q    Type
REMARK                         _______ _______ _______ _____ _____    ______ ____
ROOT
ATOM      1  C   UNL     1       0.674   3.974   0.261  0.00  0.00    -0.002 A 
ATOM      2  C   UNL     1       1.950   4.421  -0.091  0.00  0.00    +0.011 A 
ATOM      3  C   UNL     1       2.111   5.679  -0.633  0.00  0.00    +0.029 A 
ATOM      4  C   UNL     1       1.013   6.502  -0.818  0.00  0.00    +0.109 A 
ATOM      5  C   UNL     1      -0.252   6.067  -0.466  0.00  0.00    +0.029 A 
ATOM      6  C   UNL     1      -0.429   4.810   0.071  0.00  0.00    +0.011 A 
ENDROOT
BRANCH   1   8
ATOM      7  N   UNL     1      -0.692   2.217   1.165  0.00  0.00    -0.185 NA
ATOM      8  C   UNL     1       0.493   2.627   0.835  0.00  0.00    +0.063 C 
ATOM      9  C   UNL     1       1.686   1.728   1.038  0.00  0.00    +0.068 C 
BRANCH   7  10
ATOM     10  N   UNL     1      -0.864   0.938   1.711  0.00  0.00    -0.218 N 
ATOM     11  H   UNL     1      -0.097   0.359   1.841  0.00  0.00    +0.176 HD
BRANCH  10  12
ATOM     12  C   UNL     1      -2.096   0.511   2.054  0.00  0.00    +0.154 C 
ATOM     13  S   UNL     1      -2.305  -1.052   2.721  0.00  0.00    -0.017 S 
BRANCH  12  14
ATOM     14  N   UNL     1      -3.162   1.315   1.873  0.00  0.00    -0.296 N 
ATOM     15  H   UNL     1      -3.037   2.223   1.554  0.00  0.00    +0.154 HD
BRANCH  14  20
ATOM     16  C   UNL     1      -8.384  -0.607   2.975  0.00  0.00    +0.044 C 
ATOM     17  C   UNL     1      -6.997  -0.096   2.683  0.00  0.00    -0.050 A 
ATOM     18  C   UNL     1      -5.970  -0.338   3.576  0.00  0.00    +0.005 A 
ATOM     19  C   UNL     1      -4.697   0.129   3.311  0.00  0.00    +0.023 A 
ATOM     20  C   UNL     1      -4.449   0.841   2.144  0.00  0.00    +0.033 A 
ATOM     21  C   UNL     1      -5.484   1.087   1.252  0.00  0.00    +0.023 A 
ATOM     22  C   UNL     1      -6.754   0.613   1.520  0.00  0.00    +0.005 A 
ENDBRANCH  14  20
ENDBRANCH  12  14
ENDBRANCH  10  12
ENDBRANCH   7  10
ENDBRANCH   1   8
BRANCH   4  23
ATOM     23  S   UNL     1       1.229   8.111  -1.504  0.00  0.00    +0.072 S 
ATOM     24  O   UNL     1       2.365   8.040  -2.354  0.00  0.00    -0.150 OA
ATOM     25  O   UNL     1      -0.047   8.528  -1.970  0.00  0.00    -0.150 OA
BRANCH  23  26
ATOM     26  N   UNL     1       1.633   9.124  -0.258  0.00  0.00    -0.216 N 
ATOM     27  H   UNL     1       2.487   9.584  -0.264  0.00  0.00    +0.174 HD
BRANCH  26  28
ATOM     28  C   UNL     1       0.748   9.316   0.796  0.00  0.00    +0.048 A 
ATOM     29  C   UNL     1      -0.600   9.553   0.538  0.00  0.00    +0.025 A 
ATOM     30  C   UNL     1      -1.476   9.738   1.576  0.00  0.00    +0.017 A 
ATOM     31  C   UNL     1      -1.014   9.700   2.895  0.00  0.00    +0.063 A 
ATOM     32  C   UNL     1       0.341   9.467   3.151  0.00  0.00    +0.017 A 
ATOM     33  C   UNL     1       1.212   9.277   2.109  0.00  0.00    +0.025 A 
BRANCH  31  34
ATOM     34  C   UNL     1      -1.952   9.904   4.013  0.00  0.00    +0.387 C 
ATOM     35  O   UNL     1      -1.549   9.870   5.159  0.00  0.00    -0.241 OA
ATOM     36  O   UNL     1      -3.258  10.128   3.764  0.00  0.00    -0.241 OA
ENDBRANCH  31  34
ENDBRANCH  26  28
ENDBRANCH  23  26
ENDBRANCH   4  23
TORSDOF 9
