REMARK  Name = ZINC19320154
REMARK  8 active torsions:
REMARK  status: ('A' for Active; 'I' for Inactive)
REMARK    1  A    between atoms: C_1  and  C_2
REMARK    2  A    between atoms: C_2  and  C_3
REMARK    3  A    between atoms: C_3  and  C_4
REMARK    4  A    between atoms: C_5  and  O_26
REMARK    5  A    between atoms: C_6  and  C_23
REMARK    6  A    between atoms: C_10  and  C_14
REMARK    7  A    between atoms: C_23  and  C_24
REMARK    8  A    between atoms: C_24  and  C_25
REMARK                            x       y       z     vdW  Elec       q    Type
REMARK                         _______ _______ _______ _____ _____    ______ ____
ROOT
ATOM      1  C   UNL     1       0.763  -2.041   1.233  0.00  0.00    -0.005 C 
ATOM      2  C   UNL     1       1.498  -2.563   2.474  0.00  0.00    +0.126 C 
ATOM      3  C   UNL     1       1.498  -4.097   2.427  0.00  0.00    -0.005 C 
ATOM      4  C   UNL     1       0.046  -4.587   2.389  0.00  0.00    -0.065 C 
ATOM      5  N   UNL     1      -0.619  -4.064   1.191  0.00  0.00    +0.394 N 
ATOM      6  C   UNL     1      -0.669  -2.585   1.244  0.00  0.00    -0.065 C 
ATOM      7  C   UNL     1       0.080  -4.515  -0.016  0.00  0.00    +0.033 C 
ATOM      8  N   UNL     1       1.464  -4.020  -0.014  0.00  0.00    -0.310 NA
ATOM      9  C   UNL     1       2.202  -4.550   1.143  0.00  0.00    +0.090 C 
ATOM     10  C   UNL     1       1.474  -2.550  -0.027  0.00  0.00    +0.090 C 
ATOM     11  H   UNL     1      -1.563  -4.419   1.161  0.00  0.00    -0.079 HD
ENDROOT
BRANCH   7  12
ATOM     12  C   UNL     1       0.088  -6.021  -0.055  0.00  0.00    -0.044 A 
ATOM     13  C   UNL     1       1.135  -6.690  -0.663  0.00  0.00    +0.052 A 
ATOM     14  C   UNL     1       1.145  -8.075  -0.701  0.00  0.00    +0.166 A 
ATOM     15  C   UNL     1       0.098  -8.791  -0.125  0.00  0.00    +0.166 A 
ATOM     16  C   UNL     1      -0.948  -8.114   0.482  0.00  0.00    +0.050 A 
ATOM     17  C   UNL     1      -0.948  -6.732   0.521  0.00  0.00    +0.007 A 
ATOM     18  O   UNL     1       0.338 -10.124  -0.292  0.00  0.00    -0.453 OA
ATOM     19  C   UNL     1       1.331 -10.209  -1.331  0.00  0.00    +0.466 C 
ATOM     20  O   UNL     1       2.040  -8.959  -1.228  0.00  0.00    -0.453 OA
ENDBRANCH   7  12
BRANCH   2  21
ATOM     21  O   UNL     1       0.827  -2.118   3.655  0.00  0.00    -0.391 OA
ATOM     22  H   UNL     1       1.240  -2.413   4.477  0.00  0.00    +0.210 HD
ENDBRANCH   2  21
BRANCH   1  23
ATOM     23  C   UNL     1       0.742  -0.511   1.242  0.00  0.00    +0.008 C 
BRANCH  23  25
ATOM     24  C   UNL     1      -0.019   1.526   0.010  0.00  0.00    +0.004 C 
ATOM     25  C   UNL     1       0.002  -0.004   0.002  0.00  0.00    -0.003 C 
ENDBRANCH  23  25
ENDBRANCH   1  23
BRANCH   3  26
ATOM     26  C   UNL     1       2.224  -4.659   3.650  0.00  0.00    +0.008 C 
BRANCH  26  27
ATOM     27  C   UNL     1       2.216  -6.188   3.590  0.00  0.00    -0.003 C 
ATOM     28  C   UNL     1       2.943  -6.750   4.813  0.00  0.00    +0.004 C 
ENDBRANCH  26  27
ENDBRANCH   3  26
TORSDOF 6
