REMARK  Name = ZINC02323403
REMARK  4 active torsions:
REMARK  status: ('A' for Active; 'I' for Inactive)
REMARK    1  A    between atoms: C_1  and  C_2
REMARK    2  A    between atoms: C_5  and  N_9
REMARK    3  A    between atoms: C_13  and  C_14
REMARK    4  A    between atoms: C_17  and  C_19
REMARK                            x       y       z     vdW  Elec       q    Type
REMARK                         _______ _______ _______ _____ _____    ______ ____
ROOT
ATOM      1  N   UNL     1       3.603   2.132   0.148  0.00  0.00    -0.190 N 
ATOM      2  C   UNL     1       3.568   3.464  -0.060  0.00  0.00    +0.264 C 
ATOM      3  O   UNL     1       2.516   4.035  -0.281  0.00  0.00    -0.269 OA
ATOM      4  C   UNL     1       4.837   4.210  -0.011  0.00  0.00    +0.103 C 
ATOM      5  C   UNL     1       4.878   5.587  -0.217  0.00  0.00    +0.064 C 
ATOM      6  C   UNL     1       6.060   3.437   0.263  0.00  0.00    +0.257 C 
ATOM      7  O   UNL     1       7.145   3.985   0.319  0.00  0.00    -0.270 OA
ATOM      8  N   UNL     1       5.945   2.107   0.451  0.00  0.00    -0.235 N 
ATOM      9  C   UNL     1       4.755   1.492   0.398  0.00  0.00    +0.320 C 
ATOM     10  O   UNL     1       4.718   0.291   0.581  0.00  0.00    -0.251 OA
ATOM     11  H   UNL     1       6.741   1.583   0.633  0.00  0.00    +0.159 HD
ENDROOT
BRANCH   1  16
ATOM     12  C   UNL     1      -1.236  -0.829  -0.021  0.00  0.00    +0.045 C 
ATOM     13  C   UNL     1       0.049  -0.043   0.024  0.00  0.00    -0.032 A 
ATOM     14  C   UNL     1       0.859   0.020  -1.094  0.00  0.00    +0.006 A 
ATOM     15  C   UNL     1       2.038   0.739  -1.056  0.00  0.00    +0.024 A 
ATOM     16  C   UNL     1       2.409   1.401   0.107  0.00  0.00    +0.047 A 
ATOM     17  C   UNL     1       1.594   1.337   1.228  0.00  0.00    +0.044 A 
ATOM     18  C   UNL     1       0.415   0.616   1.185  0.00  0.00    +0.046 A 
ATOM     19 CL   UNL     1      -0.608   0.541   2.585  0.00  0.00    -0.083 Cl
ENDBRANCH   1  16
BRANCH   5  20
ATOM     20  C   UNL     1       6.112   6.242  -0.325  0.00  0.00    +0.129 A 
ATOM     21  C   UNL     1       6.429   7.480   0.223  0.00  0.00    +0.050 A 
ATOM     22  C   UNL     1       7.751   7.746  -0.123  0.00  0.00    +0.050 A 
ATOM     23  C   UNL     1       8.196   6.677  -0.874  0.00  0.00    +0.136 A 
ATOM     24  O   UNL     1       7.198   5.784  -0.985  0.00  0.00    -0.455 OA
BRANCH  23  25
ATOM     25  C   UNL     1       9.543   6.538  -1.459  0.00  0.00    +0.019 A 
ATOM     26  C   UNL     1       9.871   5.401  -2.203  0.00  0.00    +0.013 A 
ATOM     27  C   UNL     1      11.132   5.276  -2.747  0.00  0.00    +0.022 A 
ATOM     28  C   UNL     1      12.073   6.275  -2.558  0.00  0.00    +0.059 A 
ATOM     29  C   UNL     1      11.755   7.405  -1.822  0.00  0.00    +0.060 A 
ATOM     30  C   UNL     1      10.494   7.545  -1.276  0.00  0.00    +0.033 A 
ATOM     31 CL   UNL     1      12.941   8.651  -1.590  0.00  0.00    -0.082 Cl
ATOM     32 CL   UNL     1      13.658   6.110  -3.246  0.00  0.00    -0.082 Cl
ENDBRANCH  23  25
ENDBRANCH   5  20
TORSDOF 3
