REMARK  Name = ZINC13501094
REMARK  12 active torsions:
REMARK  status: ('A' for Active; 'I' for Inactive)
REMARK    1  A    between atoms: C_1  and  C_2
REMARK    2  A    between atoms: C_2  and  C_3
REMARK    3  A    between atoms: C_3  and  C_5
REMARK    4  A    between atoms: C_3  and  N_75
REMARK    5  A    between atoms: N_9  and  C_10
REMARK    6  A    between atoms: C_10  and  C_11
REMARK    7  A    between atoms: C_11  and  C_12
REMARK    8  A    between atoms: C_18  and  C_19
REMARK    9  A    between atoms: C_18  and  N_75
REMARK   10  A    between atoms: C_23  and  C_32
REMARK   11  A    between atoms: C_25  and  C_31
REMARK   12  A    between atoms: C_33  and  N_75
REMARK                            x       y       z     vdW  Elec       q    Type
REMARK                         _______ _______ _______ _____ _____    ______ ____
ROOT
ATOM      1  N   UNL     1      -1.780  -0.082   1.595  0.00  0.00    +0.391 N 
ATOM      2  H   UNL     1      -1.279  -0.273   2.471  0.00  0.00    -0.080 HD
ENDROOT
BRANCH   1   3
ATOM      3  C   UNL     1      -3.207  -0.422   1.774  0.00  0.00    -0.067 C 
ATOM      4  C   UNL     1      -3.916   0.728   2.491  0.00  0.00    -0.015 C 
ATOM      5  C   UNL     1      -5.388   0.368   2.703  0.00  0.00    -0.002 C 
ATOM      6  C   UNL     1      -5.485  -0.901   3.553  0.00  0.00    -0.000 C 
ATOM      7  C   UNL     1      -4.777  -2.051   2.835  0.00  0.00    -0.002 C 
ATOM      8  C   UNL     1      -3.305  -1.691   2.624  0.00  0.00    -0.015 C 
ENDBRANCH   1   3
BRANCH   1   9
ATOM      9  C   UNL     1      -1.640   1.352   1.266  0.00  0.00    +0.003 C 
BRANCH   9  10
ATOM     10  C   UNL     1      -0.228   1.782   1.570  0.00  0.00    +0.138 A 
ATOM     11  N   UNL     1       0.871   1.151   1.237  0.00  0.00    -0.115 NA
ATOM     12  N   UNL     1       1.871   1.834   1.676  0.00  0.00    -0.023 NA
ATOM     13  N   UNL     1       1.438   2.885   2.281  0.00  0.00    -0.044 NA
ATOM     14  N   UNL     1       0.149   2.891   2.233  0.00  0.00    -0.231 N 
BRANCH  14  15
ATOM     15  C   UNL     1      -0.738   3.912   2.796  0.00  0.00    +0.152 C 
BRANCH  15  16
ATOM     16  C   UNL     1      -1.093   3.540   4.237  0.00  0.00    +0.058 C 
BRANCH  16  17
ATOM     17  C   UNL     1      -2.006   4.590   4.817  0.00  0.00    -0.046 A 
ATOM     18  C   UNL     1      -1.472   5.679   5.480  0.00  0.00    +0.004 A 
ATOM     19  C   UNL     1      -2.309   6.645   6.007  0.00  0.00    +0.000 A 
ATOM     20  C   UNL     1      -3.679   6.516   5.880  0.00  0.00    +0.000 A 
ATOM     21  C   UNL     1      -4.213   5.425   5.222  0.00  0.00    +0.000 A 
ATOM     22  C   UNL     1      -3.376   4.461   4.690  0.00  0.00    +0.004 A 
ENDBRANCH  16  17
ENDBRANCH  15  16
ENDBRANCH  14  15
ENDBRANCH   9  10
BRANCH   9  24
ATOM     23  C   UNL     1      -3.405   1.265  -0.501  0.00  0.00    +0.002 C 
ATOM     24  C   UNL     1      -1.938   1.592  -0.216  0.00  0.00    -0.011 C 
ENDBRANCH   9  24
ENDBRANCH   1   9
BRANCH   1  25
ATOM     25  C   UNL     1      -1.195  -0.907   0.518  0.00  0.00    -0.036 C 
BRANCH  25  26
ATOM     26  C   UNL     1      -0.993  -2.308   1.036  0.00  0.00    +0.001 A 
ATOM     27  C   UNL     1      -1.731  -3.327   0.532  0.00  0.00    +0.017 A 
ATOM     28  C   UNL     1      -1.511  -4.676   1.057  0.00  0.00    -0.001 A 
ATOM     29  C   UNL     1      -2.242  -5.768   0.576  0.00  0.00    +0.013 A 
ATOM     30  C   UNL     1      -2.013  -7.014   1.087  0.00  0.00    -0.050 A 
ATOM     31  C   UNL     1      -1.061  -7.207   2.079  0.00  0.00    +0.008 A 
ATOM     32  C   UNL     1      -0.329  -6.146   2.568  0.00  0.00    -0.026 A 
ATOM     33  C   UNL     1      -0.546  -4.868   2.063  0.00  0.00    +0.052 A 
ATOM     34  N   UNL     1       0.172  -3.788   2.533  0.00  0.00    -0.322 N 
ATOM     35  H   UNL     1       0.838  -3.922   3.226  0.00  0.00    +0.169 HD
ATOM     36  C   UNL     1      -0.033  -2.554   2.041  0.00  0.00    +0.251 A 
ATOM     37  O   UNL     1       0.623  -1.624   2.477  0.00  0.00    -0.268 OA
ATOM     38  C   UNL     1       0.701  -6.370   3.645  0.00  0.00    +0.046 C 
ATOM     39  C   UNL     1      -2.800  -8.190   0.569  0.00  0.00    +0.044 C 
ENDBRANCH  25  26
ENDBRANCH   1  25
TORSDOF 9
