REMARK  Name = ZINC19791493
REMARK  6 active torsions:
REMARK  status: ('A' for Active; 'I' for Inactive)
REMARK    1  A    between atoms: C_1  and  C_2
REMARK    2  A    between atoms: C_2  and  C_4
REMARK    3  A    between atoms: C_2  and  N_7
REMARK    4  A    between atoms: C_4  and  O_5
REMARK    5  A    between atoms: O_5  and  C_6
REMARK    6  A    between atoms: C_12  and  C_16
REMARK                            x       y       z     vdW  Elec       q    Type
REMARK                         _______ _______ _______ _____ _____    ______ ____
ROOT
ATOM      1  N   UNL     1      -0.885   1.039   0.245  0.00  0.00    -0.293 NA
ATOM      2  C   UNL     1      -0.681  -0.403   0.048  0.00  0.00    +0.091 C 
ATOM      3  C   UNL     1      -0.422  -0.690  -1.438  0.00  0.00    +0.070 C 
ATOM      4  C   UNL     1       0.642   0.269  -1.915  0.00  0.00    +0.042 A 
ATOM      5  C   UNL     1       1.000   1.382  -1.227  0.00  0.00    +0.015 A 
ATOM      6  C   UNL     1       2.008   2.031  -1.951  0.00  0.00    +0.101 A 
ATOM      7  N   UNL     1       2.241   1.323  -3.040  0.00  0.00    -0.173 NA
ATOM      8  N   UNL     1       1.386   0.211  -3.030  0.00  0.00    -0.281 N 
ATOM      9  H   UNL     1       1.252  -0.621  -3.738  0.00  0.00    +0.189 HD
ATOM     10  C   UNL     1       0.372   1.788   0.083  0.00  0.00    +0.124 C 
ENDROOT
BRANCH   6  11
ATOM     11  C   UNL     1       2.693   3.289  -1.562  0.00  0.00    +0.048 A 
ATOM     12  C   UNL     1       3.159   3.458  -0.259  0.00  0.00    +0.014 A 
ATOM     13  C   UNL     1       3.795   4.628   0.100  0.00  0.00    +0.004 A 
ATOM     14  C   UNL     1       3.974   5.638  -0.829  0.00  0.00    +0.050 A 
ATOM     15  C   UNL     1       3.516   5.482  -2.128  0.00  0.00    +0.173 A 
ATOM     16  C   UNL     1       2.878   4.304  -2.502  0.00  0.00    +0.182 A 
ATOM     17  O   UNL     1       2.522   4.397  -3.815  0.00  0.00    -0.395 OA
ATOM     18  C   UNL     1       2.591   5.799  -4.136  0.00  0.00    +0.589 C 
ATOM     19  O   UNL     1       3.568   6.313  -3.210  0.00  0.00    -0.395 OA
ATOM     20  F   UNL     1       1.351   6.413  -3.931  0.00  0.00    -0.125 F 
ATOM     21  F   UNL     1       3.019   5.985  -5.455  0.00  0.00    -0.125 F 
ENDBRANCH   6  11
BRANCH   1  23
ATOM     22  C   UNL     1      -1.513   2.819   1.804  0.00  0.00    +0.026 C 
ATOM     23  C   UNL     1      -1.496   1.310   1.553  0.00  0.00    +0.080 C 
BRANCH  23  24
ATOM     24  C   UNL     1      -2.928   0.774   1.569  0.00  0.00    +0.178 C 
BRANCH  24  25
ATOM     25  O   UNL     1      -3.719   1.499   0.625  0.00  0.00    -0.381 OA
ATOM     26  C   UNL     1      -5.082   1.075   0.560  0.00  0.00    +0.194 C 
ENDBRANCH  24  25
ENDBRANCH  23  24
ENDBRANCH   1  23
TORSDOF 4
