REMARK  Name = ZINC11700154
REMARK  9 active torsions:
REMARK  status: ('A' for Active; 'I' for Inactive)
REMARK    1  A    between atoms: C_4  and  N_15
REMARK    2  A    between atoms: C_5  and  C_7
REMARK    3  A    between atoms: N_9  and  C_10
REMARK    4  A    between atoms: C_10  and  C_11
REMARK    5  A    between atoms: N_15  and  C_16
REMARK    6  A    between atoms: C_16  and  C_17
REMARK    7  A    between atoms: N_19  and  C_20
REMARK    8  A    between atoms: C_23  and  S_26
REMARK    9  A    between atoms: S_26  and  N_29
REMARK                            x       y       z     vdW  Elec       q    Type
REMARK                         _______ _______ _______ _____ _____    ______ ____
ROOT
ATOM      1  C   UNL     1      -4.708   5.107   0.725  0.00  0.00    +0.234 C 
ATOM      2  O   UNL     1      -3.577   5.545   0.757  0.00  0.00    -0.274 OA
ATOM      3  N   UNL     1      -5.759   5.950   0.769  0.00  0.00    -0.284 N 
ATOM      4  H   UNL     1      -6.661   5.598   0.820  0.00  0.00    +0.155 HD
ENDROOT
BRANCH   3   5
ATOM      5  C   UNL     1      -5.548   7.333   0.743  0.00  0.00    +0.034 A 
ATOM      6  C   UNL     1      -6.406   8.181   1.431  0.00  0.00    +0.025 A 
ATOM      7  C   UNL     1      -6.191   9.545   1.408  0.00  0.00    +0.030 A 
ATOM      8  C   UNL     1      -5.130  10.068   0.692  0.00  0.00    +0.106 A 
ATOM      9  C   UNL     1      -4.277   9.226   0.001  0.00  0.00    +0.030 A 
ATOM     10  C   UNL     1      -4.483   7.861   0.025  0.00  0.00    +0.025 A 
BRANCH   8  11
ATOM     11  S   UNL     1      -4.864  11.809   0.659  0.00  0.00    +0.061 S 
ATOM     12  O   UNL     1      -5.476  12.335   1.829  0.00  0.00    -0.153 OA
ATOM     13  O   UNL     1      -3.487  12.004   0.366  0.00  0.00    -0.153 OA
BRANCH  11  14
ATOM     14  N   UNL     1      -5.712  12.410  -0.630  0.00  0.00    -0.177 NA
ATOM     15  C   UNL     1      -5.084  12.519  -1.954  0.00  0.00    +0.109 C 
ATOM     16  C   UNL     1      -5.974  11.799  -2.978  0.00  0.00    +0.017 C 
ATOM     17  C   UNL     1      -7.391  12.373  -2.906  0.00  0.00    +0.003 C 
ATOM     18  C   UNL     1      -7.971  12.131  -1.511  0.00  0.00    +0.017 C 
ATOM     19  C   UNL     1      -7.105  12.850  -0.471  0.00  0.00    +0.109 C 
ENDBRANCH  11  14
ENDBRANCH   8  11
ENDBRANCH   3   5
BRANCH   1  20
ATOM     20  C   UNL     1      -4.938   3.620   0.636  0.00  0.00    +0.198 C 
BRANCH  20  21
ATOM     21  N   UNL     1      -3.647   2.928   0.602  0.00  0.00    -0.335 N 
ATOM     22  H   UNL     1      -2.822   3.437   0.636  0.00  0.00    +0.147 HD
BRANCH  21  26
ATOM     23  C   UNL     1      -3.522  -1.230   0.357  0.00  0.00    +0.001 A 
ATOM     24  C   UNL     1      -4.731  -0.560   0.258  0.00  0.00    +0.002 A 
ATOM     25  C   UNL     1      -4.776   0.817   0.339  0.00  0.00    +0.024 A 
ATOM     26  C   UNL     1      -3.605   1.542   0.520  0.00  0.00    +0.040 A 
ATOM     27  C   UNL     1      -2.379   0.867   0.622  0.00  0.00    +0.057 A 
ATOM     28  C   UNL     1      -2.350  -0.527   0.532  0.00  0.00    +0.015 A 
BRANCH  27  29
ATOM     29  C   UNL     1      -1.129   1.624   0.815  0.00  0.00    +0.246 C 
ATOM     30  O   UNL     1      -1.143   2.840   0.787  0.00  0.00    -0.270 OA
ATOM     31  N   UNL     1       0.031   0.969   1.022  0.00  0.00    -0.303 N 
ATOM     32  H   UNL     1       0.043  -0.001   1.044  0.00  0.00    +0.149 HD
BRANCH  31  33
ATOM     33  C   UNL     1       1.274   1.721   1.208  0.00  0.00    +0.217 C 
BRANCH  33  34
ATOM     34  C   UNL     1       2.434   0.746   1.416  0.00  0.00    +0.405 C 
ATOM     35  F   UNL     1       2.554  -0.083   0.295  0.00  0.00    -0.169 F 
ATOM     36  F   UNL     1       3.622   1.464   1.593  0.00  0.00    -0.169 F 
ATOM     37  F   UNL     1       2.188  -0.036   2.550  0.00  0.00    -0.169 F 
ENDBRANCH  33  34
ENDBRANCH  31  33
ENDBRANCH  27  29
ENDBRANCH  21  26
ENDBRANCH  20  21
ENDBRANCH   1  20
TORSDOF 9
