REMARK  Name = ZINC39941856
REMARK  9 active torsions:
REMARK  status: ('A' for Active; 'I' for Inactive)
REMARK    1  A    between atoms: C_1  and  C_2
REMARK    2  A    between atoms: C_2  and  O_4
REMARK    3  A    between atoms: O_4  and  C_5
REMARK    4  A    between atoms: C_11  and  C_34
REMARK    5  A    between atoms: C_13  and  O_30
REMARK    6  A    between atoms: C_22  and  O_29
REMARK    7  A    between atoms: C_23  and  C_28
REMARK    8  A    between atoms: O_30  and  C_31
REMARK    9  A    between atoms: C_31  and  C_33
REMARK                            x       y       z     vdW  Elec       q    Type
REMARK                         _______ _______ _______ _____ _____    ______ ____
ROOT
ATOM      1  C   UNL     1      -1.178  -1.598  -1.490  0.00  0.00    +0.183 C 
ATOM      2  C   UNL     1      -0.499  -1.866  -0.124  0.00  0.00    +0.045 C 
ATOM      3  C   UNL     1      -1.435  -2.836   0.648  0.00  0.00    +0.008 C 
ATOM      4  C   UNL     1      -2.801  -2.582   0.001  0.00  0.00    +0.003 C 
ATOM      5  C   UNL     1      -2.423  -2.479  -1.503  0.00  0.00    +0.011 C 
ATOM      6  C   UNL     1      -3.633  -1.930  -2.234  0.00  0.00    +0.055 C 
ATOM      7  C   UNL     1      -4.749  -2.980  -2.114  0.00  0.00    +0.181 C 
ATOM      8  C   UNL     1      -5.070  -3.299  -0.657  0.00  0.00    +0.043 C 
ATOM      9  C   UNL     1      -3.818  -3.700   0.150  0.00  0.00    +0.007 C 
ATOM     10  C   UNL     1      -4.181  -3.872   1.629  0.00  0.00    +0.081 C 
ATOM     11  C   UNL     1      -5.326  -4.853   1.739  0.00  0.00    +0.165 C 
ATOM     12  O   UNL     1      -5.262  -5.803   2.481  0.00  0.00    -0.294 OA
ATOM     13  C   UNL     1      -6.557  -4.609   0.890  0.00  0.00    +0.129 C 
ATOM     14  C   UNL     1      -6.094  -4.433  -0.600  0.00  0.00    +0.010 C 
ATOM     15  C   UNL     1      -7.293  -4.102  -1.486  0.00  0.00    +0.010 C 
ATOM     16  C   UNL     1      -7.984  -2.838  -0.971  0.00  0.00    +0.001 C 
ATOM     17  C   UNL     1      -8.458  -3.072   0.465  0.00  0.00    +0.003 C 
ATOM     18  C   UNL     1      -7.249  -3.336   1.384  0.00  0.00    +0.043 C 
ATOM     19  C   UNL     1      -5.450  -5.720  -1.119  0.00  0.00    +0.015 C 
ATOM     20  C   UNL     1      -2.071  -3.865  -2.046  0.00  0.00    +0.015 C 
ENDROOT
BRANCH  13  21
ATOM     21  O   UNL     1      -7.450  -5.720   0.994  0.00  0.00    -0.381 OA
ATOM     22  H   UNL     1      -7.759  -5.894   1.893  0.00  0.00    +0.211 HD
ENDBRANCH  13  21
BRANCH   1  23
ATOM     23  O   UNL     1      -1.545  -0.221  -1.599  0.00  0.00    -0.461 OA
BRANCH  23  25
ATOM     24  C   UNL     1      -0.974   2.068  -2.328  0.00  0.00    +0.136 C 
ATOM     25  C   UNL     1      -0.657   0.602  -2.178  0.00  0.00    +0.304 C 
ATOM     26  O   UNL     1       0.397   0.168  -2.579  0.00  0.00    -0.251 OA
ENDBRANCH  23  25
ENDBRANCH   1  23
BRANCH   7  27
ATOM     27  O   UNL     1      -4.333  -4.179  -2.771  0.00  0.00    -0.461 OA
BRANCH  27  28
ATOM     28  C   UNL     1      -4.636  -4.297  -4.073  0.00  0.00    +0.304 C 
ATOM     29  O   UNL     1      -5.234  -3.412  -4.637  0.00  0.00    -0.251 OA
ATOM     30  C   UNL     1      -4.230  -5.534  -4.832  0.00  0.00    +0.136 C 
ENDBRANCH  27  28
ENDBRANCH   7  27
TORSDOF 5
