REMARK  Name = ZINC04857759
REMARK  8 active torsions:
REMARK  status: ('A' for Active; 'I' for Inactive)
REMARK    1  A    between atoms: C_1  and  C_2
REMARK    2  A    between atoms: C_2  and  C_3
REMARK    3  A    between atoms: C_2  and  C_4
REMARK    4  A    between atoms: N_14  and  C_21
REMARK    5  A    between atoms: C_15  and  S_17
REMARK    6  A    between atoms: S_17  and  C_18
REMARK    7  A    between atoms: C_18  and  C_19
REMARK    8  A    between atoms: C_21  and  C_22
REMARK                            x       y       z     vdW  Elec       q    Type
REMARK                         _______ _______ _______ _____ _____    ______ ____
ROOT
ATOM      1  C   UNL     1       1.748  -4.530   0.398  0.00  0.00    +0.126 C 
ATOM      2  C   UNL     1       2.248  -3.150  -0.038  0.00  0.00    +0.068 C 
ATOM      3  C   UNL     1       1.060  -2.190  -0.021  0.00  0.00    -0.018 A 
ATOM      4  C   UNL     1      -0.196  -2.685  -0.013  0.00  0.00    +0.021 A 
ATOM      5  S   UNL     1      -1.250  -1.263   0.007  0.00  0.00    -0.071 S 
ATOM      6  C   UNL     1       0.002  -0.004   0.002  0.00  0.00    +0.117 A 
ATOM      7  C   UNL     1       1.203  -0.736  -0.013  0.00  0.00    +0.076 A 
ATOM      8  C   UNL     1       2.405   0.041  -0.020  0.00  0.00    +0.263 A 
ATOM      9  O   UNL     1       3.494  -0.506  -0.032  0.00  0.00    -0.267 OA
ATOM     10  N   UNL     1       2.317   1.384  -0.012  0.00  0.00    -0.283 N 
ATOM     11  C   UNL     1       1.106   2.014   0.002  0.00  0.00    +0.173 A 
ATOM     12  N   UNL     1      -0.016   1.323   0.009  0.00  0.00    -0.216 NA
ATOM     13  C   UNL     1      -0.578  -4.133  -0.020  0.00  0.00    +0.203 C 
ATOM     14  O   UNL     1       0.591  -4.896  -0.357  0.00  0.00    -0.371 OA
ENDROOT
BRANCH   1  16
ATOM     15  C   UNL     1       2.362  -6.942   0.619  0.00  0.00    +0.010 C 
ATOM     16  C   UNL     1       2.852  -5.564   0.168  0.00  0.00    +0.012 C 
ATOM     17  C   UNL     1       3.206  -5.611  -1.319  0.00  0.00    +0.010 C 
ENDBRANCH   1  16
BRANCH  11  18
ATOM     18  S   UNL     1       1.043   3.775   0.012  0.00  0.00    -0.083 S 
BRANCH  18  19
ATOM     19  C   UNL     1      -0.749   4.025   0.030  0.00  0.00    +0.104 C 
BRANCH  19  20
ATOM     20  C   UNL     1      -1.050   5.502   0.041  0.00  0.00    -0.023 C 
ATOM     21  C   UNL     1      -1.661   6.053  -0.978  0.00  0.00    +0.005 C 
ENDBRANCH  19  20
ENDBRANCH  18  19
ENDBRANCH  11  18
BRANCH  10  22
ATOM     22  C   UNL     1       3.544   2.184  -0.018  0.00  0.00    +0.154 C 
BRANCH  22  23
ATOM     23  C   UNL     1       3.951   2.466  -1.441  0.00  0.00    -0.013 C 
ATOM     24  C   UNL     1       4.137   3.701  -1.837  0.00  0.00    +0.005 C 
ENDBRANCH  22  23
ENDBRANCH  10  22
TORSDOF 6
