REMARK  Name = ZINC36297854
REMARK  6 active torsions:
REMARK  status: ('A' for Active; 'I' for Inactive)
REMARK    1  A    between atoms: C_6  and  S_7
REMARK    2  A    between atoms: S_7  and  N_10
REMARK    3  A    between atoms: N_10  and  C_11
REMARK    4  A    between atoms: C_11  and  C_12
REMARK    5  A    between atoms: C_12  and  C_13
REMARK    6  A    between atoms: C_13  and  N_14
REMARK                            x       y       z     vdW  Elec       q    Type
REMARK                         _______ _______ _______ _____ _____    ______ ____
ROOT
ATOM      1  S   UNL     1      -1.512  -0.906   0.012  0.00  0.00    +0.058 S 
ATOM      2  O   UNL     1      -1.218  -2.186   0.553  0.00  0.00    -0.153 OA
ATOM      3  O   UNL     1      -2.492  -0.046   0.578  0.00  0.00    -0.153 OA
ENDROOT
BRANCH   1   9
ATOM      4  C   UNL     1      -0.017   1.378   0.010  0.00  0.00    +0.029 A 
ATOM      5  C   UNL     1       1.171   2.086   0.002  0.00  0.00    +0.016 A 
ATOM      6  C   UNL     1       2.378   1.411  -0.013  0.00  0.00    +0.013 A 
ATOM      7  C   UNL     1       2.396   0.028  -0.021  0.00  0.00    +0.016 A 
ATOM      8  C   UNL     1       1.208  -0.679  -0.013  0.00  0.00    +0.029 A 
ATOM      9  C   UNL     1       0.002  -0.004   0.002  0.00  0.00    +0.105 A 
ATOM     10  I   UNL     1       4.178   2.482  -0.025  0.00  0.00    -0.044 I 
ENDBRANCH   1   9
BRANCH   1  11
ATOM     11  N   UNL     1      -1.948  -1.148  -1.567  0.00  0.00    -0.190 NA
ATOM     12  H   UNL     1      -2.756  -0.738  -1.915  0.00  0.00    +0.148 HD
BRANCH  11  13
ATOM     13  C   UNL     1      -1.115  -1.980  -2.438  0.00  0.00    +0.104 C 
BRANCH  13  14
ATOM     14  C   UNL     1      -1.902  -2.349  -3.696  0.00  0.00    -0.003 C 
BRANCH  14  15
ATOM     15  C   UNL     1      -1.031  -3.218  -4.606  0.00  0.00    -0.085 C 
BRANCH  15  16
ATOM     16  N   UNL     1      -1.788  -3.573  -5.815  0.00  0.00    +0.378 N 
ATOM     17  H   UNL     1      -2.617  -4.085  -5.554  0.00  0.00    -0.090 HD
ATOM     18  H   UNL     1      -2.051  -2.731  -6.305  0.00  0.00    -0.090 HD
ATOM     19  H   UNL     1      -1.213  -4.146  -6.415  0.00  0.00    -0.090 HD
ENDBRANCH  15  16
ENDBRANCH  14  15
ENDBRANCH  13  14
ENDBRANCH  11  13
ENDBRANCH   1  11
TORSDOF 6
