REMARK  Name = ZINC41572276
REMARK  3 active torsions:
REMARK  status: ('A' for Active; 'I' for Inactive)
REMARK    1  A    between atoms: C_1  and  N_2
REMARK    2  A    between atoms: N_10  and  S_11
REMARK    3  A    between atoms: S_11  and  C_14
REMARK                            x       y       z     vdW  Elec       q    Type
REMARK                         _______ _______ _______ _____ _____    ______ ____
ROOT
ATOM      1  C   UNL     1      -0.018   1.465   0.010  0.00  0.00    +0.105 C 
ATOM      2  N   UNL     1       0.002  -0.004   0.002  0.00  0.00    -0.300 NA
ATOM      3  C   UNL     1      -1.363  -0.550   0.029  0.00  0.00    +0.090 C 
ATOM      4  C   UNL     1      -1.342  -2.034  -0.341  0.00  0.00    +0.069 C 
ATOM      5  C   UNL     1      -0.319  -2.738   0.549  0.00  0.00    +0.030 A 
ATOM      6  C   UNL     1       0.611  -2.011   1.185  0.00  0.00    +0.026 A 
ATOM      7  S   UNL     1       1.559  -3.212   2.080  0.00  0.00    -0.052 S 
ATOM      8  C   UNL     1       0.654  -4.661   1.555  0.00  0.00    +0.192 A 
ATOM      9  N   UNL     1      -0.299  -4.101   0.737  0.00  0.00    -0.336 N 
ATOM     10  N   UNL     1       0.848  -5.919   1.866  0.00  0.00    -0.103 NA
ATOM     11  C   UNL     1       0.789  -0.528   1.134  0.00  0.00    +0.128 C 
ATOM     12  H   UNL     1      -0.954  -4.664   0.295  0.00  0.00    +0.168 HD
ENDROOT
BRANCH  10  13
ATOM     13  S   UNL     1       2.083  -6.340   2.886  0.00  0.00    +0.101 S 
ATOM     14  O   UNL     1       3.293  -6.036   2.206  0.00  0.00    -0.146 OA
ATOM     15  O   UNL     1       1.764  -5.790   4.157  0.00  0.00    -0.146 OA
BRANCH  13  16
ATOM     16  C   UNL     1       2.034  -8.092   3.069  0.00  0.00    +0.113 A 
ATOM     17  C   UNL     1       1.275  -8.660   4.075  0.00  0.00    +0.032 A 
ATOM     18  C   UNL     1       1.236 -10.034   4.219  0.00  0.00    +0.040 A 
ATOM     19  C   UNL     1       1.956 -10.841   3.355  0.00  0.00    +0.124 A 
ATOM     20  C   UNL     1       2.716 -10.271   2.348  0.00  0.00    +0.040 A 
ATOM     21  C   UNL     1       2.749  -8.897   2.203  0.00  0.00    +0.032 A 
ATOM     22  F   UNL     1       1.919 -12.184   3.495  0.00  0.00    -0.205 F 
ENDBRANCH  13  16
ENDBRANCH  10  13
TORSDOF 2
