REMARK  Name = ZINC66333360
REMARK  3 active torsions:
REMARK  status: ('A' for Active; 'I' for Inactive)
REMARK    1  A    between atoms: C_1  and  N_2
REMARK    2  A    between atoms: C_3  and  C_21
REMARK    3  A    between atoms: C_4  and  C_7
REMARK                            x       y       z     vdW  Elec       q    Type
REMARK                         _______ _______ _______ _____ _____    ______ ____
ROOT
ATOM      1  C   UNL     1       0.039  -3.294  -1.522  0.00  0.00    +0.253 C 
ATOM      2  O   UNL     1       0.031  -3.177  -2.732  0.00  0.00    -0.270 OA
ATOM      3  N   UNL     1       0.058  -4.521  -0.964  0.00  0.00    -0.261 N 
ATOM      4  C   UNL     1       0.069  -5.651  -1.772  0.00  0.00    +0.165 A 
ATOM      5  N   UNL     1       0.069  -5.720  -3.079  0.00  0.00    -0.229 NA
ATOM      6  C   UNL     1       0.078  -6.893  -3.732  0.00  0.00    +0.054 A 
ATOM      7  C   UNL     1       0.044  -7.980  -2.950  0.00  0.00    +0.014 A 
ATOM      8  S   UNL     1       0.093  -7.269  -1.312  0.00  0.00    -0.057 S 
ATOM      9  C   UNL     1      -0.084  -9.450  -3.224  0.00  0.00    +0.044 C 
ATOM     10  C   UNL     1      -0.220  -9.743  -4.721  0.00  0.00    +0.005 C 
ATOM     11  C   UNL     1       1.137  -9.689  -5.406  0.00  0.00    +0.000 C 
ATOM     12  C   UNL     1       2.028  -8.595  -4.852  0.00  0.00    +0.000 C 
ATOM     13  C   UNL     1       1.670  -7.295  -5.580  0.00  0.00    +0.006 C 
ATOM     14  C   UNL     1       0.223  -6.925  -5.244  0.00  0.00    +0.056 C 
ATOM     15  H   UNL     1       0.065  -4.615   0.001  0.00  0.00    +0.157 HD
ENDROOT
BRANCH   1  19
ATOM     16  C   UNL     1      -0.018   1.461   0.010  0.00  0.00    +0.173 C 
ATOM     17  N   UNL     1       0.002  -0.004   0.002  0.00  0.00    -0.265 N 
ATOM     18  C   UNL     1       0.008  -0.783  -1.092  0.00  0.00    +0.116 A 
ATOM     19  C   UNL     1       0.027  -2.095  -0.665  0.00  0.00    +0.083 A 
ATOM     20  C   UNL     1       0.034  -2.074   0.748  0.00  0.00    +0.148 A 
ATOM     21  N   UNL     1       0.025  -0.828   1.133  0.00  0.00    -0.179 NA
BRANCH  18  22
ATOM     22  C   UNL     1      -0.006  -0.310  -2.523  0.00  0.00    +0.390 C 
ATOM     23  F   UNL     1       0.636   0.929  -2.611  0.00  0.00    -0.202 F 
ATOM     24  F   UNL     1       0.662  -1.240  -3.327  0.00  0.00    -0.202 F 
ENDBRANCH  18  22
ENDBRANCH   1  19
TORSDOF 2
