REMARK  Name = ZINC34756555
REMARK  8 active torsions:
REMARK  status: ('A' for Active; 'I' for Inactive)
REMARK    1  A    between atoms: C_1  and  N_2
REMARK    2  A    between atoms: N_2  and  C_3
REMARK    3  A    between atoms: C_4  and  C_6
REMARK    4  A    between atoms: C_6  and  S_7
REMARK    5  A    between atoms: S_7  and  C_8
REMARK    6  A    between atoms: N_24  and  C_27
REMARK    7  A    between atoms: C_27  and  C_28
REMARK    8  A    between atoms: N_30  and  C_31
REMARK                            x       y       z     vdW  Elec       q    Type
REMARK                         _______ _______ _______ _____ _____    ______ ____
ROOT
ATOM      1  C   UNL     1      -1.988  -5.557   1.175  0.00  0.00    +0.191 A 
ATOM      2  N   UNL     1      -3.090  -6.297   1.135  0.00  0.00    -0.206 NA
ATOM      3  C   UNL     1      -3.644  -6.673  -0.005  0.00  0.00    +0.134 A 
ATOM      4  C   UNL     1      -3.045  -6.276  -1.233  0.00  0.00    +0.051 A 
ATOM      5  C   UNL     1      -3.477  -6.575  -2.601  0.00  0.00    -0.025 A 
ATOM      6  C   UNL     1      -2.727  -6.074  -3.602  0.00  0.00    -0.004 A 
ATOM      7  S   UNL     1      -1.417  -5.188  -2.801  0.00  0.00    -0.073 S 
ATOM      8  C   UNL     1      -1.880  -5.493  -1.116  0.00  0.00    +0.115 A 
ATOM      9  N   UNL     1      -1.391  -5.153   0.061  0.00  0.00    -0.214 NA
ATOM     10  C   UNL     1      -2.954  -6.236  -5.075  0.00  0.00    +0.043 C 
ATOM     11  C   UNL     1      -3.964  -7.372  -5.287  0.00  0.00    +0.005 C 
ATOM     12  C   UNL     1      -5.151  -7.157  -4.343  0.00  0.00    +0.005 C 
ATOM     13  C   UNL     1      -4.718  -7.412  -2.899  0.00  0.00    +0.037 C 
ATOM     14  N   UNL     1      -4.792  -7.444  -0.004  0.00  0.00    -0.318 N 
ATOM     15  C   UNL     1      -4.719  -8.909  -0.116  0.00  0.00    +0.088 C 
ATOM     16  C   UNL     1      -5.561  -9.525   1.006  0.00  0.00    -0.059 C 
ATOM     17  N   UNL     1      -6.923  -8.980   0.950  0.00  0.00    +0.387 N 
ATOM     18  C   UNL     1      -6.896  -7.537   1.222  0.00  0.00    -0.059 C 
ATOM     19  C   UNL     1      -6.120  -6.824   0.117  0.00  0.00    +0.088 C 
ATOM     20  H   UNL     1      -7.311  -9.140   0.032  0.00  0.00    -0.081 HD
ENDROOT
BRANCH   1  21
ATOM     21  S   UNL     1      -1.311  -5.096   2.735  0.00  0.00    -0.077 S 
BRANCH  21  22
ATOM     22  C   UNL     1       0.148  -4.108   2.305  0.00  0.00    +0.173 C 
BRANCH  22  26
ATOM     23  C   UNL     1       2.607  -2.438   4.719  0.00  0.00    +0.131 C 
ATOM     24  N   UNL     1       1.944  -2.889   3.492  0.00  0.00    -0.307 N 
ATOM     25  C   UNL     1       2.492  -2.519   2.185  0.00  0.00    +0.131 C 
ATOM     26  C   UNL     1       0.830  -3.644   3.567  0.00  0.00    +0.225 C 
ATOM     27  O   UNL     1       0.376  -3.950   4.649  0.00  0.00    -0.275 OA
ENDBRANCH  22  26
ENDBRANCH  21  22
ENDBRANCH   1  21
BRANCH  17  28
ATOM     28  C   UNL     1      -7.759  -9.651   1.954  0.00  0.00    +0.019 C 
BRANCH  28  29
ATOM     29  C   UNL     1      -9.185  -9.182   1.816  0.00  0.00    +0.197 C 
ATOM     30  O   UNL     1      -9.476  -8.368   0.965  0.00  0.00    -0.278 OA
ATOM     31  N   UNL     1     -10.136  -9.666   2.639  0.00  0.00    -0.314 N 
ATOM     32  H   UNL     1      -9.903 -10.316   3.320  0.00  0.00    +0.149 HD
BRANCH  31  33
ATOM     33  C   UNL     1     -11.522  -9.210   2.505  0.00  0.00    +0.073 C 
ATOM     34  C   UNL     1     -11.710  -7.911   3.291  0.00  0.00    +0.022 C 
ATOM     35  C   UNL     1     -13.157  -7.434   3.151  0.00  0.00    +0.002 C 
ATOM     36  C   UNL     1     -14.102  -8.505   3.701  0.00  0.00    +0.000 C 
ATOM     37  C   UNL     1     -13.914  -9.803   2.915  0.00  0.00    +0.002 C 
ATOM     38  C   UNL     1     -12.467 -10.280   3.055  0.00  0.00    +0.022 C 
ENDBRANCH  31  33
ENDBRANCH  28  29
ENDBRANCH  17  28
TORSDOF 6
