REMARK  Name = ZINC13940291
REMARK  11 active torsions:
REMARK  status: ('A' for Active; 'I' for Inactive)
REMARK    1  A    between atoms: C_1  and  C_2
REMARK    2  A    between atoms: C_4  and  C_36
REMARK    3  A    between atoms: C_6  and  O_8
REMARK    4  A    between atoms: O_8  and  C_9
REMARK    5  A    between atoms: C_9  and  C_10
REMARK    6  A    between atoms: C_10  and  O_11
REMARK    7  A    between atoms: O_11  and  C_12
REMARK    8  A    between atoms: C_15  and  N_33
REMARK    9  A    between atoms: C_17  and  C_18
REMARK   10  A    between atoms: N_22  and  C_26
REMARK   11  A    between atoms: C_26  and  C_27
REMARK                            x       y       z     vdW  Elec       q    Type
REMARK                         _______ _______ _______ _____ _____    ______ ____
ROOT
ATOM      1  C   UNL     1       4.108  -4.574  -6.450  0.00  0.00    +0.128 A 
ATOM      2  C   UNL     1       3.851  -5.114  -7.699  0.00  0.00    +0.048 A 
ATOM      3  C   UNL     1       2.548  -5.278  -8.129  0.00  0.00    +0.036 A 
ATOM      4  C   UNL     1       1.489  -4.911  -7.314  0.00  0.00    +0.127 A 
ATOM      5  C   UNL     1       1.724  -4.378  -6.066  0.00  0.00    +0.044 A 
ATOM      6  C   UNL     1       3.039  -4.205  -5.618  0.00  0.00    +0.020 A 
ENDROOT
BRANCH   6   7
ATOM      7  C   UNL     1       3.298  -3.638  -4.289  0.00  0.00    +0.032 C 
ATOM      8  C   UNL     1       2.313  -3.620  -3.355  0.00  0.00    +0.077 C 
ATOM      9  C   UNL     1       2.291  -2.981  -2.024  0.00  0.00    +0.259 C 
ATOM     10  O   UNL     1       3.242  -2.350  -1.601  0.00  0.00    -0.269 OA
ATOM     11  N   UNL     1       1.184  -3.128  -1.315  0.00  0.00    -0.251 N 
ATOM     12  C   UNL     1       0.134  -3.831  -1.785  0.00  0.00    +0.121 C 
ATOM     13  S   UNL     1      -1.368  -4.137  -1.023  0.00  0.00    -0.027 S 
ATOM     14  S   UNL     1       0.689  -4.364  -3.397  0.00  0.00    -0.061 S 
BRANCH  11  15
ATOM     15  C   UNL     1       1.099  -2.518   0.015  0.00  0.00    +0.150 C 
BRANCH  15  16
ATOM     16  C   UNL     1       0.542  -1.123  -0.108  0.00  0.00    -0.030 A 
ATOM     17  C   UNL     1      -0.823  -0.914  -0.036  0.00  0.00    +0.005 A 
ATOM     18  C   UNL     1      -1.333   0.365  -0.147  0.00  0.00    +0.000 A 
ATOM     19  C   UNL     1      -0.479   1.437  -0.330  0.00  0.00    +0.000 A 
ATOM     20  C   UNL     1       0.885   1.228  -0.402  0.00  0.00    +0.000 A 
ATOM     21  C   UNL     1       1.396  -0.051  -0.290  0.00  0.00    +0.005 A 
ENDBRANCH  15  16
ENDBRANCH  11  15
ENDBRANCH   6   7
BRANCH   4  22
ATOM     22  N   UNL     1       0.098  -5.093  -7.787  0.00  0.00    +0.056 N 
ATOM     23  O   UNL     1      -0.835  -4.772  -7.073  0.00  0.00    -0.126 OA
ATOM     24  O   UNL     1      -0.113  -5.565  -8.890  0.00  0.00    -0.126 OA
ENDBRANCH   4  22
BRANCH   1  25
ATOM     25  O   UNL     1       5.388  -4.407  -6.030  0.00  0.00    -0.488 OA
BRANCH  25  26
ATOM     26  C   UNL     1       6.424  -4.804  -6.931  0.00  0.00    +0.270 C 
BRANCH  26  27
ATOM     27  C   UNL     1       7.787  -4.542  -6.288  0.00  0.00    +0.270 C 
BRANCH  27  28
ATOM     28  O   UNL     1       7.942  -5.379  -5.141  0.00  0.00    -0.489 OA
BRANCH  28  34
ATOM     29  C   UNL     1      12.323  -3.293  -4.617  0.00  0.00    +0.044 C 
ATOM     30  C   UNL     1      11.265  -4.265  -4.163  0.00  0.00    -0.047 A 
ATOM     31  C   UNL     1      11.479  -5.047  -3.043  0.00  0.00    +0.007 A 
ATOM     32  C   UNL     1      10.509  -5.940  -2.625  0.00  0.00    -0.047 A 
ATOM     33  C   UNL     1       9.324  -6.053  -3.326  0.00  0.00    +0.049 A 
ATOM     34  C   UNL     1       9.107  -5.270  -4.450  0.00  0.00    +0.121 A 
ATOM     35  C   UNL     1      10.084  -4.379  -4.871  0.00  0.00    +0.049 A 
ATOM     36  C   UNL     1      10.746  -6.790  -1.403  0.00  0.00    +0.044 C 
ENDBRANCH  28  34
ENDBRANCH  27  28
ENDBRANCH  26  27
ENDBRANCH  25  26
ENDBRANCH   1  25
TORSDOF 9
