REMARK  Name = ZINC28910183
REMARK  10 active torsions:
REMARK  status: ('A' for Active; 'I' for Inactive)
REMARK    1  A    between atoms: C_1  and  C_2
REMARK    2  A    between atoms: C_2  and  C_4
REMARK    3  A    between atoms: C_2  and  N_17
REMARK    4  A    between atoms: N_6  and  C_7
REMARK    5  A    between atoms: C_12  and  C_13
REMARK    6  A    between atoms: N_17  and  C_18
REMARK    7  A    between atoms: C_21  and  N_24
REMARK    8  A    between atoms: C_25  and  C_27
REMARK    9  A    between atoms: C_27  and  C_28
REMARK   10  A    between atoms: C_27  and  C_29
REMARK                            x       y       z     vdW  Elec       q    Type
REMARK                         _______ _______ _______ _____ _____    ______ ____
ROOT
ATOM      1  C   UNL     1       0.160   1.363   0.486  0.00  0.00    +0.038 C 
ATOM      2  C   UNL     1       0.197  -0.164   0.407  0.00  0.00    +0.154 C 
ENDROOT
BRANCH   2   3
ATOM      3  C   UNL     1       1.000  -0.708   1.561  0.00  0.00    +0.237 C 
ATOM      4  O   UNL     1       1.993  -1.372   1.349  0.00  0.00    -0.273 OA
ATOM      5  N   UNL     1       0.615  -0.457   2.828  0.00  0.00    -0.283 N 
ATOM      6  H   UNL     1      -0.131   0.139   2.999  0.00  0.00    +0.155 HD
BRANCH   5   7
ATOM      7  C   UNL     1       1.292  -1.056   3.896  0.00  0.00    +0.045 A 
ATOM      8  C   UNL     1       1.975  -2.250   3.705  0.00  0.00    +0.024 A 
ATOM      9  C   UNL     1       2.641  -2.839   4.762  0.00  0.00    +0.002 A 
ATOM     10  C   UNL     1       2.629  -2.241   6.009  0.00  0.00    +0.001 A 
ATOM     11  C   UNL     1       1.949  -1.052   6.202  0.00  0.00    +0.014 A 
ATOM     12  C   UNL     1       1.286  -0.455   5.148  0.00  0.00    +0.076 A 
BRANCH  12  13
ATOM     13  C   UNL     1       0.552   0.844   5.357  0.00  0.00    +0.419 C 
ATOM     14  F   UNL     1       0.690   1.248   6.689  0.00  0.00    -0.166 F 
ATOM     15  F   UNL     1       1.088   1.824   4.515  0.00  0.00    -0.166 F 
ATOM     16  F   UNL     1      -0.804   0.667   5.062  0.00  0.00    -0.166 F 
ENDBRANCH  12  13
ENDBRANCH   5   7
ENDBRANCH   2   3
BRANCH   2  17
ATOM     17  N   UNL     1       0.817  -0.573  -0.856  0.00  0.00    -0.333 N 
ATOM     18  H   UNL     1       1.764  -0.780  -0.886  0.00  0.00    +0.147 HD
BRANCH  17  19
ATOM     19  C   UNL     1       0.043  -0.665  -2.017  0.00  0.00    +0.028 A 
ATOM     20  C   UNL     1      -1.312  -0.364  -1.975  0.00  0.00    +0.025 A 
ATOM     21  C   UNL     1      -2.076  -0.455  -3.121  0.00  0.00    +0.025 A 
ATOM     22  C   UNL     1      -1.489  -0.848  -4.317  0.00  0.00    +0.034 A 
ATOM     23  C   UNL     1      -0.135  -1.150  -4.359  0.00  0.00    +0.025 A 
ATOM     24  C   UNL     1       0.631  -1.053  -3.214  0.00  0.00    +0.025 A 
BRANCH  22  25
ATOM     25  N   UNL     1      -2.265  -0.941  -5.481  0.00  0.00    -0.285 N 
ATOM     26  C   UNL     1      -3.271  -0.069  -5.691  0.00  0.00    +0.220 C 
ATOM     27  O   UNL     1      -3.561   0.740  -4.836  0.00  0.00    -0.275 OA
ATOM     28  H   UNL     1      -2.077  -1.633  -6.134  0.00  0.00    +0.155 HD
BRANCH  26  29
ATOM     29  C   UNL     1      -4.035  -0.100  -6.990  0.00  0.00    +0.069 C 
ATOM     30  C   UNL     1      -5.115   0.984  -6.972  0.00  0.00    +0.017 C 
ATOM     31  C   UNL     1      -3.075   0.155  -8.153  0.00  0.00    +0.017 C 
ENDBRANCH  26  29
ENDBRANCH  22  25
ENDBRANCH  17  19
ENDBRANCH   2  17
TORSDOF 7
