REMARK  Name = ZINC21690413
REMARK  7 active torsions:
REMARK  status: ('A' for Active; 'I' for Inactive)
REMARK    1  A    between atoms: C_1  and  C_2
REMARK    2  A    between atoms: C_2  and  C_3
REMARK    3  A    between atoms: C_8  and  N_9
REMARK    4  A    between atoms: C_10  and  C_12
REMARK    5  A    between atoms: N_14  and  C_15
REMARK    6  A    between atoms: C_15  and  C_16
REMARK    7  A    between atoms: C_16  and  C_22
REMARK                            x       y       z     vdW  Elec       q    Type
REMARK                         _______ _______ _______ _____ _____    ______ ____
ROOT
ATOM      1  C   UNL     1       1.211   1.825  -0.037  0.00  0.00    +0.299 C 
ATOM      2  O   UNL     1       1.174   3.038  -0.035  0.00  0.00    -0.265 OA
ATOM      3  N   UNL     1       2.398   1.186  -0.049  0.00  0.00    -0.307 N 
ATOM      4  H   UNL     1       2.431   0.087  -0.050  0.00  0.00    +0.149 HD
ENDROOT
BRANCH   1   6
ATOM      5  N   UNL     1      -1.246   1.678  -0.018  0.00  0.00    -0.278 N 
ATOM      6  C   UNL     1      -0.060   1.039  -0.025  0.00  0.00    +0.303 C 
ATOM      7  O   UNL     1      -0.023  -0.174  -0.026  0.00  0.00    -0.265 OA
ATOM      8  H   UNL     1      -1.281   2.773   0.075  0.00  0.00    +0.155 HD
BRANCH   5  14
ATOM      9  C   UNL     1      -3.620   1.470   0.368  0.00  0.00    -0.026 A 
ATOM     10  C   UNL     1      -4.791   0.746   0.255  0.00  0.00    +0.005 A 
ATOM     11  C   UNL     1      -4.783  -0.496  -0.354  0.00  0.00    +0.000 A 
ATOM     12  C   UNL     1      -3.602  -1.018  -0.851  0.00  0.00    +0.002 A 
ATOM     13  C   UNL     1      -2.429  -0.297  -0.746  0.00  0.00    +0.023 A 
ATOM     14  C   UNL     1      -2.433   0.948  -0.131  0.00  0.00    +0.037 A 
BRANCH   9  16
ATOM     15  C   UNL     1      -3.772   3.912  -0.036  0.00  0.00    +0.009 C 
ATOM     16  C   UNL     1      -3.631   2.823   1.030  0.00  0.00    +0.033 C 
ENDBRANCH   9  16
ENDBRANCH   5  14
ENDBRANCH   1   6
BRANCH   3  17
ATOM     17  C   UNL     1       3.644   1.956  -0.060  0.00  0.00    +0.116 C 
BRANCH  17  18
ATOM     18  C   UNL     1       4.832   1.002  -0.198  0.00  0.00    +0.017 C 
ATOM     19  C   UNL     1       4.777  -0.045   0.917  0.00  0.00    +0.013 C 
ATOM     20  C   UNL     1       4.838   0.654   2.277  0.00  0.00    +0.001 C 
ATOM     21  C   UNL     1       6.143   1.446   2.385  0.00  0.00    +0.000 C 
ATOM     22  C   UNL     1       6.198   2.493   1.270  0.00  0.00    +0.001 C 
ATOM     23  C   UNL     1       6.137   1.794  -0.089  0.00  0.00    +0.013 C 
BRANCH  18  24
ATOM     24  C   UNL     1       4.771   0.314  -1.537  0.00  0.00    -0.003 A 
ATOM     25  C   UNL     1       4.701   0.861  -2.775  0.00  0.00    +0.012 A 
ATOM     26  C   UNL     1       4.658   0.025  -3.875  0.00  0.00    +0.008 A 
ATOM     27  C   UNL     1       4.678  -1.317  -3.683  0.00  0.00    +0.045 A 
ATOM     28  S   UNL     1       4.766  -1.433  -1.903  0.00  0.00    -0.101 S 
ENDBRANCH  18  24
ENDBRANCH  17  18
ENDBRANCH   3  17
TORSDOF 6
