REMARK  Name = ZINC34497487
REMARK  8 active torsions:
REMARK  status: ('A' for Active; 'I' for Inactive)
REMARK    1  A    between atoms: C_1  and  O_2
REMARK    2  A    between atoms: O_2  and  C_3
REMARK    3  A    between atoms: C_6  and  C_9
REMARK    4  A    between atoms: C_10  and  C_29
REMARK    5  A    between atoms: C_10  and  C_31
REMARK    6  A    between atoms: C_11  and  C_25
REMARK    7  A    between atoms: C_11  and  C_27
REMARK    8  A    between atoms: C_12  and  C_19
REMARK                            x       y       z     vdW  Elec       q    Type
REMARK                         _______ _______ _______ _____ _____    ______ ____
ROOT
ATOM      1  C   UNL     1       2.939  -2.763   3.993  0.00  0.00    +0.121 C 
ATOM      2  C   UNL     1       4.462  -3.067   4.032  0.00  0.00    +0.202 C 
ATOM      3  C   UNL     1       4.735  -3.987   5.218  0.00  0.00    +0.184 C 
ATOM      4  C   UNL     1       4.540  -3.317   6.570  0.00  0.00    +0.069 C 
ATOM      5  C   UNL     1       3.046  -2.976   6.787  0.00  0.00    +0.068 C 
ATOM      6  S   UNL     1       2.662  -1.718   5.498  0.00  0.00    -0.131 S 
ATOM      7  C   UNL     1       2.258  -4.252   6.409  0.00  0.00    +0.085 C 
ATOM      8  S   UNL     1       2.120  -4.318   4.560  0.00  0.00    -0.135 S 
ENDROOT
BRANCH   1  12
ATOM      9  C   UNL     1       1.490  -1.142   0.314  0.00  0.00    +0.120 A 
ATOM     10  C   UNL     1       1.925  -0.295   1.323  0.00  0.00    +0.046 A 
ATOM     11  C   UNL     1       2.393  -0.821   2.512  0.00  0.00    +0.009 A 
ATOM     12  C   UNL     1       2.428  -2.191   2.696  0.00  0.00    -0.019 A 
ATOM     13  C   UNL     1       1.995  -3.037   1.692  0.00  0.00    +0.009 A 
ATOM     14  C   UNL     1       1.520  -2.516   0.504  0.00  0.00    +0.046 A 
BRANCH   9  16
ATOM     15  C   UNL     1       1.026   0.797  -0.981  0.00  0.00    +0.277 C 
ATOM     16  O   UNL     1       1.029  -0.626  -0.855  0.00  0.00    -0.495 OA
ENDBRANCH   9  16
ENDBRANCH   1  12
BRANCH   4  17
ATOM     17  C   UNL     1       5.351  -2.049   6.621  0.00  0.00    -0.041 A 
ATOM     18  C   UNL     1       4.738  -0.848   6.925  0.00  0.00    +0.004 A 
ATOM     19  C   UNL     1       5.482   0.316   6.971  0.00  0.00    +0.000 A 
ATOM     20  C   UNL     1       6.839   0.280   6.714  0.00  0.00    +0.000 A 
ATOM     21  C   UNL     1       7.453  -0.921   6.410  0.00  0.00    +0.000 A 
ATOM     22  C   UNL     1       6.710  -2.086   6.368  0.00  0.00    +0.004 A 
ENDBRANCH   4  17
BRANCH   3  23
ATOM     23  C   UNL     1       3.832  -5.146   5.132  0.00  0.00    +0.088 C 
ATOM     24  N   UNL     1       3.134  -6.040   5.066  0.00  0.00    -0.195 NA
ENDBRANCH   3  23
BRANCH   3  25
ATOM     25  C   UNL     1       6.123  -4.470   5.128  0.00  0.00    +0.088 C 
ATOM     26  N   UNL     1       7.194  -4.843   5.059  0.00  0.00    -0.195 NA
ENDBRANCH   3  25
BRANCH   2  27
ATOM     27  C   UNL     1       4.867  -3.732   2.783  0.00  0.00    +0.090 C 
ATOM     28  N   UNL     1       5.180  -4.246   1.820  0.00  0.00    -0.195 NA
ENDBRANCH   2  27
BRANCH   2  29
ATOM     29  C   UNL     1       5.215  -1.812   4.194  0.00  0.00    +0.090 C 
ATOM     30  N   UNL     1       5.795  -0.844   4.319  0.00  0.00    -0.195 NA
ENDBRANCH   2  29
TORSDOF 7
