REMARK  Name = ZINC01858974
REMARK  13 active torsions:
REMARK  status: ('A' for Active; 'I' for Inactive)
REMARK    1  A    between atoms: C_1  and  C_2
REMARK    2  A    between atoms: C_2  and  O_4
REMARK    3  A    between atoms: O_4  and  C_5
REMARK    4  A    between atoms: C_6  and  O_40
REMARK    5  A    between atoms: C_8  and  C_13
REMARK    6  A    between atoms: C_10  and  O_11
REMARK    7  A    between atoms: O_11  and  C_12
REMARK    8  A    between atoms: N_14  and  N_15
REMARK    9  A    between atoms: C_16  and  C_18
REMARK   10  A    between atoms: C_18  and  S_19
REMARK   11  A    between atoms: S_19  and  C_20
REMARK   12  A    between atoms: N_33  and  C_34
REMARK   13  A    between atoms: O_40  and  C_41
REMARK                            x       y       z     vdW  Elec       q    Type
REMARK                         _______ _______ _______ _____ _____    ______ ____
ROOT
ATOM      1  C   UNL     1       1.640 -11.067   2.536  0.00  0.00    +0.174 C 
ENDROOT
BRANCH   1   3
ATOM      2  N   UNL     1       2.956  -9.212   1.563  0.00  0.00    -0.206 N 
ATOM      3  C   UNL     1       2.352  -9.743   2.644  0.00  0.00    +0.242 C 
ATOM      4  O   UNL     1       2.382  -9.156   3.705  0.00  0.00    -0.273 OA
ATOM      5  H   UNL     1       2.932  -9.681   0.714  0.00  0.00    +0.177 HD
BRANCH   2   7
ATOM      6  C   UNL     1       4.199  -7.470   0.622  0.00  0.00    +0.138 C 
ATOM      7  N   UNL     1       3.618  -7.981   1.664  0.00  0.00    -0.188 NA
BRANCH   6  11
ATOM      8  C   UNL     1       6.208  -3.735   0.929  0.00  0.00    +0.214 A 
ATOM      9  C   UNL     1       6.175  -4.407  -0.289  0.00  0.00    +0.166 A 
ATOM     10  C   UNL     1       5.522  -5.623  -0.392  0.00  0.00    +0.059 A 
ATOM     11  C   UNL     1       4.896  -6.175   0.729  0.00  0.00    +0.002 A 
ATOM     12  C   UNL     1       4.931  -5.497   1.950  0.00  0.00    +0.059 A 
ATOM     13  C   UNL     1       5.590  -4.285   2.048  0.00  0.00    +0.166 A 
BRANCH  13  14
ATOM     14  O   UNL     1       5.629  -3.627   3.237  0.00  0.00    -0.491 OA
ATOM     15  C   UNL     1       4.973  -4.249   4.344  0.00  0.00    +0.277 C 
ENDBRANCH  13  14
BRANCH   9  16
ATOM     16  O   UNL     1       6.784  -3.869  -1.379  0.00  0.00    -0.491 OA
ATOM     17  C   UNL     1       6.710  -4.614  -2.597  0.00  0.00    +0.277 C 
ENDBRANCH   9  16
BRANCH   8  18
ATOM     18  O   UNL     1       6.851  -2.540   1.027  0.00  0.00    -0.419 OA
BRANCH  18  20
ATOM     19  C   UNL     1       8.910  -1.252   1.471  0.00  0.00    +0.136 C 
ATOM     20  C   UNL     1       8.153  -2.550   1.350  0.00  0.00    +0.309 C 
ATOM     21  O   UNL     1       8.721  -3.603   1.545  0.00  0.00    -0.251 OA
ENDBRANCH  18  20
ENDBRANCH   8  18
ENDBRANCH   6  11
ENDBRANCH   2   7
ENDBRANCH   1   3
BRANCH   1  22
ATOM     22  S   UNL     1       0.937 -11.509   4.148  0.00  0.00    -0.078 S 
BRANCH  22  23
ATOM     23  C   UNL     1       0.149 -13.058   3.859  0.00  0.00    +0.178 A 
ATOM     24  N   UNL     1       0.193 -13.596   2.657  0.00  0.00    -0.215 NA
ATOM     25  C   UNL     1      -0.392 -14.762   2.412  0.00  0.00    +0.117 A 
ATOM     26  C   UNL     1      -1.081 -15.477   3.406  0.00  0.00    +0.076 A 
ATOM     27  C   UNL     1      -1.675 -16.748   2.985  0.00  0.00    -0.023 A 
ATOM     28  C   UNL     1      -1.504 -17.105   1.696  0.00  0.00    -0.004 A 
ATOM     29  S   UNL     1      -0.557 -15.792   0.975  0.00  0.00    -0.073 S 
ATOM     30  C   UNL     1      -2.008 -18.346   1.024  0.00  0.00    +0.043 C 
ATOM     31  C   UNL     1      -2.440 -19.343   2.108  0.00  0.00    +0.005 C 
ATOM     32  C   UNL     1      -3.312 -18.610   3.131  0.00  0.00    +0.005 C 
ATOM     33  C   UNL     1      -2.455 -17.641   3.945  0.00  0.00    +0.037 C 
ATOM     34  C   UNL     1      -1.113 -14.871   4.701  0.00  0.00    +0.268 A 
ATOM     35  O   UNL     1      -1.687 -15.419   5.626  0.00  0.00    -0.267 OA
ATOM     36  N   UNL     1      -0.496 -13.689   4.886  0.00  0.00    -0.255 N 
BRANCH  36  37
ATOM     37  C   UNL     1      -0.519 -13.092   6.153  0.00  0.00    +0.052 A 
ATOM     38  C   UNL     1       0.488 -13.366   7.070  0.00  0.00    +0.026 A 
ATOM     39  C   UNL     1       0.462 -12.776   8.318  0.00  0.00    +0.002 A 
ATOM     40  C   UNL     1      -0.564 -11.913   8.656  0.00  0.00    +0.000 A 
ATOM     41  C   UNL     1      -1.568 -11.639   7.745  0.00  0.00    +0.002 A 
ATOM     42  C   UNL     1      -1.545 -12.221   6.493  0.00  0.00    +0.026 A 
ENDBRANCH  36  37
ENDBRANCH  22  23
ENDBRANCH   1  22
TORSDOF 10
