REMARK  Name = ZINC09346021
REMARK  6 active torsions:
REMARK  status: ('A' for Active; 'I' for Inactive)
REMARK    1  A    between atoms: C_1  and  C_2
REMARK    2  A    between atoms: C_5  and  C_8
REMARK    3  A    between atoms: C_14  and  C_27
REMARK    4  A    between atoms: C_19  and  C_21
REMARK    5  A    between atoms: C_32  and  S_34
REMARK    6  A    between atoms: S_34  and  C_35
REMARK                            x       y       z     vdW  Elec       q    Type
REMARK                         _______ _______ _______ _____ _____    ______ ____
ROOT
ATOM      1  C   UNL     1       0.059  -4.275  -0.021  0.00  0.00    +0.159 C 
ATOM      2  C   UNL     1       1.493  -4.730   0.141  0.00  0.00    +0.025 C 
ATOM      3  C   UNL     1       1.794  -5.521   1.190  0.00  0.00    +0.058 C 
ATOM      4  C   UNL     1       3.207  -5.951   1.341  0.00  0.00    +0.040 A 
ATOM      5  C   UNL     1       3.560  -7.001   2.177  0.00  0.00    +0.017 A 
ATOM      6  C   UNL     1       4.888  -7.370   2.287  0.00  0.00    -0.050 A 
ATOM      7  C   UNL     1       5.859  -6.696   1.567  0.00  0.00    +0.007 A 
ATOM      8  C   UNL     1       5.516  -5.649   0.732  0.00  0.00    +0.046 A 
ATOM      9  C   UNL     1       4.190  -5.268   0.615  0.00  0.00    +0.131 A 
ATOM     10  O   UNL     1       3.826  -4.238  -0.192  0.00  0.00    -0.479 OA
ATOM     11  C   UNL     1       2.555  -4.324  -0.840  0.00  0.00    +0.234 C 
ATOM     12  C   UNL     1       5.279  -8.509   3.192  0.00  0.00    +0.044 C 
ATOM     13  N   UNL     1       0.847  -5.912   2.078  0.00  0.00    -0.326 N 
ATOM     14  C   UNL     1      -0.421  -5.564   2.012  0.00  0.00    +0.216 C 
ATOM     15  N   UNL     1      -0.882  -4.751   1.000  0.00  0.00    -0.209 N 
ATOM     16  N   UNL     1      -2.250  -4.571   1.219  0.00  0.00    -0.239 N 
ATOM     17  C   UNL     1      -2.555  -5.280   2.351  0.00  0.00    +0.174 C 
ATOM     18  N   UNL     1      -1.471  -5.860   2.799  0.00  0.00    -0.192 NA
ATOM     19  H   UNL     1       1.122  -6.486   2.810  0.00  0.00    +0.169 HD
ATOM     20  H   UNL     1      -2.862  -4.046   0.679  0.00  0.00    +0.172 HD
ENDROOT
BRANCH   1  25
ATOM     21  C   UNL     1      -0.018   1.503   0.010  0.00  0.00    +0.044 C 
ATOM     22  C   UNL     1       0.002  -0.004   0.002  0.00  0.00    -0.050 A 
ATOM     23  C   UNL     1       0.006  -0.689  -1.199  0.00  0.00    +0.004 A 
ATOM     24  C   UNL     1       0.025  -2.071  -1.206  0.00  0.00    +0.006 A 
ATOM     25  C   UNL     1       0.040  -2.768  -0.013  0.00  0.00    -0.021 A 
ATOM     26  C   UNL     1       0.037  -2.084   1.188  0.00  0.00    +0.006 A 
ATOM     27  C   UNL     1       0.023  -0.702   1.195  0.00  0.00    +0.004 A 
ENDBRANCH   1  25
BRANCH  11  28
ATOM     28  C   UNL     1       2.627  -5.343  -1.947  0.00  0.00    -0.003 A 
ATOM     29  C   UNL     1       3.304  -6.532  -1.748  0.00  0.00    +0.007 A 
ATOM     30  C   UNL     1       3.370  -7.468  -2.763  0.00  0.00    +0.000 A 
ATOM     31  C   UNL     1       2.760  -7.215  -3.978  0.00  0.00    +0.000 A 
ATOM     32  C   UNL     1       2.083  -6.026  -4.176  0.00  0.00    +0.000 A 
ATOM     33  C   UNL     1       2.013  -5.092  -3.159  0.00  0.00    +0.007 A 
ENDBRANCH  11  28
BRANCH  17  34
ATOM     34  S   UNL     1      -4.154  -5.400   3.082  0.00  0.00    -0.092 S 
ATOM     35  C   UNL     1      -3.896  -6.465   4.529  0.00  0.00    +0.093 C 
ENDBRANCH  17  34
TORSDOF 3
