REMARK  Name = ZINC20214103
REMARK  10 active torsions:
REMARK  status: ('A' for Active; 'I' for Inactive)
REMARK    1  A    between atoms: C_1  and  C_2
REMARK    2  A    between atoms: C_2  and  O_3
REMARK    3  A    between atoms: O_3  and  C_4
REMARK    4  A    between atoms: C_4  and  C_6
REMARK    5  A    between atoms: C_7  and  C_21
REMARK    6  A    between atoms: C_12  and  C_14
REMARK    7  A    between atoms: C_21  and  N_22
REMARK    8  A    between atoms: N_22  and  C_23
REMARK    9  A    between atoms: N_22  and  C_29
REMARK   10  A    between atoms: C_23  and  C_24
REMARK                            x       y       z     vdW  Elec       q    Type
REMARK                         _______ _______ _______ _____ _____    ______ ____
ROOT
ATOM      1  C   UNL     1      -1.320   7.316   1.829  0.00  0.00    +0.076 C 
ATOM      2  C   UNL     1      -2.279   6.456   1.424  0.00  0.00    +0.008 C 
ATOM      3  N   UNL     1      -3.602   6.736   1.614  0.00  0.00    -0.274 N 
ATOM      4  C   UNL     1      -4.048   7.857   2.196  0.00  0.00    +0.304 C 
ATOM      5  O   UNL     1      -5.246   8.018   2.321  0.00  0.00    -0.252 OA
ATOM      6  N   UNL     1      -3.211   8.812   2.647  0.00  0.00    -0.288 N 
ATOM      7  C   UNL     1      -1.762   8.606   2.489  0.00  0.00    +0.143 C 
ATOM      8  H   UNL     1      -4.369   6.021   1.282  0.00  0.00    +0.156 HD
ATOM      9  H   UNL     1      -3.587   9.730   3.123  0.00  0.00    +0.151 HD
ENDROOT
BRANCH   7  10
ATOM     10  C   UNL     1      -1.133   8.661   3.858  0.00  0.00    -0.022 A 
ATOM     11  C   UNL     1      -1.689   7.946   4.903  0.00  0.00    +0.007 A 
ATOM     12  C   UNL     1      -1.110   7.992   6.157  0.00  0.00    +0.020 A 
ATOM     13  C   UNL     1       0.019   8.762   6.369  0.00  0.00    +0.041 A 
ATOM     14  C   UNL     1       0.572   9.481   5.325  0.00  0.00    +0.020 A 
ATOM     15  C   UNL     1      -0.004   9.430   4.070  0.00  0.00    +0.007 A 
ATOM     16 CL   UNL     1       0.743   8.825   7.946  0.00  0.00    -0.084 Cl
ENDBRANCH   7  10
BRANCH   1  17
ATOM     17  C   UNL     1       0.051   7.024   1.638  0.00  0.00    +0.339 C 
ATOM     18  O   UNL     1       0.387   5.940   1.200  0.00  0.00    -0.245 OA
BRANCH  17  19
ATOM     19  O   UNL     1       0.986   7.948   1.942  0.00  0.00    -0.462 OA
BRANCH  19  21
ATOM     20  C   UNL     1       3.258   8.752   2.123  0.00  0.00    +0.048 C 
ATOM     21  C   UNL     1       2.351   7.586   1.724  0.00  0.00    +0.229 C 
ENDBRANCH  19  21
ENDBRANCH  17  19
ENDBRANCH   1  17
BRANCH   2  22
ATOM     22  C   UNL     1      -1.883   5.163   0.758  0.00  0.00    -0.025 C 
BRANCH  22  23
ATOM     23  N   UNL     1      -1.475   5.431  -0.627  0.00  0.00    +0.390 N 
ATOM     24  H   UNL     1      -0.723   6.234  -0.608  0.00  0.00    -0.080 HD
BRANCH  23  25
ATOM     25  C   UNL     1      -0.854   4.245  -1.232  0.00  0.00    -0.067 C 
ATOM     26  C   UNL     1      -0.442   4.563  -2.671  0.00  0.00    -0.015 C 
ATOM     27  C   UNL     1       0.205   3.327  -3.300  0.00  0.00    -0.002 C 
ATOM     28  C   UNL     1       1.442   2.931  -2.491  0.00  0.00    -0.000 C 
ATOM     29  C   UNL     1       1.030   2.614  -1.052  0.00  0.00    -0.002 C 
ATOM     30  C   UNL     1       0.384   3.849  -0.423  0.00  0.00    -0.015 C 
ENDBRANCH  23  25
BRANCH  23  31
ATOM     31  C   UNL     1      -2.612   5.897  -1.431  0.00  0.00    -0.002 C 
BRANCH  31  32
ATOM     32  C   UNL     1      -2.755   7.390  -1.282  0.00  0.00    +0.089 A 
ATOM     33  C   UNL     1      -2.065   8.319  -1.968  0.00  0.00    +0.042 A 
ATOM     34  C   UNL     1      -2.513   9.580  -1.515  0.00  0.00    +0.041 A 
ATOM     35  C   UNL     1      -3.450   9.348  -0.578  0.00  0.00    +0.195 A 
ATOM     36  O   UNL     1      -3.597   8.019  -0.445  0.00  0.00    -0.470 OA
ENDBRANCH  31  32
ENDBRANCH  23  31
ENDBRANCH  22  23
ENDBRANCH   2  22
TORSDOF 9
