REMARK  Name = ZINC03663958
REMARK  9 active torsions:
REMARK  status: ('A' for Active; 'I' for Inactive)
REMARK    1  A    between atoms: C_1  and  C_2
REMARK    2  A    between atoms: C_2  and  C_4
REMARK    3  A    between atoms: C_7  and  N_10
REMARK    4  A    between atoms: C_11  and  C_13
REMARK    5  A    between atoms: C_13  and  S_14
REMARK    6  A    between atoms: S_14  and  C_15
REMARK    7  A    between atoms: C_20  and  N_24
REMARK    8  A    between atoms: C_25  and  C_26
REMARK    9  A    between atoms: C_28  and  N_32
REMARK                            x       y       z     vdW  Elec       q    Type
REMARK                         _______ _______ _______ _____ _____    ______ ____
ROOT
ATOM      1  C   UNL     1      -0.109   0.722  -2.715  0.00  0.00    +0.136 A 
ATOM      2  N   UNL     1       1.052   0.112  -2.615  0.00  0.00    -0.233 NA
ATOM      3  C   UNL     1       1.729  -0.342  -3.691  0.00  0.00    +0.080 A 
ATOM      4  C   UNL     1       2.978  -1.009  -3.717  0.00  0.00    +0.031 A 
ATOM      5  C   UNL     1       3.535  -1.407  -4.888  0.00  0.00    +0.030 A 
ATOM      6  C   UNL     1       2.901  -1.175  -6.116  0.00  0.00    +0.065 A 
ATOM      7  C   UNL     1       1.666  -0.519  -6.128  0.00  0.00    +0.045 A 
ATOM      8  C   UNL     1       1.108  -0.119  -4.943  0.00  0.00    +0.042 A 
ATOM      9  S   UNL     1      -0.393   0.712  -4.480  0.00  0.00    -0.061 S 
ENDROOT
BRANCH   6  10
ATOM     10  N   UNL     1       3.480  -1.586  -7.285  0.00  0.00    -0.255 NA
ATOM     11  C   UNL     1       4.749  -1.372  -7.494  0.00  0.00    +0.123 C 
BRANCH  11  12
ATOM     12  C   UNL     1       5.372  -1.813  -8.751  0.00  0.00    +0.042 A 
ATOM     13  C   UNL     1       6.733  -1.587  -8.979  0.00  0.00    +0.046 A 
ATOM     14  C   UNL     1       7.310  -2.003 -10.159  0.00  0.00    +0.127 A 
ATOM     15  C   UNL     1       6.548  -2.645 -11.121  0.00  0.00    +0.036 A 
ATOM     16  C   UNL     1       5.202  -2.876 -10.909  0.00  0.00    +0.054 A 
ATOM     17  C   UNL     1       4.606  -2.469  -9.726  0.00  0.00    +0.188 A 
ATOM     18  O   UNL     1       3.285  -2.700  -9.514  0.00  0.00    -0.287 OA
BRANCH  14  19
ATOM     19  N   UNL     1       8.751  -1.763 -10.400  0.00  0.00    +0.056 N 
ATOM     20  O   UNL     1       9.423  -1.198  -9.556  0.00  0.00    -0.126 OA
ATOM     21  O   UNL     1       9.263  -2.129 -11.442  0.00  0.00    -0.126 OA
ENDBRANCH  14  19
ENDBRANCH  11  12
ENDBRANCH   6  10
BRANCH   1  22
ATOM     22  S   UNL     1      -1.128   1.375  -1.435  0.00  0.00    -0.089 S 
BRANCH  22  23
ATOM     23  C   UNL     1      -0.120   0.964   0.010  0.00  0.00    +0.172 C 
BRANCH  23  25
ATOM     24  N   UNL     1      -0.246   1.243   2.465  0.00  0.00    -0.285 N 
ATOM     25  C   UNL     1      -0.815   1.441   1.259  0.00  0.00    +0.227 C 
ATOM     26  O   UNL     1      -1.886   2.004   1.180  0.00  0.00    -0.275 OA
ATOM     27  H   UNL     1       0.573   0.728   2.536  0.00  0.00    +0.155 HD
BRANCH  24  31
ATOM     28  C   UNL     1      -2.002   2.839   5.882  0.00  0.00    +0.017 A 
ATOM     29  C   UNL     1      -1.320   1.617   5.948  0.00  0.00    +0.013 A 
ATOM     30  C   UNL     1      -0.743   1.095   4.819  0.00  0.00    +0.024 A 
ATOM     31  C   UNL     1      -0.834   1.777   3.609  0.00  0.00    +0.033 A 
ATOM     32  C   UNL     1      -1.506   2.994   3.540  0.00  0.00    +0.024 A 
ATOM     33  C   UNL     1      -2.091   3.521   4.663  0.00  0.00    +0.013 A 
BRANCH  28  35
ATOM     34  C   UNL     1      -3.460   4.651   6.992  0.00  0.00    +0.091 C 
ATOM     35  C   UNL     1      -2.622   3.402   7.088  0.00  0.00    +0.160 C 
ATOM     36  O   UNL     1      -2.460   2.862   8.162  0.00  0.00    -0.292 OA
ENDBRANCH  28  35
ENDBRANCH  24  31
ENDBRANCH  23  25
ENDBRANCH  22  23
ENDBRANCH   1  22
TORSDOF 8
