REMARK  Name = ZINC22793352
REMARK  6 active torsions:
REMARK  status: ('A' for Active; 'I' for Inactive)
REMARK    1  A    between atoms: C_1  and  C_2
REMARK    2  A    between atoms: C_5  and  N_8
REMARK    3  A    between atoms: C_11  and  C_16
REMARK    4  A    between atoms: C_16  and  N_17
REMARK    5  A    between atoms: N_20  and  C_23
REMARK    6  A    between atoms: C_23  and  C_24
REMARK                            x       y       z     vdW  Elec       q    Type
REMARK                         _______ _______ _______ _____ _____    ______ ____
ROOT
ATOM      1  N   UNL     1       0.025   4.601   5.634  0.00  0.00    -0.284 N 
ATOM      2  C   UNL     1      -0.467   3.361   5.272  0.00  0.00    +0.224 A 
ATOM      3  N   UNL     1       0.019   2.738   4.201  0.00  0.00    -0.201 NA
ATOM      4  C   UNL     1      -0.454   1.555   3.851  0.00  0.00    +0.120 A 
ATOM      5  N   UNL     1      -1.404   0.981   4.569  0.00  0.00    -0.202 NA
ATOM      6  C   UNL     1      -1.891   1.595   5.644  0.00  0.00    +0.217 A 
ATOM      7  N   UNL     1      -1.422   2.787   5.996  0.00  0.00    -0.181 NA
ATOM      8  N   UNL     1      -2.884   0.995   6.392  0.00  0.00    -0.327 N 
ATOM      9  H   UNL     1       0.876   5.035   5.089  0.00  0.00    +0.155 HD
ATOM     10  H   UNL     1      -3.286   1.504   7.281  0.00  0.00    +0.145 HD
ATOM     11  H   UNL     1      -3.272   0.009   6.100  0.00  0.00    +0.145 HD
ENDROOT
BRANCH   1  16
ATOM     12  C   UNL     1      -2.349   7.452   9.924  0.00  0.00    +0.044 C 
ATOM     13  C   UNL     1      -1.719   6.694   8.784  0.00  0.00    -0.050 A 
ATOM     14  C   UNL     1      -0.361   6.809   8.547  0.00  0.00    +0.005 A 
ATOM     15  C   UNL     1       0.220   6.116   7.503  0.00  0.00    +0.023 A 
ATOM     16  C   UNL     1      -0.561   5.303   6.692  0.00  0.00    +0.034 A 
ATOM     17  C   UNL     1      -1.925   5.194   6.930  0.00  0.00    +0.023 A 
ATOM     18  C   UNL     1      -2.499   5.885   7.979  0.00  0.00    +0.005 A 
ENDBRANCH   1  16
BRANCH   4  19
ATOM     19  C   UNL     1       0.096   0.856   2.635  0.00  0.00    -0.001 C 
BRANCH  19  20
ATOM     20  N   UNL     1      -0.689   1.239   1.453  0.00  0.00    +0.386 N 
ATOM     21  C   UNL     1      -0.045   0.770   0.218  0.00  0.00    -0.063 C 
ATOM     22  C   UNL     1      -0.930   1.119  -0.980  0.00  0.00    +0.066 C 
ATOM     23  N   UNL     1      -1.144   2.573  -1.021  0.00  0.00    -0.301 NA
ATOM     24  C   UNL     1      -1.788   3.042   0.213  0.00  0.00    +0.066 C 
ATOM     25  C   UNL     1      -0.903   2.693   1.412  0.00  0.00    -0.063 C 
ATOM     26  H   UNL     1      -1.672   0.753   1.530  0.00  0.00    -0.081 HD
BRANCH  23  27
ATOM     27  C   UNL     1      -1.928   2.956  -2.203  0.00  0.00    +0.126 C 
BRANCH  27  28
ATOM     28  C   UNL     1      -1.919   4.457  -2.346  0.00  0.00    +0.005 A 
ATOM     29  C   UNL     1      -1.048   5.244  -3.021  0.00  0.00    +0.013 A 
ATOM     30  C   UNL     1      -1.238   6.614  -3.015  0.00  0.00    +0.023 A 
ATOM     31  C   UNL     1      -2.291   7.128  -2.332  0.00  0.00    +0.055 A 
ATOM     32  S   UNL     1      -3.059   5.656  -1.675  0.00  0.00    -0.085 S 
ATOM     33 BR   UNL     1      -2.815   8.934  -2.134  0.00  0.00    -0.043 Br
ENDBRANCH  27  28
ENDBRANCH  23  27
ENDBRANCH  19  20
ENDBRANCH   4  19
TORSDOF 5
