REMARK  Name = ZINC43645780
REMARK  7 active torsions:
REMARK  status: ('A' for Active; 'I' for Inactive)
REMARK    1  A    between atoms: C_1  and  C_2
REMARK    2  A    between atoms: C_5  and  S_8
REMARK    3  A    between atoms: S_8  and  N_11
REMARK    4  A    between atoms: N_11  and  C_12
REMARK    5  A    between atoms: C_12  and  C_13
REMARK    6  A    between atoms: C_13  and  N_14
REMARK    7  A    between atoms: C_20  and  C_23
REMARK                            x       y       z     vdW  Elec       q    Type
REMARK                         _______ _______ _______ _____ _____    ______ ____
ROOT
ATOM      1  N   UNL     1       4.648  -5.239   2.174  0.00  0.00    -0.298 N 
ATOM      2  C   UNL     1       5.832  -5.867   2.310  0.00  0.00    +0.302 C 
ATOM      3  O   UNL     1       6.147  -6.748   1.533  0.00  0.00    -0.253 OA
ATOM      4  N   UNL     1       6.669  -5.519   3.308  0.00  0.00    -0.286 N 
ATOM      5  C   UNL     1       6.256  -4.541   4.323  0.00  0.00    +0.110 C 
ATOM      6  C   UNL     1       7.309  -3.430   4.394  0.00  0.00    +0.032 C 
ATOM      7  C   UNL     1       8.685  -4.051   4.642  0.00  0.00    +0.078 C 
ATOM      8  C   UNL     1       9.043  -4.983   3.482  0.00  0.00    +0.032 C 
ATOM      9  C   UNL     1       8.008  -6.116   3.405  0.00  0.00    +0.110 C 
ATOM     10  H   UNL     1       4.365  -4.589   2.836  0.00  0.00    +0.150 HD
ENDROOT
BRANCH   7  11
ATOM     11  C   UNL     1       9.718  -2.959   4.746  0.00  0.00    +0.214 C 
ATOM     12  O   UNL     1       9.386  -1.798   4.632  0.00  0.00    -0.276 OA
ATOM     13  N   UNL     1      11.010  -3.272   4.965  0.00  0.00    -0.329 N 
ATOM     14  H   UNL     1      11.276  -4.201   5.056  0.00  0.00    +0.145 HD
ATOM     15  H   UNL     1      11.675  -2.569   5.032  0.00  0.00    +0.145 HD
ENDBRANCH   7  11
BRANCH   1  16
ATOM     16  C   UNL     1       3.788  -5.539   1.026  0.00  0.00    +0.122 C 
BRANCH  16  17
ATOM     17  C   UNL     1       2.513  -4.697   1.111  0.00  0.00    +0.124 C 
BRANCH  17  18
ATOM     18  N   UNL     1       1.653  -4.996  -0.037  0.00  0.00    -0.188 NA
ATOM     19  H   UNL     1       2.014  -5.470  -0.803  0.00  0.00    +0.148 HD
BRANCH  18  20
ATOM     20  S   UNL     1       0.065  -4.526  -0.027  0.00  0.00    +0.058 S 
ATOM     21  O   UNL     1      -0.475  -4.947   1.219  0.00  0.00    -0.153 OA
ATOM     22  O   UNL     1      -0.486  -4.932  -1.272  0.00  0.00    -0.153 OA
BRANCH  20  27
ATOM     23  C   UNL     1      -0.013   1.507   0.010  0.00  0.00    +0.044 C 
ATOM     24  C   UNL     1       0.007   0.000   0.001  0.00  0.00    -0.050 A 
ATOM     25  C   UNL     1       0.011  -0.684  -1.200  0.00  0.00    +0.005 A 
ATOM     26  C   UNL     1       0.029  -2.066  -1.209  0.00  0.00    +0.029 A 
ATOM     27  C   UNL     1       0.043  -2.764  -0.016  0.00  0.00    +0.105 A 
ATOM     28  C   UNL     1       0.040  -2.080   1.185  0.00  0.00    +0.029 A 
ATOM     29  C   UNL     1       0.026  -0.698   1.194  0.00  0.00    +0.005 A 
ENDBRANCH  20  27
ENDBRANCH  18  20
ENDBRANCH  17  18
ENDBRANCH  16  17
ENDBRANCH   1  16
TORSDOF 6
