REMARK  Name = ZINC12815611
REMARK  7 active torsions:
REMARK  status: ('A' for Active; 'I' for Inactive)
REMARK    1  A    between atoms: C_4  and  C_7
REMARK    2  A    between atoms: C_7  and  N_8
REMARK    3  A    between atoms: C_9  and  N_34
REMARK    4  A    between atoms: C_10  and  N_17
REMARK    5  A    between atoms: N_17  and  C_18
REMARK    6  A    between atoms: C_18  and  C_19
REMARK    7  A    between atoms: C_24  and  C_26
REMARK                            x       y       z     vdW  Elec       q    Type
REMARK                         _______ _______ _______ _____ _____    ______ ____
ROOT
ATOM      1  N   UNL     1       2.441   1.431  -0.561  0.00  0.00    -0.276 N 
ATOM      2  C   UNL     1       2.805   1.731   0.731  0.00  0.00    +0.128 A 
ATOM      3  C   UNL     1       4.013   2.358   0.962  0.00  0.00    +0.140 A 
ATOM      4  C   UNL     1       4.831   2.682  -0.137  0.00  0.00    +0.277 A 
ATOM      5  O   UNL     1       5.901   3.240   0.039  0.00  0.00    -0.266 OA
ATOM      6  N   UNL     1       4.424   2.372  -1.383  0.00  0.00    -0.273 N 
ATOM      7  H   UNL     1       5.005   2.602  -2.164  0.00  0.00    +0.173 HD
ATOM      8  C   UNL     1       3.247   1.756  -1.589  0.00  0.00    +0.331 A 
ATOM      9  O   UNL     1       2.904   1.487  -2.724  0.00  0.00    -0.246 OA
ENDROOT
BRANCH   3  10
ATOM     10  N   UNL     1       4.417   2.673   2.276  0.00  0.00    -0.253 N 
ATOM     11  C   UNL     1       4.689   3.951   2.608  0.00  0.00    +0.251 C 
ATOM     12  O   UNL     1       5.112   4.213   3.718  0.00  0.00    -0.270 OA
BRANCH  11  13
ATOM     13  C   UNL     1       4.474   5.032   1.625  0.00  0.00    +0.039 A 
ATOM     14  C   UNL     1       3.621   4.832   0.538  0.00  0.00    +0.014 A 
ATOM     15  C   UNL     1       3.419   5.846  -0.374  0.00  0.00    +0.022 A 
ATOM     16  C   UNL     1       4.070   7.059  -0.220  0.00  0.00    +0.059 A 
ATOM     17  C   UNL     1       4.923   7.263   0.854  0.00  0.00    +0.060 A 
ATOM     18  C   UNL     1       5.128   6.257   1.776  0.00  0.00    +0.034 A 
ATOM     19 CL   UNL     1       5.733   8.787   1.039  0.00  0.00    -0.082 Cl
ATOM     20 CL   UNL     1       3.816   8.329  -1.376  0.00  0.00    -0.082 Cl
ENDBRANCH  11  13
BRANCH  10  21
ATOM     21  C   UNL     1       4.540   1.613   3.279  0.00  0.00    +0.188 C 
BRANCH  21  22
ATOM     22  C   UNL     1       5.950   1.080   3.275  0.00  0.00    +0.122 A 
ATOM     23  C   UNL     1       6.970   1.548   4.017  0.00  0.00    +0.046 A 
ATOM     24  C   UNL     1       8.101   0.761   3.701  0.00  0.00    +0.041 A 
ATOM     25  C   UNL     1       7.705  -0.141   2.785  0.00  0.00    +0.195 A 
ATOM     26  O   UNL     1       6.400   0.054   2.535  0.00  0.00    -0.466 OA
ENDBRANCH  21  22
ENDBRANCH  10  21
ENDBRANCH   3  10
BRANCH   2  27
ATOM     27  N   UNL     1       1.979   1.405   1.779  0.00  0.00    -0.343 N 
ATOM     28  H   UNL     1       1.202   0.844   1.629  0.00  0.00    +0.144 HD
ATOM     29  H   UNL     1       2.172   1.736   2.670  0.00  0.00    +0.144 HD
ENDBRANCH   2  27
BRANCH   1  30
ATOM     30  C   UNL     1       1.164   0.761  -0.821  0.00  0.00    +0.163 C 
BRANCH  30  34
ATOM     31  C   UNL     1       1.743  -3.471  -0.775  0.00  0.00    +0.000 A 
ATOM     32  C   UNL     1       1.420  -2.805   0.392  0.00  0.00    +0.000 A 
ATOM     33  C   UNL     1       1.233  -1.435   0.377  0.00  0.00    +0.005 A 
ATOM     34  C   UNL     1       1.369  -0.732  -0.805  0.00  0.00    -0.028 A 
ATOM     35  C   UNL     1       1.686  -1.399  -1.974  0.00  0.00    +0.005 A 
ATOM     36  C   UNL     1       1.878  -2.768  -1.958  0.00  0.00    +0.000 A 
ENDBRANCH  30  34
ENDBRANCH   1  30
TORSDOF 7
