REMARK  Name = ZINC14476511
REMARK  7 active torsions:
REMARK  status: ('A' for Active; 'I' for Inactive)
REMARK    1  A    between atoms: C_1  and  N_2
REMARK    2  A    between atoms: N_5  and  S_8
REMARK    3  A    between atoms: S_8  and  C_11
REMARK    4  A    between atoms: C_24  and  C_27
REMARK    5  A    between atoms: C_32  and  O_33
REMARK    6  A    between atoms: O_33  and  C_34
REMARK    7  A    between atoms: C_34  and  C_35
REMARK                            x       y       z     vdW  Elec       q    Type
REMARK                         _______ _______ _______ _____ _____    ______ ____
ROOT
ATOM      1  C   UNL     1       3.693  -3.114  -0.187  0.00  0.00    +0.106 A 
ATOM      2  C   UNL     1       4.263  -2.815  -1.411  0.00  0.00    +0.030 A 
ATOM      3  C   UNL     1       5.520  -2.249  -1.471  0.00  0.00    +0.025 A 
ATOM      4  C   UNL     1       6.221  -1.972  -0.303  0.00  0.00    +0.031 A 
ATOM      5  C   UNL     1       5.633  -2.264   0.932  0.00  0.00    -0.018 A 
ATOM      6  C   UNL     1       4.378  -2.832   0.981  0.00  0.00    +0.034 A 
ATOM      7  C   UNL     1       6.395  -1.917   2.151  0.00  0.00    +0.049 C 
ATOM      8  C   UNL     1       6.210  -2.651   3.429  0.00  0.00    -0.023 C 
ATOM      9  C   UNL     1       7.361  -2.651   4.089  0.00  0.00    -0.030 C 
ATOM     10  C   UNL     1       8.434  -1.931   3.270  0.00  0.00    +0.033 C 
ATOM     11  C   UNL     1       7.907  -2.145   1.849  0.00  0.00    +0.029 C 
ATOM     12  C   UNL     1       8.279  -1.087   0.826  0.00  0.00    +0.108 C 
ATOM     13  N   UNL     1       7.504  -1.417  -0.390  0.00  0.00    -0.336 N 
ATOM     14  H   UNL     1       7.891  -1.246  -1.262  0.00  0.00    +0.147 HD
ENDROOT
BRANCH  12  15
ATOM     15  C   UNL     1       7.902   0.282   1.332  0.00  0.00    +0.015 A 
ATOM     16  C   UNL     1       6.689   0.840   0.976  0.00  0.00    +0.009 A 
ATOM     17  C   UNL     1       6.343   2.096   1.440  0.00  0.00    +0.001 A 
ATOM     18  C   UNL     1       7.209   2.796   2.260  0.00  0.00    +0.004 A 
ATOM     19  C   UNL     1       8.422   2.242   2.619  0.00  0.00    +0.046 A 
ATOM     20  C   UNL     1       8.770   0.979   2.159  0.00  0.00    +0.126 A 
BRANCH  20  21
ATOM     21  O   UNL     1       9.961   0.430   2.515  0.00  0.00    -0.487 OA
BRANCH  21  22
ATOM     22  C   UNL     1      10.804   1.205   3.369  0.00  0.00    +0.264 C 
BRANCH  22  23
ATOM     23  C   UNL     1      12.070   0.440   3.655  0.00  0.00    -0.010 A 
ATOM     24  C   UNL     1      12.133  -0.412   4.742  0.00  0.00    +0.007 A 
ATOM     25  C   UNL     1      13.295  -1.114   5.003  0.00  0.00    +0.000 A 
ATOM     26  C   UNL     1      14.393  -0.965   4.177  0.00  0.00    +0.000 A 
ATOM     27  C   UNL     1      14.330  -0.114   3.090  0.00  0.00    +0.000 A 
ATOM     28  C   UNL     1      13.167   0.585   2.826  0.00  0.00    +0.007 A 
ENDBRANCH  22  23
ENDBRANCH  21  22
ENDBRANCH  20  21
ENDBRANCH  12  15
BRANCH   1  29
ATOM     29  S   UNL     1       2.092  -3.845  -0.115  0.00  0.00    +0.061 S 
ATOM     30  O   UNL     1       2.009  -4.521   1.132  0.00  0.00    -0.153 OA
ATOM     31  O   UNL     1       1.892  -4.508  -1.356  0.00  0.00    -0.153 OA
BRANCH  29  36
ATOM     32  C   UNL     1      -0.018   1.465   0.010  0.00  0.00    +0.105 C 
ATOM     33  N   UNL     1       0.002  -0.004   0.002  0.00  0.00    -0.303 NA
ATOM     34  C   UNL     1       0.592  -0.516  -1.242  0.00  0.00    +0.101 C 
ATOM     35  C   UNL     1       0.430  -2.039  -1.292  0.00  0.00    +0.125 C 
ATOM     36  N   UNL     1       0.991  -2.608  -0.057  0.00  0.00    -0.174 NA
ATOM     37  C   UNL     1       0.549  -2.051   1.230  0.00  0.00    +0.125 C 
ATOM     38  C   UNL     1       0.706  -0.527   1.180  0.00  0.00    +0.101 C 
ENDBRANCH  29  36
ENDBRANCH   1  29
TORSDOF 6
