REMARK  Name = ZINC39715614
REMARK  7 active torsions:
REMARK  status: ('A' for Active; 'I' for Inactive)
REMARK    1  A    between atoms: C_1  and  C_2
REMARK    2  A    between atoms: C_2  and  N_3
REMARK    3  A    between atoms: C_7  and  C_32
REMARK    4  A    between atoms: C_11  and  C_12
REMARK    5  A    between atoms: C_12  and  S_13
REMARK    6  A    between atoms: S_13  and  C_14
REMARK    7  A    between atoms: C_28  and  C_31
REMARK                            x       y       z     vdW  Elec       q    Type
REMARK                         _______ _______ _______ _____ _____    ______ ____
ROOT
ATOM      1  C   UNL     1       4.290  -1.708   2.035  0.00  0.00    +0.147 C 
ATOM      2  N   UNL     1       4.806  -0.498   2.073  0.00  0.00    -0.337 N 
ATOM      3  C   UNL     1       5.828  -0.197   2.893  0.00  0.00    +0.053 A 
ATOM      4  C   UNL     1       6.383   1.087   2.942  0.00  0.00    +0.026 A 
ATOM      5  C   UNL     1       7.420   1.341   3.793  0.00  0.00    +0.002 A 
ATOM      6  C   UNL     1       7.934   0.344   4.613  0.00  0.00    +0.001 A 
ATOM      7  C   UNL     1       7.414  -0.919   4.589  0.00  0.00    +0.015 A 
ATOM      8  C   UNL     1       6.354  -1.208   3.730  0.00  0.00    +0.061 A 
ATOM      9  C   UNL     1       5.751  -2.546   3.658  0.00  0.00    +0.260 C 
ATOM     10  O   UNL     1       6.158  -3.463   4.353  0.00  0.00    -0.269 OA
ATOM     11  N   UNL     1       4.726  -2.720   2.798  0.00  0.00    -0.201 N 
ATOM     12  C   UNL     1       4.133  -3.939   2.699  0.00  0.00    +0.111 A 
ATOM     13  C   UNL     1       4.039  -4.763   3.822  0.00  0.00    +0.043 A 
ATOM     14  C   UNL     1       3.432  -5.997   3.702  0.00  0.00    +0.008 A 
ATOM     15  C   UNL     1       2.928  -6.390   2.460  0.00  0.00    -0.034 A 
ATOM     16  C   UNL     1       3.038  -5.561   1.390  0.00  0.00    +0.087 A 
ATOM     17  N   UNL     1       3.625  -4.354   1.509  0.00  0.00    -0.349 N 
ATOM     18  C   UNL     1       2.263  -7.733   2.307  0.00  0.00    +0.045 C 
ATOM     19  H   UNL     1       3.690  -3.775   0.733  0.00  0.00    +0.167 HD
ATOM     20  H   UNL     1       4.441   0.191   1.496  0.00  0.00    +0.168 HD
ENDROOT
BRANCH   1  21
ATOM     21  S   UNL     1       2.953  -2.012   0.929  0.00  0.00    -0.084 S 
BRANCH  21  22
ATOM     22  C   UNL     1       2.689  -0.414   0.111  0.00  0.00    +0.151 C 
BRANCH  22  31
ATOM     23  N   UNL     1       0.245  -0.310  -0.588  0.00  0.00    -0.327 N 
ATOM     24  C   UNL     1      -0.473  -0.518  -1.745  0.00  0.00    +0.069 A 
ATOM     25  C   UNL     1      -1.823  -0.438  -2.069  0.00  0.00    +0.029 A 
ATOM     26  C   UNL     1      -2.241  -0.712  -3.338  0.00  0.00    +0.017 A 
ATOM     27  C   UNL     1      -1.316  -1.076  -4.328  0.00  0.00    +0.065 A 
ATOM     28  C   UNL     1       0.041  -1.161  -4.021  0.00  0.00    +0.045 A 
ATOM     29  C   UNL     1       0.469  -0.882  -2.725  0.00  0.00    +0.090 A 
ATOM     30  N   UNL     1       1.688  -0.876  -2.124  0.00  0.00    -0.231 NA
ATOM     31  C   UNL     1       1.556  -0.536  -0.875  0.00  0.00    +0.121 A 
BRANCH  27  32
ATOM     32  C   UNL     1      -1.780  -1.369  -5.695  0.00  0.00    +0.387 C 
ATOM     33  O   UNL     1      -2.970  -1.296  -5.966  0.00  0.00    -0.241 OA
ATOM     34  O   UNL     1      -0.974  -1.687  -6.559  0.00  0.00    -0.241 OA
ENDBRANCH  27  32
BRANCH  23  36
ATOM     35  C   UNL     1      -0.331   1.613   0.808  0.00  0.00    +0.027 C 
ATOM     36  C   UNL     1      -0.302   0.087   0.712  0.00  0.00    +0.120 C 
ENDBRANCH  23  36
ENDBRANCH  22  31
ENDBRANCH  21  22
ENDBRANCH   1  21
TORSDOF 5
