REMARK  Name = ZINC09549761
REMARK  6 active torsions:
REMARK  status: ('A' for Active; 'I' for Inactive)
REMARK    1  A    between atoms: C_1  and  C_2
REMARK    2  A    between atoms: C_2  and  C_25
REMARK    3  A    between atoms: N_5  and  C_9
REMARK    4  A    between atoms: C_9  and  N_61
REMARK    5  A    between atoms: N_12  and  S_15
REMARK    6  A    between atoms: S_15  and  C_18
REMARK                            x       y       z     vdW  Elec       q    Type
REMARK                         _______ _______ _______ _____ _____    ______ ____
ROOT
ATOM      1  C   UNL     1      -2.958   0.677   1.452  0.00  0.00    +0.047 C 
ATOM      2  C   UNL     1      -2.513   0.975   0.019  0.00  0.00    +0.135 C 
ATOM      3  C   UNL     1      -3.591   1.737  -0.726  0.00  0.00    +0.249 C 
ATOM      4  O   UNL     1      -4.040   2.829  -0.450  0.00  0.00    -0.272 OA
ATOM      5  N   UNL     1      -3.946   0.948  -1.760  0.00  0.00    -0.241 N 
ATOM      6  C   UNL     1      -3.250  -0.194  -1.771  0.00  0.00    +0.308 C 
ATOM      7  O   UNL     1      -3.394  -1.065  -2.606  0.00  0.00    -0.252 OA
ATOM      8  N   UNL     1      -2.372  -0.274  -0.750  0.00  0.00    -0.281 N 
ATOM      9  H   UNL     1      -1.766  -1.006  -0.559  0.00  0.00    +0.152 HD
ENDROOT
BRANCH   2  10
ATOM     10  C   UNL     1      -1.219   1.748   0.017  0.00  0.00    -0.015 A 
ATOM     11  C   UNL     1      -1.239   3.130   0.030  0.00  0.00    +0.006 A 
ATOM     12  C   UNL     1      -0.052   3.836   0.022  0.00  0.00    +0.004 A 
ATOM     13  C   UNL     1       1.159   3.164   0.008  0.00  0.00    -0.044 A 
ATOM     14  C   UNL     1       1.179   1.782   0.000  0.00  0.00    -0.044 A 
ATOM     15  C   UNL     1      -0.013   1.076   0.008  0.00  0.00    +0.010 A 
ATOM     16  C   UNL     1       2.610   1.291  -0.016  0.00  0.00    +0.036 C 
ATOM     17  C   UNL     1       3.450   2.509  -0.459  0.00  0.00    +0.009 C 
ATOM     18  C   UNL     1       2.576   3.696  -0.004  0.00  0.00    +0.036 C 
ENDBRANCH   2  10
BRANCH   5  19
ATOM     19  C   UNL     1      -4.968   1.299  -2.749  0.00  0.00    +0.043 C 
BRANCH  19  25
ATOM     20  C   UNL     1      -4.127   3.429  -3.537  0.00  0.00    -0.059 C 
ATOM     21  C   UNL     1      -3.312   4.094  -4.651  0.00  0.00    +0.091 C 
ATOM     22  N   UNL     1      -3.989   3.851  -5.934  0.00  0.00    -0.180 NA
ATOM     23  C   UNL     1      -4.358   2.468  -6.275  0.00  0.00    +0.091 C 
ATOM     24  C   UNL     1      -5.133   1.867  -5.097  0.00  0.00    -0.059 C 
ATOM     25  N   UNL     1      -4.313   2.000  -3.873  0.00  0.00    +0.392 N 
ATOM     26  H   UNL     1      -3.393   1.575  -4.040  0.00  0.00    -0.079 HD
BRANCH  22  27
ATOM     27  S   UNL     1      -4.325   5.100  -6.968  0.00  0.00    +0.061 S 
ATOM     28  O   UNL     1      -3.402   6.137  -6.665  0.00  0.00    -0.153 OA
ATOM     29  O   UNL     1      -4.434   4.534  -8.267  0.00  0.00    -0.153 OA
BRANCH  27  30
ATOM     30  C   UNL     1      -5.924   5.708  -6.548  0.00  0.00    +0.106 A 
ATOM     31  C   UNL     1      -7.046   5.180  -7.157  0.00  0.00    +0.031 A 
ATOM     32  C   UNL     1      -8.301   5.653  -6.824  0.00  0.00    +0.040 A 
ATOM     33  C   UNL     1      -8.433   6.665  -5.888  0.00  0.00    +0.124 A 
ATOM     34  C   UNL     1      -7.308   7.197  -5.282  0.00  0.00    +0.040 A 
ATOM     35  C   UNL     1      -6.054   6.718  -5.612  0.00  0.00    +0.031 A 
ATOM     36  F   UNL     1      -9.659   7.131  -5.565  0.00  0.00    -0.205 F 
ENDBRANCH  27  30
ENDBRANCH  22  27
ENDBRANCH  19  25
ENDBRANCH   5  19
TORSDOF 5
