REMARK  Name = ZINC03240419
REMARK  9 active torsions:
REMARK  status: ('A' for Active; 'I' for Inactive)
REMARK    1  A    between atoms: C_1  and  C_2
REMARK    2  A    between atoms: C_2  and  C_3
REMARK    3  A    between atoms: C_3  and  C_5
REMARK    4  A    between atoms: C_3  and  C_6
REMARK    5  A    between atoms: C_11  and  N_12
REMARK    6  A    between atoms: C_13  and  C_15
REMARK    7  A    between atoms: C_15  and  S_16
REMARK    8  A    between atoms: S_16  and  C_17
REMARK    9  A    between atoms: C_19  and  C_26
REMARK                            x       y       z     vdW  Elec       q    Type
REMARK                         _______ _______ _______ _____ _____    ______ ____
ROOT
ATOM      1  S   UNL     1      -1.402  -1.145   0.491  0.00  0.00    -0.096 S 
ENDROOT
BRANCH   1   2
ATOM      2  C   UNL     1       0.074  -0.183   0.446  0.00  0.00    +0.109 A 
ATOM      3  C   UNL     1       1.336  -0.811   0.262  0.00  0.00    +0.047 A 
ATOM      4  C   UNL     1       1.656  -2.224   0.091  0.00  0.00    +0.001 A 
ATOM      5  C   UNL     1       2.952  -2.583  -0.069  0.00  0.00    +0.056 A 
ATOM      6  S   UNL     1       3.826  -1.031   0.003  0.00  0.00    -0.076 S 
ATOM      7  C   UNL     1       2.446   0.057   0.243  0.00  0.00    +0.113 A 
ATOM      8  N   UNL     1       2.303   1.361   0.387  0.00  0.00    -0.228 NA
ATOM      9  C   UNL     1       1.104   1.886   0.554  0.00  0.00    +0.223 A 
ATOM     10  N   UNL     1       0.020   1.133   0.582  0.00  0.00    -0.229 NA
BRANCH   4  11
ATOM     11  C   UNL     1       0.584  -3.247   0.091  0.00  0.00    -0.017 A 
ATOM     12  C   UNL     1       0.608  -4.285   1.022  0.00  0.00    +0.008 A 
ATOM     13  C   UNL     1      -0.397  -5.231   1.022  0.00  0.00    +0.001 A 
ATOM     14  C   UNL     1      -1.420  -5.158   0.093  0.00  0.00    +0.000 A 
ATOM     15  C   UNL     1      -1.445  -4.133  -0.837  0.00  0.00    +0.001 A 
ATOM     16  C   UNL     1      -0.449  -3.178  -0.842  0.00  0.00    +0.008 A 
ENDBRANCH   4  11
ENDBRANCH   1   2
BRANCH   1  17
ATOM     17  C   UNL     1      -2.624   0.167   0.739  0.00  0.00    +0.171 C 
BRANCH  17  19
ATOM     18  N   UNL     1      -5.078   0.354   0.993  0.00  0.00    -0.285 N 
ATOM     19  C   UNL     1      -4.003  -0.438   0.811  0.00  0.00    +0.227 C 
ATOM     20  O   UNL     1      -4.145  -1.638   0.705  0.00  0.00    -0.275 OA
ATOM     21  H   UNL     1      -4.973   1.318   1.007  0.00  0.00    +0.155 HD
BRANCH  18  27
ATOM     22  C   UNL     1      -7.470   0.431   0.668  0.00  0.00    -0.023 A 
ATOM     23  C   UNL     1      -8.719  -0.132   0.837  0.00  0.00    +0.006 A 
ATOM     24  C   UNL     1      -8.851  -1.339   1.500  0.00  0.00    +0.000 A 
ATOM     25  C   UNL     1      -7.733  -1.985   1.995  0.00  0.00    +0.002 A 
ATOM     26  C   UNL     1      -6.480  -1.429   1.823  0.00  0.00    +0.023 A 
ATOM     27  C   UNL     1      -6.345  -0.215   1.163  0.00  0.00    +0.037 A 
BRANCH  22  28
ATOM     28  C   UNL     1      -7.327   1.746  -0.055  0.00  0.00    +0.017 C 
ATOM     29  C   UNL     1      -7.753   1.575  -1.514  0.00  0.00    +0.012 C 
BRANCH  28  31
ATOM     30  C   UNL     1      -7.978   4.158  -0.038  0.00  0.00    +0.004 C 
ATOM     31  C   UNL     1      -8.216   2.796   0.616  0.00  0.00    +0.004 C 
ENDBRANCH  28  31
ENDBRANCH  22  28
ENDBRANCH  18  27
ENDBRANCH  17  19
ENDBRANCH   1  17
TORSDOF 7
