REMARK  Name = ZINC63731445
REMARK  7 active torsions:
REMARK  status: ('A' for Active; 'I' for Inactive)
REMARK    1  A    between atoms: C_1  and  C_2
REMARK    2  A    between atoms: C_2  and  C_3
REMARK    3  A    between atoms: C_3  and  C_5
REMARK    4  A    between atoms: C_3  and  S_13
REMARK    5  A    between atoms: S_13  and  C_14
REMARK    6  A    between atoms: C_19  and  C_22
REMARK    7  A    between atoms: N_25  and  C_26
REMARK                            x       y       z     vdW  Elec       q    Type
REMARK                         _______ _______ _______ _____ _____    ______ ____
ROOT
ATOM      1  C   UNL     1      -2.000   1.609   1.599  0.00  0.00    +0.260 C 
ATOM      2  N   UNL     1      -2.734   2.202   0.477  0.00  0.00    -0.230 NA
ATOM      3  C   UNL     1      -2.125   2.472  -0.631  0.00  0.00    +0.185 C 
ATOM      4  C   UNL     1      -0.638   2.298  -0.762  0.00  0.00    +0.083 C 
ATOM      5  C   UNL     1      -0.348   2.652  -2.018  0.00  0.00    +0.075 C 
ATOM      6  N   UNL     1      -1.495   3.036  -2.620  0.00  0.00    -0.152 NA
ATOM      7  N   UNL     1      -2.517   2.951  -1.837  0.00  0.00    -0.129 NA
ATOM      8  C   UNL     1       1.018   2.628  -2.652  0.00  0.00    +0.068 C 
ATOM      9  C   UNL     1       0.143   1.839   0.405  0.00  0.00    +0.133 C 
ATOM     10  N   UNL     1       1.357   1.365   0.334  0.00  0.00    -0.285 NA
ATOM     11  N   UNL     1      -0.582   1.977   1.600  0.00  0.00    -0.253 N 
ATOM     12  H   UNL     1       1.828   1.363  -0.514  0.00  0.00    +0.188 HD
ENDROOT
BRANCH  11  13
ATOM     13  C   UNL     1       0.037   2.451   2.761  0.00  0.00    +0.038 A 
ATOM     14  C   UNL     1       1.345   2.915   2.713  0.00  0.00    +0.024 A 
ATOM     15  C   UNL     1       1.953   3.384   3.862  0.00  0.00    +0.017 A 
ATOM     16  C   UNL     1       1.260   3.391   5.059  0.00  0.00    +0.018 A 
ATOM     17  C   UNL     1      -0.044   2.929   5.110  0.00  0.00    +0.017 A 
ATOM     18  C   UNL     1      -0.659   2.465   3.964  0.00  0.00    +0.024 A 
ATOM     19 BR   UNL     1       2.095   4.033   6.629  0.00  0.00    -0.050 Br
ENDBRANCH  11  13
BRANCH   1  20
ATOM     20  S   UNL     1      -2.138  -0.197   1.500  0.00  0.00    -0.102 S 
BRANCH  20  21
ATOM     21  C   UNL     1      -3.858  -0.533   1.966  0.00  0.00    +0.136 C 
BRANCH  21  22
ATOM     22  C   UNL     1      -4.063  -0.181   3.417  0.00  0.00    +0.229 C 
ATOM     23  O   UNL     1      -3.110  -0.100   4.162  0.00  0.00    -0.274 OA
ATOM     24  N   UNL     1      -5.307   0.042   3.887  0.00  0.00    -0.296 N 
ATOM     25  C   UNL     1      -6.479  -0.057   3.004  0.00  0.00    +0.136 C 
ATOM     26  C   UNL     1      -7.516  -0.964   3.678  0.00  0.00    +0.179 C 
ATOM     27  O   UNL     1      -7.760  -0.494   5.006  0.00  0.00    -0.377 OA
ATOM     28  C   UNL     1      -6.614  -0.536   5.861  0.00  0.00    +0.179 C 
ATOM     29  C   UNL     1      -5.532   0.387   5.300  0.00  0.00    +0.136 C 
ENDBRANCH  21  22
BRANCH  21  31
ATOM     30  C   UNL     1      -4.094  -2.342   0.259  0.00  0.00    +0.005 C 
ATOM     31  C   UNL     1      -4.164  -2.016   1.753  0.00  0.00    +0.020 C 
ENDBRANCH  21  31
ENDBRANCH  20  21
ENDBRANCH   1  20
TORSDOF 5
