REMARK  Name = ZINC35270514
REMARK  4 active torsions:
REMARK  status: ('A' for Active; 'I' for Inactive)
REMARK    1  A    between atoms: C_1  and  O_2
REMARK    2  A    between atoms: O_2  and  C_3
REMARK    3  A    between atoms: C_3  and  C_5
REMARK    4  A    between atoms: C_6  and  C_7
REMARK                            x       y       z     vdW  Elec       q    Type
REMARK                         _______ _______ _______ _____ _____    ______ ____
ROOT
ATOM      1  C   UNL     1      -2.500  -4.192   0.003  0.00  0.00    +0.012 A 
ATOM      2  C   UNL     1      -1.320  -4.952  -0.006  0.00  0.00    +0.013 A 
ATOM      3  C   UNL     1      -1.429  -6.330  -0.012  0.00  0.00    +0.036 A 
ATOM      4  C   UNL     1      -2.686  -6.912  -0.009  0.00  0.00    +0.108 A 
ATOM      5  N   UNL     1      -3.781  -6.174   0.000  0.00  0.00    -0.228 NA
ATOM      6  C   UNL     1      -3.732  -4.857   0.012  0.00  0.00    +0.138 A 
ATOM      7 CL   UNL     1      -5.206  -3.940   0.031  0.00  0.00    -0.061 Cl
ATOM      8 BR   UNL     1      -2.837  -8.797  -0.018  0.00  0.00    -0.029 Br
ENDROOT
BRANCH   1  10
ATOM      9  C   UNL     1      -1.248  -2.093   0.003  0.00  0.00    +0.092 C 
ATOM     10  C   UNL     1      -2.443  -2.722   0.011  0.00  0.00    +0.018 C 
BRANCH   9  11
ATOM     11  C   UNL     1      -1.192  -0.633   0.010  0.00  0.00    +0.332 C 
ATOM     12  O   UNL     1      -2.220   0.016   0.023  0.00  0.00    -0.246 OA
BRANCH  11  14
ATOM     13  C   UNL     1      -0.017   1.425   0.010  0.00  0.00    +0.280 C 
ATOM     14  O   UNL     1       0.002  -0.004   0.002  0.00  0.00    -0.465 OA
ENDBRANCH  11  14
ENDBRANCH   9  11
ENDBRANCH   1  10
TORSDOF 3
