REMARK  Name = ZINC58835009
REMARK  9 active torsions:
REMARK  status: ('A' for Active; 'I' for Inactive)
REMARK    1  A    between atoms: C_6  and  C_7
REMARK    2  A    between atoms: C_7  and  S_8
REMARK    3  A    between atoms: S_8  and  C_9
REMARK    4  A    between atoms: C_9  and  C_10
REMARK    5  A    between atoms: C_13  and  C_16
REMARK    6  A    between atoms: N_14  and  N_15
REMARK    7  A    between atoms: C_16  and  S_17
REMARK    8  A    between atoms: S_17  and  C_18
REMARK    9  A    between atoms: C_18  and  C_19
REMARK                            x       y       z     vdW  Elec       q    Type
REMARK                         _______ _______ _______ _____ _____    ______ ____
ROOT
ATOM      1  C   UNL     1      -3.938  -2.317  -2.877  0.00  0.00    +0.160 A 
ATOM      2  N   UNL     1      -4.758  -1.575  -3.569  0.00  0.00    -0.132 NA
ATOM      3  N   UNL     1      -5.027  -2.152  -4.686  0.00  0.00    -0.132 NA
ATOM      4  C   UNL     1      -4.391  -3.290  -4.757  0.00  0.00    +0.160 A 
ATOM      5  N   UNL     1      -3.677  -3.425  -3.614  0.00  0.00    -0.235 N 
ENDROOT
BRANCH   5   6
ATOM      6  N   UNL     1      -2.863  -4.466  -3.271  0.00  0.00    -0.295 N 
ATOM      7  H   UNL     1      -3.378  -5.181  -2.779  0.00  0.00    +0.163 HD
ATOM      8  H   UNL     1      -2.402  -4.847  -4.084  0.00  0.00    +0.163 HD
ENDBRANCH   5   6
BRANCH   1   9
ATOM      9  C   UNL     1      -3.378  -2.000  -1.514  0.00  0.00    +0.147 C 
BRANCH   9  10
ATOM     10  S   UNL     1      -1.829  -1.075  -1.697  0.00  0.00    -0.148 S 
BRANCH  10  11
ATOM     11  C   UNL     1      -1.293  -0.775   0.010  0.00  0.00    +0.104 C 
BRANCH  11  17
ATOM     12  C   UNL     1      -0.017   1.378   0.010  0.00  0.00    +0.006 A 
ATOM     13  C   UNL     1       1.171   2.086   0.002  0.00  0.00    +0.020 A 
ATOM     14  C   UNL     1       2.378   1.410  -0.013  0.00  0.00    +0.041 A 
ATOM     15  C   UNL     1       2.396   0.027  -0.021  0.00  0.00    +0.020 A 
ATOM     16  C   UNL     1       1.208  -0.679  -0.013  0.00  0.00    +0.006 A 
ATOM     17  C   UNL     1       0.002  -0.004   0.002  0.00  0.00    -0.037 A 
ATOM     18 CL   UNL     1       3.870   2.298  -0.023  0.00  0.00    -0.084 Cl
ENDBRANCH  11  17
ENDBRANCH  10  11
ENDBRANCH   9  10
ENDBRANCH   1   9
BRANCH   4  19
ATOM     19  C   UNL     1      -4.438  -4.269  -5.902  0.00  0.00    +0.147 C 
BRANCH  19  20
ATOM     20  S   UNL     1      -3.126  -3.873  -7.090  0.00  0.00    -0.148 S 
BRANCH  20  21
ATOM     21  C   UNL     1      -3.317  -5.126  -8.388  0.00  0.00    +0.104 C 
BRANCH  21  22
ATOM     22  C   UNL     1      -2.273  -4.909  -9.453  0.00  0.00    -0.037 A 
ATOM     23  C   UNL     1      -2.544  -4.081 -10.527  0.00  0.00    +0.006 A 
ATOM     24  C   UNL     1      -1.588  -3.881 -11.505  0.00  0.00    +0.020 A 
ATOM     25  C   UNL     1      -0.359  -4.509 -11.408  0.00  0.00    +0.041 A 
ATOM     26  C   UNL     1      -0.088  -5.337 -10.333  0.00  0.00    +0.020 A 
ATOM     27  C   UNL     1      -1.044  -5.532  -9.354  0.00  0.00    +0.006 A 
ATOM     28 CL   UNL     1       0.843  -4.259 -12.636  0.00  0.00    -0.084 Cl
ENDBRANCH  21  22
ENDBRANCH  20  21
ENDBRANCH  19  20
ENDBRANCH   4  19
TORSDOF 9
