REMARK  Name = ZINC63361879
REMARK  9 active torsions:
REMARK  status: ('A' for Active; 'I' for Inactive)
REMARK    1  A    between atoms: C_1  and  C_2
REMARK    2  A    between atoms: C_2  and  C_4
REMARK    3  A    between atoms: C_2  and  C_36
REMARK    4  A    between atoms: C_4  and  N_5
REMARK    5  A    between atoms: C_6  and  C_8
REMARK    6  A    between atoms: C_13  and  N_14
REMARK    7  A    between atoms: C_17  and  C_35
REMARK    8  A    between atoms: C_23  and  O_28
REMARK    9  A    between atoms: O_28  and  C_29
REMARK                            x       y       z     vdW  Elec       q    Type
REMARK                         _______ _______ _______ _____ _____    ______ ____
ROOT
ATOM      1  N   UNL     1       1.377  -1.176   6.264  0.00  0.00    -0.192 N 
ATOM      2  C   UNL     1       2.590  -0.599   6.393  0.00  0.00    +0.253 C 
ATOM      3  O   UNL     1       2.840   0.587   6.394  0.00  0.00    -0.272 OA
ATOM      4  C   UNL     1       3.574  -1.740   6.536  0.00  0.00    +0.137 C 
ATOM      5  C   UNL     1       4.574  -1.722   5.374  0.00  0.00    +0.139 C 
ATOM      6  C   UNL     1       5.144  -3.132   5.275  0.00  0.00    -0.034 C 
ATOM      7  C   UNL     1       6.462  -3.011   5.400  0.00  0.00    +0.003 A 
ATOM      8  C   UNL     1       7.548  -4.001   5.331  0.00  0.00    +0.055 A 
ATOM      9  C   UNL     1       8.813  -3.533   5.519  0.00  0.00    +0.121 A 
ATOM     10  C   UNL     1       9.123  -2.188   5.769  0.00  0.00    +0.047 A 
ATOM     11  C   UNL     1       8.201  -1.194   5.848  0.00  0.00    +0.029 A 
ATOM     12  C   UNL     1       6.795  -1.576   5.657  0.00  0.00    +0.043 A 
ATOM     13  N   UNL     1       5.710  -0.842   5.661  0.00  0.00    -0.375 N 
ATOM     14  C   UNL     1       4.285  -4.364   5.133  0.00  0.00    +0.052 C 
ATOM     15  C   UNL     1       3.229  -4.315   6.255  0.00  0.00    +0.115 C 
ATOM     16  N   UNL     1       2.728  -2.941   6.355  0.00  0.00    -0.268 N 
ATOM     17  C   UNL     1       1.461  -2.513   6.276  0.00  0.00    +0.317 C 
ATOM     18  O   UNL     1       0.499  -3.252   6.218  0.00  0.00    -0.252 OA
ATOM     19  C   UNL     1       4.269  -1.728   7.899  0.00  0.00    +0.044 C 
ATOM     20  H   UNL     1       5.660   0.113   5.825  0.00  0.00    +0.160 HD
ENDROOT
BRANCH   1  26
ATOM     21  C   UNL     1      -0.299  -0.111   4.872  0.00  0.00    +0.059 A 
ATOM     22  C   UNL     1      -1.500   0.594   4.761  0.00  0.00    +0.015 A 
ATOM     23  C   UNL     1      -2.201   0.940   5.896  0.00  0.00    +0.001 A 
ATOM     24  C   UNL     1      -1.721   0.592   7.148  0.00  0.00    +0.002 A 
ATOM     25  C   UNL     1      -0.536  -0.105   7.273  0.00  0.00    +0.025 A 
ATOM     26  C   UNL     1       0.181  -0.466   6.141  0.00  0.00    +0.058 A 
BRANCH  21  28
ATOM     27  N   UNL     1      -0.008  -0.140   2.444  0.00  0.00    -0.311 N 
ATOM     28  C   UNL     1       0.457  -0.484   3.661  0.00  0.00    +0.246 C 
ATOM     29  O   UNL     1       1.499  -1.102   3.762  0.00  0.00    -0.270 OA
ATOM     30  H   UNL     1      -0.840   0.353   2.364  0.00  0.00    +0.149 HD
BRANCH  27  31
ATOM     31  C   UNL     1       0.742  -0.511   1.242  0.00  0.00    +0.112 C 
BRANCH  31  33
ATOM     32  C   UNL     1      -0.019   1.526   0.010  0.00  0.00    +0.014 C 
ATOM     33  C   UNL     1       0.002  -0.004   0.002  0.00  0.00    +0.033 C 
BRANCH  33  34
ATOM     34  C   UNL     1       0.707  -0.490  -1.238  0.00  0.00    -0.043 A 
ATOM     35  C   UNL     1       2.026  -0.142  -1.464  0.00  0.00    +0.004 A 
ATOM     36  C   UNL     1       2.673  -0.587  -2.602  0.00  0.00    +0.000 A 
ATOM     37  C   UNL     1       2.002  -1.382  -3.512  0.00  0.00    +0.000 A 
ATOM     38  C   UNL     1       0.684  -1.731  -3.285  0.00  0.00    +0.000 A 
ATOM     39  C   UNL     1       0.038  -1.289  -2.146  0.00  0.00    +0.004 A 
ENDBRANCH  33  34
ENDBRANCH  31  33
ENDBRANCH  27  31
ENDBRANCH  21  28
ENDBRANCH   1  26
BRANCH   9  40
ATOM     40  O   UNL     1       9.838  -4.424   5.462  0.00  0.00    -0.495 OA
ATOM     41  C   UNL     1      11.156  -3.911   5.662  0.00  0.00    +0.277 C 
ENDBRANCH   9  40
TORSDOF 6
