REMARK  Name = ZINC42951366
REMARK  7 active torsions:
REMARK  status: ('A' for Active; 'I' for Inactive)
REMARK    1  A    between atoms: C_1  and  C_2
REMARK    2  A    between atoms: C_8  and  C_10
REMARK    3  A    between atoms: C_10  and  C_12
REMARK    4  A    between atoms: C_10  and  S_15
REMARK    5  A    between atoms: C_12  and  C_13
REMARK    6  A    between atoms: C_12  and  C_14
REMARK    7  A    between atoms: S_15  and  C_16
REMARK                            x       y       z     vdW  Elec       q    Type
REMARK                         _______ _______ _______ _____ _____    ______ ____
ROOT
ATOM      1  C   UNL     1      -0.145  -3.914   3.016  0.00  0.00    +0.143 C 
ENDROOT
BRANCH   1   9
ATOM      2  C   UNL     1       0.582   1.467  -0.146  0.00  0.00    +0.007 C 
ATOM      3  C   UNL     1       0.556  -0.062  -0.112  0.00  0.00    -0.011 C 
ATOM      4  C   UNL     1      -0.885  -0.552  -0.269  0.00  0.00    +0.022 C 
ATOM      5  C   UNL     1      -0.903  -2.083  -0.270  0.00  0.00    +0.108 C 
ATOM      6  N   UNL     1      -0.231  -2.565   0.945  0.00  0.00    -0.301 N 
ATOM      7  C   UNL     1       1.126  -2.084   1.240  0.00  0.00    +0.108 C 
ATOM      8  C   UNL     1       1.121  -0.552   1.223  0.00  0.00    +0.022 C 
ATOM      9  C   UNL     1      -0.848  -3.430   1.774  0.00  0.00    +0.229 C 
ATOM     10  O   UNL     1      -1.968  -3.819   1.520  0.00  0.00    -0.274 OA
ENDBRANCH   1   9
BRANCH   1  11
ATOM     11  C   UNL     1      -0.358  -2.907   4.148  0.00  0.00    +0.005 C 
ATOM     12  C   UNL     1      -1.840  -2.866   4.524  0.00  0.00    +0.009 C 
ATOM     13  C   UNL     1       0.466  -3.327   5.367  0.00  0.00    +0.009 C 
ENDBRANCH   1  11
BRANCH   1  14
ATOM     14  S   UNL     1      -0.823  -5.524   3.506  0.00  0.00    -0.073 S 
BRANCH  14  15
ATOM     15  C   UNL     1      -0.339  -6.605   2.200  0.00  0.00    +0.198 A 
ATOM     16  N   UNL     1       0.282  -6.248   1.107  0.00  0.00    -0.121 NA
ATOM     17  N   UNL     1       0.485  -7.396   0.329  0.00  0.00    -0.121 NA
ATOM     18  C   UNL     1      -0.019  -8.403   0.978  0.00  0.00    +0.202 A 
ATOM     19  N   UNL     1      -0.549  -7.975   2.167  0.00  0.00    -0.264 N 
ATOM     20  C   UNL     1      -1.136  -8.931   3.010  0.00  0.00    +0.065 A 
ATOM     21  C   UNL     1      -1.732  -8.691   4.258  0.00  0.00    +0.027 A 
ATOM     22  C   UNL     1      -2.274  -9.721   4.989  0.00  0.00    +0.002 A 
ATOM     23  C   UNL     1      -2.251 -11.024   4.521  0.00  0.00    +0.001 A 
ATOM     24  C   UNL     1      -1.670 -11.289   3.293  0.00  0.00    +0.017 A 
ATOM     25  C   UNL     1      -1.128 -10.256   2.563  0.00  0.00    +0.040 A 
ATOM     26  S   UNL     1      -0.320 -10.154   0.984  0.00  0.00    -0.048 S 
ENDBRANCH  14  15
ENDBRANCH   1  14
TORSDOF 4
