REMARK  Name = ZINC37524958
REMARK  6 active torsions:
REMARK  status: ('A' for Active; 'I' for Inactive)
REMARK    1  A    between atoms: C_1  and  C_2
REMARK    2  A    between atoms: C_2  and  C_3
REMARK    3  A    between atoms: C_2  and  N_4
REMARK    4  A    between atoms: N_7  and  C_8
REMARK    5  A    between atoms: N_11  and  C_14
REMARK    6  A    between atoms: C_19  and  C_20
REMARK                            x       y       z     vdW  Elec       q    Type
REMARK                         _______ _______ _______ _____ _____    ______ ____
ROOT
ATOM      1  C   UNL     1       7.623  -0.561  -4.516  0.00  0.00    +0.042 A 
ATOM      2  C   UNL     1       8.977  -0.667  -4.223  0.00  0.00    +0.024 A 
ATOM      3  C   UNL     1       9.902  -0.735  -5.245  0.00  0.00    +0.002 A 
ATOM      4  C   UNL     1       9.490  -0.699  -6.568  0.00  0.00    +0.001 A 
ATOM      5  C   UNL     1       8.152  -0.594  -6.878  0.00  0.00    +0.015 A 
ATOM      6  C   UNL     1       7.202  -0.529  -5.855  0.00  0.00    +0.058 A 
ENDROOT
BRANCH   6   7
ATOM      7  C   UNL     1       5.768  -0.422  -6.179  0.00  0.00    +0.248 C 
ATOM      8  O   UNL     1       5.097   0.462  -5.684  0.00  0.00    -0.270 OA
ATOM      9  N   UNL     1       5.201  -1.305  -7.025  0.00  0.00    -0.294 N 
ATOM     10  C   UNL     1       5.965  -2.456  -7.528  0.00  0.00    +0.127 C 
ATOM     11  C   UNL     1       5.190  -3.739  -7.203  0.00  0.00    +0.125 C 
ATOM     12  N   UNL     1       3.797  -3.568  -7.639  0.00  0.00    -0.314 N 
ATOM     13  C   UNL     1       3.033  -2.418  -7.136  0.00  0.00    +0.125 C 
ATOM     14  C   UNL     1       3.806  -1.138  -7.456  0.00  0.00    +0.127 C 
ATOM     15  C   UNL     1       3.212  -4.479  -8.511  0.00  0.00    +0.099 A 
ATOM     16  C   UNL     1       3.988  -5.483  -9.082  0.00  0.00    +0.042 A 
ATOM     17  C   UNL     1       3.394  -6.382  -9.948  0.00  0.00    +0.005 A 
ATOM     18  C   UNL     1       2.038  -6.247 -10.216  0.00  0.00    +0.018 A 
ATOM     19  C   UNL     1       1.328  -5.227  -9.614  0.00  0.00    +0.084 A 
ATOM     20  N   UNL     1       1.921  -4.387  -8.787  0.00  0.00    -0.350 N 
ATOM     21  H   UNL     1       1.398  -3.681  -8.375  0.00  0.00    +0.166 HD
ENDBRANCH   6   7
BRANCH   1  25
ATOM     22  C   UNL     1       4.163  -0.142  -2.268  0.00  0.00    +0.077 C 
ATOM     23  C   UNL     1       4.915   1.056  -2.852  0.00  0.00    +0.041 C 
ATOM     24  C   UNL     1       6.422   0.781  -2.806  0.00  0.00    +0.107 C 
ATOM     25  N   UNL     1       6.690  -0.492  -3.490  0.00  0.00    -0.329 N 
ATOM     26  C   UNL     1       5.953  -1.690  -3.066  0.00  0.00    +0.107 C 
ATOM     27  C   UNL     1       4.452  -1.387  -3.109  0.00  0.00    +0.041 C 
BRANCH  22  31
ATOM     28  N   UNL     1       0.837   1.070  -1.277  0.00  0.00    -0.297 N 
ATOM     29  C   UNL     1       2.160   0.818  -1.266  0.00  0.00    +0.300 C 
ATOM     30  O   UNL     1       2.846   1.209  -0.341  0.00  0.00    -0.253 OA
ATOM     31  N   UNL     1       2.724   0.132  -2.280  0.00  0.00    -0.296 N 
ATOM     32  H   UNL     1       0.290   0.758  -2.014  0.00  0.00    +0.150 HD
ATOM     33  H   UNL     1       2.177  -0.180  -3.018  0.00  0.00    +0.151 HD
BRANCH  28  35
ATOM     34  C   UNL     1       0.363   3.317  -0.434  0.00  0.00    +0.027 C 
ATOM     35  C   UNL     1       0.224   1.815  -0.174  0.00  0.00    +0.068 C 
ATOM     36  C   UNL     1      -1.259   1.450  -0.074  0.00  0.00    +0.027 C 
ENDBRANCH  28  35
ENDBRANCH  22  31
ENDBRANCH   1  25
TORSDOF 4
