REMARK  Name = ZINC26614989
REMARK  13 active torsions:
REMARK  status: ('A' for Active; 'I' for Inactive)
REMARK    1  A    between atoms: C_1  and  C_2
REMARK    2  A    between atoms: C_2  and  N_3
REMARK    3  A    between atoms: N_3  and  C_4
REMARK    4  A    between atoms: N_3  and  C_6
REMARK    5  A    between atoms: C_4  and  C_5
REMARK    6  A    between atoms: C_6  and  C_8
REMARK    7  A    between atoms: C_6  and  C_32
REMARK    8  A    between atoms: C_8  and  N_9
REMARK    9  A    between atoms: C_10  and  C_12
REMARK   10  A    between atoms: C_12  and  S_13
REMARK   11  A    between atoms: S_13  and  C_14
REMARK   12  A    between atoms: C_17  and  C_22
REMARK   13  A    between atoms: N_18  and  C_19
REMARK                            x       y       z     vdW  Elec       q    Type
REMARK                         _______ _______ _______ _____ _____    ______ ____
ROOT
ATOM      1  S   UNL     1       3.120   5.150   1.597  0.00  0.00    -0.077 S 
ENDROOT
BRANCH   1   2
ATOM      2  C   UNL     1       4.788   5.661   1.353  0.00  0.00    +0.193 A 
ATOM      3  N   UNL     1       5.850   4.889   1.370  0.00  0.00    -0.122 NA
ATOM      4  N   UNL     1       6.907   5.587   1.157  0.00  0.00    -0.128 NA
ATOM      5  C   UNL     1       6.586   6.850   0.990  0.00  0.00    +0.167 A 
ATOM      6  N   UNL     1       5.218   6.936   1.105  0.00  0.00    -0.299 N 
BRANCH   5   7
ATOM      7  C   UNL     1       7.517   7.965   0.724  0.00  0.00    +0.044 A 
ATOM      8  C   UNL     1       7.183   9.248   0.434  0.00  0.00    +0.095 A 
ATOM      9  N   UNL     1       8.315   9.989   0.252  0.00  0.00    -0.360 N 
ATOM     10  H   UNL     1       8.239  11.059   0.007  0.00  0.00    +0.165 HD
ATOM     11  C   UNL     1       9.433   9.199   0.420  0.00  0.00    +0.047 A 
ATOM     12  C   UNL     1       8.989   7.902   0.728  0.00  0.00    +0.010 A 
ATOM     13  C   UNL     1       9.913   6.882   0.945  0.00  0.00    +0.011 A 
ATOM     14  C   UNL     1      11.261   7.154   0.868  0.00  0.00    +0.001 A 
ATOM     15  C   UNL     1      11.700   8.436   0.569  0.00  0.00    +0.002 A 
ATOM     16  C   UNL     1      10.799   9.454   0.346  0.00  0.00    +0.026 A 
ENDBRANCH   5   7
BRANCH   6  17
ATOM     17  C   UNL     1       4.394   8.142   0.989  0.00  0.00    +0.091 C 
ATOM     18  C   UNL     1       2.925   8.036   1.402  0.00  0.00    +0.027 C 
ATOM     19  C   UNL     1       3.297   8.148  -0.078  0.00  0.00    +0.027 C 
ENDBRANCH   6  17
ENDBRANCH   1   2
BRANCH   1  20
ATOM     20  C   UNL     1       3.369   3.375   1.852  0.00  0.00    +0.173 C 
BRANCH  20  22
ATOM     21  N   UNL     1       1.978   1.380   2.303  0.00  0.00    -0.316 N 
ATOM     22  C   UNL     1       2.038   2.709   2.087  0.00  0.00    +0.223 C 
ATOM     23  O   UNL     1       1.021   3.370   2.083  0.00  0.00    -0.275 OA
ATOM     24  H   UNL     1       2.901   0.781   2.306  0.00  0.00    +0.149 HD
BRANCH  21  25
ATOM     25  C   UNL     1       0.684   0.733   2.531  0.00  0.00    +0.096 C 
BRANCH  25  26
ATOM     26  C   UNL     1       0.894  -0.767   2.747  0.00  0.00    +0.016 C 
BRANCH  26  27
ATOM     27  C   UNL     1      -0.444  -1.451   2.861  0.00  0.00    +0.093 A 
ATOM     28  C   UNL     1      -0.889  -2.132   3.932  0.00  0.00    +0.043 A 
ATOM     29  C   UNL     1      -2.184  -2.600   3.610  0.00  0.00    +0.041 A 
ATOM     30  C   UNL     1      -2.448  -2.184   2.358  0.00  0.00    +0.195 A 
ATOM     31  O   UNL     1      -1.391  -1.488   1.910  0.00  0.00    -0.469 OA
ENDBRANCH  26  27
BRANCH  26  32
ATOM     32  N   UNL     1       1.634  -1.326   1.607  0.00  0.00    +0.387 N 
ATOM     33  H   UNL     1       2.304  -0.543   1.222  0.00  0.00    -0.081 HD
BRANCH  32  35
ATOM     34  C   UNL     1       0.197  -0.454  -0.174  0.00  0.00    -0.017 C 
ATOM     35  C   UNL     1       0.720  -1.711   0.524  0.00  0.00    -0.081 C 
ENDBRANCH  32  35
BRANCH  32  36
ATOM     36  C   UNL     1       2.464  -2.464   2.025  0.00  0.00    -0.081 C 
ATOM     37  C   UNL     1       3.564  -1.974   2.968  0.00  0.00    -0.017 C 
ENDBRANCH  32  36
ENDBRANCH  26  32
ENDBRANCH  25  26
ENDBRANCH  21  25
ENDBRANCH  20  22
ENDBRANCH   1  20
TORSDOF 11
