REMARK  Name = ZINC03376474
REMARK  10 active torsions:
REMARK  status: ('A' for Active; 'I' for Inactive)
REMARK    1  A    between atoms: C_1  and  C_2
REMARK    2  A    between atoms: C_2  and  C_4
REMARK    3  A    between atoms: C_2  and  N_52
REMARK    4  A    between atoms: C_7  and  S_16
REMARK    5  A    between atoms: N_8  and  C_9
REMARK    6  A    between atoms: S_16  and  C_17
REMARK    7  A    between atoms: C_17  and  C_19
REMARK    8  A    between atoms: C_17  and  C_20
REMARK    9  A    between atoms: C_30  and  N_52
REMARK   10  A    between atoms: C_31  and  N_52
REMARK                            x       y       z     vdW  Elec       q    Type
REMARK                         _______ _______ _______ _____ _____    ______ ____
ROOT
ATOM      1  C   UNL     1       8.279   7.482   0.347  0.00  0.00    +0.125 A 
ATOM      2  N   UNL     1       8.545   6.292  -0.113  0.00  0.00    -0.135 NA
ATOM      3  N   UNL     1       7.473   5.585  -0.159  0.00  0.00    -0.122 NA
ATOM      4  C   UNL     1       6.452   6.293   0.264  0.00  0.00    +0.197 A 
ATOM      5  N   UNL     1       6.934   7.527   0.604  0.00  0.00    -0.275 N 
ENDROOT
BRANCH   5   6
ATOM      6  C   UNL     1       6.204   8.613   1.110  0.00  0.00    +0.050 A 
ATOM      7  C   UNL     1       6.091   9.781   0.368  0.00  0.00    +0.028 A 
ATOM      8  C   UNL     1       5.368  10.847   0.867  0.00  0.00    +0.022 A 
ATOM      9  C   UNL     1       4.765  10.755   2.109  0.00  0.00    +0.041 A 
ATOM     10  C   UNL     1       4.881   9.594   2.853  0.00  0.00    +0.022 A 
ATOM     11  C   UNL     1       5.599   8.523   2.356  0.00  0.00    +0.028 A 
ATOM     12 CL   UNL     1       3.862  12.099   2.736  0.00  0.00    -0.084 Cl
ENDBRANCH   5   6
BRANCH   1  14
ATOM     13  C   UNL     1      10.109   8.312   1.800  0.00  0.00    -0.005 C 
ATOM     14  C   UNL     1       9.267   8.600   0.555  0.00  0.00    -0.003 C 
BRANCH  14  17
ATOM     15  C   UNL     1       9.363   8.887  -1.847  0.00  0.00    -0.096 C 
ATOM     16  C   UNL     1      11.123   9.786  -0.449  0.00  0.00    -0.096 C 
ATOM     17  N   UNL     1      10.160   8.679  -0.620  0.00  0.00    +0.382 N 
ATOM     18  H   UNL     1      10.677   7.796  -0.705  0.00  0.00    -0.082 HD
ENDBRANCH  14  17
ENDBRANCH   1  14
BRANCH   4  19
ATOM     19  S   UNL     1       4.778   5.755   0.378  0.00  0.00    -0.073 S 
BRANCH  19  20
ATOM     20  C   UNL     1       4.950   4.062  -0.239  0.00  0.00    +0.137 C 
ATOM     21  C   UNL     1       5.378   4.095  -1.707  0.00  0.00    +0.029 C 
BRANCH  20  22
ATOM     22  C   UNL     1       3.629   3.346  -0.116  0.00  0.00    +0.231 C 
ATOM     23  O   UNL     1       2.595   3.980  -0.103  0.00  0.00    -0.274 OA
ATOM     24  N   UNL     1       3.597   2.002  -0.021  0.00  0.00    -0.269 N 
ATOM     25  C   UNL     1       2.374   1.332  -0.015  0.00  0.00    +0.125 A 
ATOM     26  C   UNL     1       2.350  -0.058  -0.024  0.00  0.00    +0.045 A 
ATOM     27  C   UNL     1       1.130  -0.710  -0.018  0.00  0.00    +0.025 A 
ATOM     28  C   UNL     1      -0.030   0.054  -0.003  0.00  0.00    +0.059 A 
ATOM     29  C   UNL     1       0.069   1.433   0.005  0.00  0.00    +0.132 A 
ATOM     30  N   UNL     1       1.247   2.026  -0.001  0.00  0.00    -0.239 NA
ATOM     31 CL   UNL     1      -1.587  -0.714   0.005  0.00  0.00    -0.082 Cl
ATOM     32  H   UNL     1       4.425   1.501   0.042  0.00  0.00    +0.156 HD
ENDBRANCH  20  22
ENDBRANCH  19  20
ENDBRANCH   4  19
TORSDOF 6
