REMARK  Name = ZINC35671603
REMARK  12 active torsions:
REMARK  status: ('A' for Active; 'I' for Inactive)
REMARK    1  A    between atoms: C_1  and  C_2
REMARK    2  A    between atoms: C_2  and  C_3
REMARK    3  A    between atoms: C_2  and  C_4
REMARK    4  A    between atoms: C_7  and  C_10
REMARK    5  A    between atoms: C_10  and  C_12
REMARK    6  A    between atoms: C_10  and  N_30
REMARK    7  A    between atoms: C_12  and  N_13
REMARK    8  A    between atoms: N_13  and  C_14
REMARK    9  A    between atoms: C_15  and  C_28
REMARK   10  A    between atoms: C_17  and  C_19
REMARK   11  A    between atoms: C_19  and  O_20
REMARK   12  A    between atoms: O_20  and  C_21
REMARK                            x       y       z     vdW  Elec       q    Type
REMARK                         _______ _______ _______ _____ _____    ______ ____
ROOT
ATOM      1  C   UNL     1      -5.496  -3.470   0.602  0.00  0.00    +0.094 C 
ENDROOT
BRANCH   1   2
ATOM      2  N   UNL     1      -4.947  -3.492   1.960  0.00  0.00    -0.314 N 
ATOM      3  H   UNL     1      -4.679  -2.664   2.387  0.00  0.00    +0.149 HD
BRANCH   2   4
ATOM      4  C   UNL     1      -4.812  -4.689   2.630  0.00  0.00    +0.225 A 
ATOM      5  C   UNL     1      -4.319  -4.870   3.911  0.00  0.00    +0.201 A 
ATOM      6  N   UNL     1      -4.367  -6.209   4.165  0.00  0.00    -0.198 NA
ATOM      7  C   UNL     1      -4.852  -6.812   3.124  0.00  0.00    +0.237 A 
ATOM      8  O   UNL     1      -5.140  -5.911   2.170  0.00  0.00    -0.421 OA
BRANCH   5   9
ATOM      9  C   UNL     1      -3.849  -3.849   4.798  0.00  0.00    +0.124 C 
ATOM     10  N   UNL     1      -3.476  -3.038   5.501  0.00  0.00    -0.189 NA
ENDBRANCH   5   9
BRANCH   7  11
ATOM     11  C   UNL     1      -5.067  -8.299   3.004  0.00  0.00    +0.324 C 
BRANCH  11  12
ATOM     12  O   UNL     1      -6.378  -8.629   3.465  0.00  0.00    -0.483 OA
BRANCH  12  13
ATOM     13  C   UNL     1      -6.734  -9.941   3.424  0.00  0.00    +0.121 A 
ATOM     14  C   UNL     1      -5.837 -10.889   2.956  0.00  0.00    +0.047 A 
ATOM     15  C   UNL     1      -6.201 -12.222   2.915  0.00  0.00    +0.023 A 
ATOM     16  C   UNL     1      -7.459 -12.610   3.340  0.00  0.00    +0.041 A 
ATOM     17  C   UNL     1      -8.356 -11.664   3.807  0.00  0.00    +0.023 A 
ATOM     18  C   UNL     1      -7.993 -10.332   3.855  0.00  0.00    +0.047 A 
ATOM     19 CL   UNL     1      -7.914 -14.284   3.287  0.00  0.00    -0.084 Cl
ENDBRANCH  12  13
ENDBRANCH  11  12
ENDBRANCH   7  11
ENDBRANCH   2   4
ENDBRANCH   1   2
BRANCH   1  20
ATOM     20  C   UNL     1      -5.414  -2.049   0.041  0.00  0.00    -0.020 C 
BRANCH  20  21
ATOM     21  N   UNL     1      -6.047  -2.009  -1.284  0.00  0.00    +0.385 N 
ATOM     22  C   UNL     1      -5.917  -0.659  -1.846  0.00  0.00    -0.078 C 
ATOM     23  C   UNL     1      -6.503  -0.631  -3.259  0.00  0.00    -0.019 C 
ATOM     24  C   UNL     1      -7.982  -1.022  -3.200  0.00  0.00    -0.004 C 
ATOM     25  C   UNL     1      -8.111  -2.400  -2.546  0.00  0.00    -0.019 C 
ATOM     26  C   UNL     1      -7.466  -2.362  -1.159  0.00  0.00    -0.078 C 
ATOM     27  H   UNL     1      -5.590  -2.670  -1.895  0.00  0.00    -0.081 HD
ENDBRANCH  20  21
BRANCH  20  31
ATOM     28  C   UNL     1      -1.317  -0.890  -0.300  0.00  0.00    -0.045 A 
ATOM     29  C   UNL     1      -2.070  -0.458   0.775  0.00  0.00    +0.004 A 
ATOM     30  C   UNL     1      -3.396  -0.833   0.885  0.00  0.00    +0.002 A 
ATOM     31  C   UNL     1      -3.969  -1.640  -0.080  0.00  0.00    -0.059 A 
ATOM     32  C   UNL     1      -3.215  -2.071  -1.156  0.00  0.00    +0.002 A 
ATOM     33  C   UNL     1      -1.891  -1.693  -1.268  0.00  0.00    +0.004 A 
BRANCH  28  35
ATOM     34  C   UNL     1       0.224   1.045  -0.485  0.00  0.00    +0.012 C 
ATOM     35  C   UNL     1       0.129  -0.481  -0.420  0.00  0.00    +0.013 C 
ATOM     36  C   UNL     1       0.905  -0.989   0.797  0.00  0.00    +0.012 C 
ENDBRANCH  28  35
ENDBRANCH  20  31
ENDBRANCH   1  20
TORSDOF 10
