REMARK  Name = ZINC48341824
REMARK  5 active torsions:
REMARK  status: ('A' for Active; 'I' for Inactive)
REMARK    1  A    between atoms: C_1  and  C_2
REMARK    2  A    between atoms: C_13  and  C_15
REMARK    3  A    between atoms: C_15  and  C_16
REMARK    4  A    between atoms: N_18  and  C_19
REMARK    5  A    between atoms: C_19  and  C_20
REMARK                            x       y       z     vdW  Elec       q    Type
REMARK                         _______ _______ _______ _____ _____    ______ ____
ROOT
ATOM      1  C   UNL     1      -0.249  -2.536  -2.317  0.00  0.00    +0.215 C 
ATOM      2  O   UNL     1       0.594  -1.749  -1.941  0.00  0.00    -0.276 OA
ATOM      3  N   UNL     1      -0.361  -2.829  -3.627  0.00  0.00    -0.311 N 
ATOM      4  H   UNL     1      -1.035  -3.459  -3.928  0.00  0.00    +0.149 HD
ENDROOT
BRANCH   1   5
ATOM      5  C   UNL     1      -1.172  -3.185  -1.318  0.00  0.00    +0.123 C 
BRANCH   5  18
ATOM      6  C   UNL     1      -0.403   1.121   0.235  0.00  0.00    +0.109 C 
ATOM      7  C   UNL     1      -0.109  -0.355   0.144  0.00  0.00    +0.217 C 
ATOM      8  O   UNL     1       1.036  -0.740   0.041  0.00  0.00    -0.276 OA
ATOM      9  N   UNL     1      -1.119  -1.246   0.177  0.00  0.00    -0.270 N 
ATOM     10  C   UNL     1      -2.433  -0.807   0.288  0.00  0.00    +0.079 C 
ATOM     11  C   UNL     1      -3.330  -1.562   0.933  0.00  0.00    +0.023 C 
ATOM     12  C   UNL     1      -2.913  -2.863   1.488  0.00  0.00    -0.019 A 
ATOM     13  C   UNL     1      -3.727  -3.549   2.389  0.00  0.00    +0.008 A 
ATOM     14  C   UNL     1      -3.307  -4.757   2.906  0.00  0.00    +0.001 A 
ATOM     15  C   UNL     1      -2.083  -5.286   2.535  0.00  0.00    +0.000 A 
ATOM     16  C   UNL     1      -1.273  -4.613   1.637  0.00  0.00    +0.006 A 
ATOM     17  C   UNL     1      -1.685  -3.410   1.106  0.00  0.00    -0.019 A 
ATOM     18  C   UNL     1      -0.836  -2.683   0.088  0.00  0.00    +0.120 C 
ENDBRANCH   5  18
ENDBRANCH   1   5
BRANCH   3  19
ATOM     19  C   UNL     1       0.536  -2.198  -4.599  0.00  0.00    +0.141 C 
BRANCH  19  20
ATOM     20  C   UNL     1       0.205  -2.693  -5.983  0.00  0.00    -0.014 A 
ATOM     21  C   UNL     1       0.827  -3.826  -6.490  0.00  0.00    +0.010 A 
ATOM     22  C   UNL     1       0.495  -4.247  -7.765  0.00  0.00    +0.042 A 
ATOM     23  C   UNL     1      -0.445  -3.524  -8.493  0.00  0.00    +0.099 A 
ATOM     24  N   UNL     1      -1.016  -2.448  -7.974  0.00  0.00    -0.349 N 
ATOM     25  C   UNL     1      -0.723  -2.027  -6.758  0.00  0.00    +0.089 A 
ATOM     26  N   UNL     1      -0.787  -3.935  -9.776  0.00  0.00    -0.317 N 
ATOM     27  C   UNL     1      -0.263  -5.190 -10.264  0.00  0.00    +0.106 C 
ATOM     28  C   UNL     1       1.100  -4.949 -10.958  0.00  0.00    +0.019 C 
ATOM     29  C   UNL     1       0.906  -4.249 -12.237  0.00  0.00    +0.002 C 
ATOM     30  C   UNL     1       0.298  -2.856 -12.105  0.00  0.00    +0.002 C 
ATOM     31  C   UNL     1      -1.205  -2.970 -12.047  0.00  0.00    +0.019 C 
ATOM     32  C   UNL     1      -1.676  -3.074 -10.581  0.00  0.00    +0.106 C 
ATOM     33  H   UNL     1      -1.669  -1.959  -8.499  0.00  0.00    +0.167 HD
ENDBRANCH  19  20
ENDBRANCH   3  19
TORSDOF 4
