REMARK  Name = ZINC01033664
REMARK  2 active torsions:
REMARK  status: ('A' for Active; 'I' for Inactive)
REMARK    1  A    between atoms: C_4  and  C_7
REMARK    2  A    between atoms: C_21  and  C_22
REMARK                            x       y       z     vdW  Elec       q    Type
REMARK                         _______ _______ _______ _____ _____    ______ ____
ROOT
ATOM      1  C   UNL     1       3.689  -0.701  -0.029  0.00  0.00    +0.022 A 
ATOM      2  C   UNL     1       4.026  -1.580  -1.097  0.00  0.00    +0.045 A 
ATOM      3  C   UNL     1       3.224  -1.933  -2.277  0.00  0.00    +0.095 A 
ATOM      4  C   UNL     1       3.812  -2.829  -3.168  0.00  0.00    +0.104 A 
ATOM      5  C   UNL     1       3.144  -3.242  -4.330  0.00  0.00    +0.266 A 
ATOM      6  O   UNL     1       3.662  -4.026  -5.107  0.00  0.00    -0.267 OA
ATOM      7  N   UNL     1       1.906  -2.744  -4.564  0.00  0.00    -0.313 N 
ATOM      8  H   UNL     1       1.414  -3.007  -5.357  0.00  0.00    +0.170 HD
ATOM      9  C   UNL     1       1.363  -1.873  -3.675  0.00  0.00    +0.199 A 
ATOM     10  N   UNL     1       1.975  -1.488  -2.600  0.00  0.00    -0.236 NA
ATOM     11  S   UNL     1       5.395  -3.198  -2.460  0.00  0.00    -0.060 S 
ATOM     12  C   UNL     1       5.294  -2.187  -1.004  0.00  0.00    +0.134 A 
ATOM     13  N   UNL     1       6.108  -1.954   0.004  0.00  0.00    -0.141 NA
ATOM     14  N   UNL     1       5.793  -1.158   0.964  0.00  0.00    -0.148 NA
ATOM     15  C   UNL     1       4.630  -0.518   0.992  0.00  0.00    +0.102 A 
ENDROOT
BRANCH   1  19
ATOM     16  C   UNL     1      -0.049   1.320   0.049  0.00  0.00    +0.000 A 
ATOM     17  C   UNL     1       1.120   2.040  -0.123  0.00  0.00    +0.001 A 
ATOM     18  C   UNL     1       2.337   1.390  -0.149  0.00  0.00    +0.008 A 
ATOM     19  C   UNL     1       2.387   0.003  -0.001  0.00  0.00    -0.015 A 
ATOM     20  C   UNL     1       1.205  -0.717   0.172  0.00  0.00    +0.008 A 
ATOM     21  C   UNL     1      -0.006  -0.055   0.196  0.00  0.00    +0.001 A 
ENDBRANCH   1  19
BRANCH  15  22
ATOM     22  C   UNL     1       4.322   0.393   2.119  0.00  0.00    +0.003 A 
ATOM     23  C   UNL     1       3.068   0.353   2.729  0.00  0.00    +0.010 A 
ATOM     24  C   UNL     1       2.787   1.204   3.779  0.00  0.00    +0.001 A 
ATOM     25  C   UNL     1       3.746   2.095   4.226  0.00  0.00    +0.000 A 
ATOM     26  C   UNL     1       4.991   2.140   3.625  0.00  0.00    +0.001 A 
ATOM     27  C   UNL     1       5.285   1.290   2.578  0.00  0.00    +0.010 A 
ENDBRANCH  15  22
TORSDOF 2
