REMARK  Name = ZINC23248793
REMARK  5 active torsions:
REMARK  status: ('A' for Active; 'I' for Inactive)
REMARK    1  A    between atoms: C_4  and  C_7
REMARK    2  A    between atoms: C_18  and  C_20
REMARK    3  A    between atoms: C_20  and  N_21
REMARK    4  A    between atoms: N_24  and  C_27
REMARK    5  A    between atoms: C_27  and  C_28
REMARK                            x       y       z     vdW  Elec       q    Type
REMARK                         _______ _______ _______ _____ _____    ______ ____
ROOT
ATOM      1  C   UNL     1      -2.677  -6.511   8.893  0.00  0.00    +0.149 C 
ATOM      2  C   UNL     1      -2.853  -6.920  10.362  0.00  0.00    +0.256 C 
ATOM      3  O   UNL     1      -4.130  -6.467  10.816  0.00  0.00    -0.488 OA
ATOM      4  C   UNL     1      -4.464  -5.171  10.578  0.00  0.00    +0.142 A 
ATOM      5  C   UNL     1      -5.460  -4.569  11.332  0.00  0.00    +0.047 A 
ATOM      6  C   UNL     1      -5.809  -3.253  11.093  0.00  0.00    +0.004 A 
ATOM      7  C   UNL     1      -5.168  -2.530  10.104  0.00  0.00    +0.002 A 
ATOM      8  C   UNL     1      -4.172  -3.121   9.348  0.00  0.00    +0.027 A 
ATOM      9  C   UNL     1      -3.815  -4.440   9.588  0.00  0.00    +0.079 A 
ATOM     10  N   UNL     1      -2.805  -5.045   8.821  0.00  0.00    -0.259 N 
ATOM     11  C   UNL     1      -1.979  -4.310   8.050  0.00  0.00    +0.204 C 
ATOM     12  O   UNL     1      -2.034  -3.099   8.087  0.00  0.00    -0.277 OA
ENDROOT
BRANCH   1  16
ATOM     13  C   UNL     1      -5.699  -8.351   6.500  0.00  0.00    +0.000 A 
ATOM     14  C   UNL     1      -4.418  -8.869   6.513  0.00  0.00    +0.000 A 
ATOM     15  C   UNL     1      -3.439  -8.274   7.288  0.00  0.00    +0.005 A 
ATOM     16  C   UNL     1      -3.743  -7.160   8.048  0.00  0.00    -0.023 A 
ATOM     17  C   UNL     1      -5.026  -6.645   8.039  0.00  0.00    +0.005 A 
ATOM     18  C   UNL     1      -6.003  -7.237   7.261  0.00  0.00    +0.000 A 
ENDBRANCH   1  16
BRANCH  11  19
ATOM     19  C   UNL     1      -0.989  -4.993   7.143  0.00  0.00    +0.019 C 
BRANCH  19  20
ATOM     20  N   UNL     1      -0.314  -3.988   6.310  0.00  0.00    +0.387 N 
ATOM     21  C   UNL     1       0.820  -4.579   5.586  0.00  0.00    -0.063 C 
ATOM     22  C   UNL     1       1.542  -3.486   4.794  0.00  0.00    +0.066 C 
ATOM     23  N   UNL     1       0.597  -2.854   3.862  0.00  0.00    -0.298 NA
ATOM     24  C   UNL     1      -0.537  -2.263   4.587  0.00  0.00    +0.066 C 
ATOM     25  C   UNL     1      -1.259  -3.356   5.378  0.00  0.00    -0.063 C 
ATOM     26  H   UNL     1       0.079  -3.206   6.977  0.00  0.00    -0.081 HD
BRANCH  23  27
ATOM     27  C   UNL     1       1.272  -1.850   3.030  0.00  0.00    +0.180 C 
BRANCH  27  28
ATOM     28  C   UNL     1       0.342  -1.402   1.931  0.00  0.00    +0.230 C 
ATOM     29  O   UNL     1      -0.772  -1.874   1.849  0.00  0.00    -0.274 OA
ATOM     30  N   UNL     1       0.750  -0.478   1.038  0.00  0.00    -0.296 N 
ATOM     31  C   UNL     1      -0.140  -0.025  -0.043  0.00  0.00    +0.136 C 
ATOM     32  C   UNL     1      -0.165   1.507  -0.039  0.00  0.00    +0.179 C 
ATOM     33  O   UNL     1       1.177   2.000  -0.073  0.00  0.00    -0.377 OA
ATOM     34  C   UNL     1       1.963   1.635   1.065  0.00  0.00    +0.179 C 
ATOM     35  C   UNL     1       2.097   0.109   1.117  0.00  0.00    +0.136 C 
ENDBRANCH  27  28
ENDBRANCH  23  27
ENDBRANCH  19  20
ENDBRANCH  11  19
TORSDOF 5
