REMARK  Name = ZINC39696532
REMARK  9 active torsions:
REMARK  status: ('A' for Active; 'I' for Inactive)
REMARK    1  A    between atoms: C_1  and  C_2
REMARK    2  A    between atoms: C_2  and  C_3
REMARK    3  A    between atoms: C_2  and  C_4
REMARK    4  A    between atoms: C_2  and  S_5
REMARK    5  A    between atoms: S_5  and  C_6
REMARK    6  A    between atoms: C_6  and  C_7
REMARK    7  A    between atoms: C_7  and  N_8
REMARK    8  A    between atoms: C_9  and  C_11
REMARK    9  A    between atoms: C_22  and  C_24
REMARK                            x       y       z     vdW  Elec       q    Type
REMARK                         _______ _______ _______ _____ _____    ______ ____
ROOT
ATOM      1  C   UNL     1       7.621   0.521  -2.586  0.00  0.00    +0.100 C 
ATOM      2  C   UNL     1       7.251   1.916  -3.137  0.00  0.00    +0.121 C 
ATOM      3  N   UNL     1       8.427   2.325  -3.942  0.00  0.00    -0.300 N 
ATOM      4  C   UNL     1       8.856   1.080  -4.625  0.00  0.00    +0.115 C 
ATOM      5  C   UNL     1       8.674  -0.024  -3.565  0.00  0.00    -0.004 C 
ATOM      6  C   UNL     1       9.991  -0.279  -2.837  0.00  0.00    -0.010 C 
ATOM      7  C   UNL     1      11.004  -0.874  -3.820  0.00  0.00    -0.082 C 
ATOM      8  N   UNL     1      10.476  -2.128  -4.371  0.00  0.00    +0.379 N 
ATOM      9  C   UNL     1       9.259  -1.860  -5.147  0.00  0.00    -0.082 C 
ATOM     10  C   UNL     1       8.172  -1.307  -4.221  0.00  0.00    -0.010 C 
ATOM     11  C   UNL     1       8.980   3.550  -4.033  0.00  0.00    +0.219 C 
ATOM     12  O   UNL     1       8.561   4.457  -3.346  0.00  0.00    -0.275 OA
ATOM     13  H   UNL     1      11.169  -2.549  -4.970  0.00  0.00    -0.086 HD
ATOM     14  H   UNL     1      10.259  -2.761  -3.616  0.00  0.00    -0.086 HD
ENDROOT
BRANCH  11  15
ATOM     15  C   UNL     1      10.120   3.792  -4.988  0.00  0.00    +0.079 C 
ATOM     16  C   UNL     1      10.958   4.981  -4.500  0.00  0.00    +0.017 C 
ATOM     17  C   UNL     1      12.202   5.092  -5.384  0.00  0.00    +0.027 C 
ATOM     18  C   UNL     1      11.813   5.051  -6.832  0.00  0.00    -0.031 C 
ATOM     19  C   UNL     1      10.668   4.627  -7.264  0.00  0.00    -0.030 C 
ATOM     20  C   UNL     1       9.567   4.122  -6.376  0.00  0.00    +0.039 C 
ENDBRANCH  11  15
BRANCH   1  22
ATOM     21  N   UNL     1       6.324  -1.373  -1.666  0.00  0.00    -0.314 N 
ATOM     22  C   UNL     1       6.409  -0.374  -2.566  0.00  0.00    +0.218 C 
ATOM     23  O   UNL     1       5.511  -0.195  -3.361  0.00  0.00    -0.275 OA
ATOM     24  H   UNL     1       7.042  -1.516  -1.030  0.00  0.00    +0.149 HD
BRANCH  21  25
ATOM     25  C   UNL     1       5.145  -2.243  -1.647  0.00  0.00    +0.115 C 
BRANCH  25  26
ATOM     26  C   UNL     1       5.299  -3.286  -0.538  0.00  0.00    +0.088 C 
BRANCH  26  27
ATOM     27  S   UNL     1       3.840  -4.364  -0.515  0.00  0.00    -0.153 S 
BRANCH  27  29
ATOM     28  C   UNL     1       4.341  -4.754   2.145  0.00  0.00    +0.022 C 
ATOM     29  C   UNL     1       4.175  -5.527   0.836  0.00  0.00    +0.008 C 
ATOM     30  C   UNL     1       5.459  -6.303   0.534  0.00  0.00    +0.022 C 
ATOM     31  C   UNL     1       3.007  -6.507   0.967  0.00  0.00    +0.022 C 
ENDBRANCH  27  29
ENDBRANCH  26  27
ENDBRANCH  25  26
ENDBRANCH  21  25
ENDBRANCH   1  22
TORSDOF 6
