REMARK  Name = ZINC36080271
REMARK  9 active torsions:
REMARK  status: ('A' for Active; 'I' for Inactive)
REMARK    1  A    between atoms: C_1  and  C_2
REMARK    2  A    between atoms: C_2  and  O_3
REMARK    3  A    between atoms: O_3  and  C_4
REMARK    4  A    between atoms: C_4  and  C_6
REMARK    5  A    between atoms: C_7  and  C_21
REMARK    6  A    between atoms: C_12  and  C_14
REMARK    7  A    between atoms: C_21  and  N_22
REMARK    8  A    between atoms: C_25  and  C_28
REMARK    9  A    between atoms: C_31  and  C_34
REMARK                            x       y       z     vdW  Elec       q    Type
REMARK                         _______ _______ _______ _____ _____    ______ ____
ROOT
ATOM      1  C   UNL     1      -2.795  -2.407   0.105  0.00  0.00    +0.079 C 
ATOM      2  C   UNL     1      -2.985  -3.731  -0.085  0.00  0.00    +0.038 C 
ATOM      3  N   UNL     1      -4.241  -4.258  -0.165  0.00  0.00    -0.271 N 
ATOM      4  C   UNL     1      -5.360  -3.530  -0.066  0.00  0.00    +0.304 C 
ATOM      5  O   UNL     1      -6.436  -4.090  -0.151  0.00  0.00    -0.252 OA
ATOM      6  N   UNL     1      -5.333  -2.196   0.124  0.00  0.00    -0.288 N 
ATOM      7  C   UNL     1      -4.024  -1.530   0.231  0.00  0.00    +0.144 C 
ATOM      8  H   UNL     1      -4.329  -5.215  -0.302  0.00  0.00    +0.156 HD
ATOM      9  H   UNL     1      -6.156  -1.687   0.193  0.00  0.00    +0.151 HD
ENDROOT
BRANCH   7  10
ATOM     10  C   UNL     1      -3.961  -0.831   1.565  0.00  0.00    -0.022 A 
ATOM     11  C   UNL     1      -4.334  -1.501   2.715  0.00  0.00    +0.008 A 
ATOM     12  C   UNL     1      -4.276  -0.861   3.938  0.00  0.00    +0.038 A 
ATOM     13  C   UNL     1      -3.844   0.453   4.012  0.00  0.00    +0.123 A 
ATOM     14  C   UNL     1      -3.471   1.123   2.859  0.00  0.00    +0.038 A 
ATOM     15  C   UNL     1      -3.525   0.479   1.638  0.00  0.00    +0.008 A 
ATOM     16  F   UNL     1      -3.788   1.079   5.207  0.00  0.00    -0.205 F 
ENDBRANCH   7  10
BRANCH   1  17
ATOM     17  C   UNL     1      -1.494  -1.859   0.190  0.00  0.00    +0.339 C 
ATOM     18  O   UNL     1      -1.010  -1.604   1.277  0.00  0.00    -0.245 OA
BRANCH  17  19
ATOM     19  O   UNL     1      -0.788  -1.619  -0.936  0.00  0.00    -0.462 OA
BRANCH  19  21
ATOM     20  C   UNL     1       1.159  -0.865  -2.151  0.00  0.00    +0.048 C 
ATOM     21  C   UNL     1       0.519  -1.065  -0.776  0.00  0.00    +0.229 C 
ENDBRANCH  19  21
ENDBRANCH  17  19
ENDBRANCH   1  17
BRANCH   2  22
ATOM     22  C   UNL     1      -1.789  -4.640  -0.210  0.00  0.00    +0.135 C 
BRANCH  22  23
ATOM     23  N   UNL     1      -1.770  -5.582   0.917  0.00  0.00    -0.296 NA
ATOM     24  C   UNL     1      -1.340  -4.907   2.168  0.00  0.00    +0.085 C 
ATOM     25  C   UNL     1      -0.855  -6.053   3.082  0.00  0.00    +0.025 C 
ATOM     26  C   UNL     1      -0.468  -7.195   2.120  0.00  0.00    +0.034 C 
ATOM     27  C   UNL     1      -0.753  -6.644   0.707  0.00  0.00    +0.093 C 
BRANCH  26  28
ATOM     28  C   UNL     1       0.993  -7.533   2.268  0.00  0.00    -0.043 A 
ATOM     29  C   UNL     1       1.952  -6.559   2.059  0.00  0.00    +0.004 A 
ATOM     30  C   UNL     1       3.292  -6.869   2.195  0.00  0.00    +0.003 A 
ATOM     31  C   UNL     1       3.674  -8.151   2.541  0.00  0.00    -0.050 A 
ATOM     32  C   UNL     1       2.715  -9.124   2.751  0.00  0.00    +0.003 A 
ATOM     33  C   UNL     1       1.375  -8.814   2.620  0.00  0.00    +0.004 A 
ATOM     34  C   UNL     1       5.135  -8.489   2.688  0.00  0.00    +0.044 C 
ENDBRANCH  26  28
ENDBRANCH  22  23
ENDBRANCH   2  22
TORSDOF 7
