REMARK  Name = ZINC34786440
REMARK  7 active torsions:
REMARK  status: ('A' for Active; 'I' for Inactive)
REMARK    1  A    between atoms: C_1  and  C_2
REMARK    2  A    between atoms: C_4  and  C_31
REMARK    3  A    between atoms: N_20  and  N_21
REMARK    4  A    between atoms: N_20  and  N_28
REMARK    5  A    between atoms: N_21  and  C_22
REMARK    6  A    between atoms: N_28  and  C_29
REMARK    7  A    between atoms: N_28  and  C_30
REMARK                            x       y       z     vdW  Elec       q    Type
REMARK                         _______ _______ _______ _____ _____    ______ ____
ROOT
ATOM      1  C   UNL     1      -1.606   1.347  -0.086  0.00  0.00    +0.067 C 
ATOM      2  C   UNL     1      -1.370  -0.142  -0.084  0.00  0.00    +0.061 A 
ATOM      3  C   UNL     1      -1.427  -0.981  -1.204  0.00  0.00    +0.048 A 
ATOM      4  C   UNL     1      -1.159  -2.241  -0.794  0.00  0.00    +0.045 A 
ATOM      5  N   UNL     1      -0.939  -2.200   0.547  0.00  0.00    -0.202 N 
ATOM      6  N   UNL     1      -1.074  -0.869   0.962  0.00  0.00    -0.169 NA
ATOM      7  C   UNL     1      -0.630  -3.288   1.363  0.00  0.00    +0.254 A 
ATOM      8  N   UNL     1      -0.447  -3.095   2.663  0.00  0.00    -0.192 NA
ATOM      9  C   UNL     1      -0.152  -4.086   3.486  0.00  0.00    +0.164 A 
ATOM     10  C   UNL     1      -0.025  -5.406   2.968  0.00  0.00    +0.054 A 
ATOM     11  C   UNL     1       0.294  -6.643   3.683  0.00  0.00    -0.025 A 
ATOM     12  C   UNL     1       0.356  -7.774   2.951  0.00  0.00    -0.004 A 
ATOM     13  S   UNL     1      -0.002  -7.270   1.289  0.00  0.00    -0.073 S 
ATOM     14  C   UNL     1      -0.233  -5.535   1.581  0.00  0.00    +0.116 A 
ATOM     15  N   UNL     1      -0.530  -4.495   0.827  0.00  0.00    -0.203 NA
ATOM     16  C   UNL     1       0.662  -9.157   3.441  0.00  0.00    +0.043 C 
ATOM     17  C   UNL     1       1.265  -9.050   4.848  0.00  0.00    +0.005 C 
ATOM     18  C   UNL     1       0.393  -8.111   5.686  0.00  0.00    +0.005 C 
ATOM     19  C   UNL     1       0.550  -6.673   5.187  0.00  0.00    +0.037 C 
ATOM     20  N   UNL     1       0.031  -3.844   4.836  0.00  0.00    -0.179 N 
ATOM     21  C   UNL     1      -1.112  -3.470  -1.666  0.00  0.00    +0.066 C 
ENDROOT
BRANCH  20  22
ATOM     22  N   UNL     1      -0.915  -3.155   5.540  0.00  0.00    -0.217 NA
ATOM     23  C   UNL     1      -1.458  -3.974   6.633  0.00  0.00    +0.129 C 
ATOM     24  C   UNL     1      -0.373  -1.889   6.051  0.00  0.00    +0.129 C 
ENDBRANCH  20  22
BRANCH  20  25
ATOM     25  N   UNL     1       1.158  -4.293   5.463  0.00  0.00    -0.221 NA
ATOM     26  H   UNL     1       0.960  -4.557   6.417  0.00  0.00    +0.146 HD
BRANCH  25  27
ATOM     27  C   UNL     1       2.228  -3.288   5.407  0.00  0.00    +0.074 C 
ATOM     28  C   UNL     1       3.066  -3.505   4.146  0.00  0.00    +0.020 C 
ATOM     29  C   UNL     1       4.180  -2.458   4.087  0.00  0.00    +0.002 C 
ATOM     30  C   UNL     1       5.073  -2.594   5.322  0.00  0.00    +0.000 C 
ATOM     31  C   UNL     1       4.235  -2.377   6.584  0.00  0.00    +0.002 C 
ATOM     32  C   UNL     1       3.121  -3.424   6.642  0.00  0.00    +0.020 C 
ENDBRANCH  25  27
ENDBRANCH  20  25
TORSDOF 3
