REMARK  Name = ZINC04587382
REMARK  9 active torsions:
REMARK  status: ('A' for Active; 'I' for Inactive)
REMARK    1  A    between atoms: C_1  and  C_2
REMARK    2  A    between atoms: C_2  and  C_3
REMARK    3  A    between atoms: C_3  and  C_5
REMARK    4  A    between atoms: C_3  and  N_6
REMARK    5  A    between atoms: C_12  and  C_19
REMARK    6  A    between atoms: N_17  and  C_18
REMARK    7  A    between atoms: C_21  and  C_27
REMARK    8  A    between atoms: C_22  and  C_26
REMARK    9  A    between atoms: C_24  and  C_25
REMARK                            x       y       z     vdW  Elec       q    Type
REMARK                         _______ _______ _______ _____ _____    ______ ____
ROOT
ATOM      1  N   UNL     1       2.986   0.673  -3.645  0.00  0.00    -0.289 N 
ATOM      2  C   UNL     1       4.212   1.419  -3.322  0.00  0.00    +0.159 C 
ATOM      3  C   UNL     1       4.074   1.780  -1.860  0.00  0.00    +0.042 C 
ATOM      4  C   UNL     1       2.892   1.273  -1.454  0.00  0.00    +0.058 C 
ATOM      5  C   UNL     1       2.248   0.614  -2.522  0.00  0.00    +0.247 C 
ATOM      6  O   UNL     1       1.165   0.064  -2.438  0.00  0.00    -0.270 OA
ATOM      7  C   UNL     1       2.492   1.488  -0.009  0.00  0.00    +0.142 C 
ATOM      8  N   UNL     1       3.434   2.239   0.839  0.00  0.00    -0.288 N 
ATOM      9  C   UNL     1       4.580   2.684   0.287  0.00  0.00    +0.307 C 
ATOM     10  O   UNL     1       5.364   3.305   0.979  0.00  0.00    -0.252 OA
ATOM     11  N   UNL     1       4.883   2.464  -0.999  0.00  0.00    -0.260 N 
ATOM     12  C   UNL     1       6.153   2.987  -1.510  0.00  0.00    +0.139 C 
ATOM     13  H   UNL     1       3.234   2.409   1.773  0.00  0.00    +0.151 HD
ENDROOT
BRANCH   7  14
ATOM     14  C   UNL     1       1.173   2.217   0.005  0.00  0.00    -0.019 A 
ATOM     15  C   UNL     1       0.738   2.880  -1.127  0.00  0.00    +0.009 A 
ATOM     16  C   UNL     1      -0.472   3.548  -1.115  0.00  0.00    -0.047 A 
ATOM     17  C   UNL     1      -1.248   3.552   0.030  0.00  0.00    -0.047 A 
ATOM     18  C   UNL     1      -0.815   2.886   1.160  0.00  0.00    +0.007 A 
ATOM     19  C   UNL     1       0.398   2.222   1.149  0.00  0.00    -0.045 A 
ATOM     20  C   UNL     1       0.872   1.498   2.384  0.00  0.00    +0.044 C 
ATOM     21  C   UNL     1      -2.567   4.280   0.043  0.00  0.00    +0.044 C 
ATOM     22  C   UNL     1      -0.946   4.272  -2.349  0.00  0.00    +0.044 C 
ENDBRANCH   7  14
BRANCH   1  23
ATOM     23  C   UNL     1       2.635   0.101  -4.947  0.00  0.00    +0.073 C 
ATOM     24  C   UNL     1       2.461  -1.413  -4.808  0.00  0.00    +0.028 C 
BRANCH  23  26
ATOM     25  C   UNL     1       1.538   2.215  -5.700  0.00  0.00    +0.005 C 
ATOM     26  C   UNL     1       1.328   0.722  -5.441  0.00  0.00    +0.019 C 
ENDBRANCH  23  26
ENDBRANCH   1  23
TORSDOF 3
