REMARK  Name = ZINC38657708
REMARK  9 active torsions:
REMARK  status: ('A' for Active; 'I' for Inactive)
REMARK    1  A    between atoms: C_1  and  C_2
REMARK    2  A    between atoms: C_7  and  O_8
REMARK    3  A    between atoms: O_8  and  C_9
REMARK    4  A    between atoms: C_9  and  C_10
REMARK    5  A    between atoms: C_10  and  O_12
REMARK    6  A    between atoms: O_12  and  C_13
REMARK    7  A    between atoms: C_20  and  N_36
REMARK    8  A    between atoms: C_21  and  C_34
REMARK    9  A    between atoms: C_22  and  C_24
REMARK                            x       y       z     vdW  Elec       q    Type
REMARK                         _______ _______ _______ _____ _____    ______ ____
ROOT
ATOM      1  C   UNL     1       0.107   0.329   7.138  0.00  0.00    +0.135 A 
ATOM      2  C   UNL     1       0.046   1.710   7.015  0.00  0.00    +0.047 A 
ATOM      3  C   UNL     1       0.079   2.506   8.143  0.00  0.00    +0.012 A 
ATOM      4  C   UNL     1       0.173   1.932   9.398  0.00  0.00    +0.008 A 
ATOM      5  C   UNL     1       0.235   0.554   9.528  0.00  0.00    +0.138 A 
ATOM      6  C   UNL     1       0.196  -0.249   8.395  0.00  0.00    +0.093 A 
ATOM      7  O   UNL     1       0.327  -0.027  10.750  0.00  0.00    -0.441 OA
ATOM      8  C   UNL     1      -0.020   0.664  11.848  0.00  0.00    +0.199 C 
ATOM      9  C   UNL     1      -0.096   2.017  11.850  0.00  0.00    +0.098 C 
ATOM     10  C   UNL     1       0.208   2.818  10.616  0.00  0.00    +0.098 C 
ENDROOT
BRANCH  10  11
ATOM     11  C   UNL     1       1.577   3.434  10.745  0.00  0.00    -0.027 A 
ATOM     12  C   UNL     1       2.684   2.642  10.775  0.00  0.00    +0.005 A 
ATOM     13  C   UNL     1       3.958   3.194  10.894  0.00  0.00    +0.001 A 
ATOM     14  C   UNL     1       4.133   4.541  10.985  0.00  0.00    +0.008 A 
ATOM     15  C   UNL     1       3.014   5.391  10.957  0.00  0.00    -0.018 A 
ATOM     16  C   UNL     1       1.718   4.830  10.830  0.00  0.00    -0.014 A 
ATOM     17  C   UNL     1       0.600   5.680  10.797  0.00  0.00    +0.009 A 
ATOM     18  C   UNL     1       0.775   7.027  10.881  0.00  0.00    +0.001 A 
ATOM     19  C   UNL     1       2.049   7.579  11.000  0.00  0.00    +0.001 A 
ATOM     20  C   UNL     1       3.155   6.786  11.049  0.00  0.00    +0.008 A 
ENDBRANCH  10  11
BRANCH   8  21
ATOM     21  N   UNL     1      -0.308  -0.020  13.002  0.00  0.00    -0.328 N 
ATOM     22  H   UNL     1      -0.259  -0.989  13.017  0.00  0.00    +0.145 HD
ATOM     23  H   UNL     1      -0.560   0.465  13.804  0.00  0.00    +0.145 HD
ENDBRANCH   8  21
BRANCH   9  24
ATOM     24  C   UNL     1      -0.473   2.696  13.053  0.00  0.00    +0.101 C 
ATOM     25  N   UNL     1      -0.773   3.236  14.007  0.00  0.00    -0.191 NA
ENDBRANCH   9  24
BRANCH   1  26
ATOM     26  O   UNL     1       0.075  -0.456   6.029  0.00  0.00    -0.423 OA
BRANCH  26  27
ATOM     27  C   UNL     1       1.197  -0.560   5.298  0.00  0.00    +0.350 C 
ATOM     28  O   UNL     1       2.166   0.103   5.581  0.00  0.00    -0.247 OA
BRANCH  27  29
ATOM     29  C   UNL     1       1.246  -1.504   4.124  0.00  0.00    +0.349 C 
BRANCH  29  30
ATOM     30  O   UNL     1       2.535  -1.435   3.512  0.00  0.00    -0.481 OA
BRANCH  30  37
ATOM     31  C   UNL     1       5.078  -1.315   2.286  0.00  0.00    +0.047 C 
ATOM     32  C   UNL     1       3.977  -2.214   1.787  0.00  0.00    -0.009 A 
ATOM     33  C   UNL     1       4.192  -3.028   0.691  0.00  0.00    +0.007 A 
ATOM     34  C   UNL     1       3.182  -3.853   0.233  0.00  0.00    +0.000 A 
ATOM     35  C   UNL     1       1.954  -3.867   0.869  0.00  0.00    +0.004 A 
ATOM     36  C   UNL     1       1.734  -3.055   1.965  0.00  0.00    +0.046 A 
ATOM     37  C   UNL     1       2.748  -2.230   2.430  0.00  0.00    +0.124 A 
ENDBRANCH  30  37
ENDBRANCH  29  30
ENDBRANCH  27  29
ENDBRANCH  26  27
ENDBRANCH   1  26
TORSDOF 8
