REMARK  Name = ZINC54019668
REMARK  7 active torsions:
REMARK  status: ('A' for Active; 'I' for Inactive)
REMARK    1  A    between atoms: C_1  and  C_2
REMARK    2  A    between atoms: N_14  and  C_15
REMARK    3  A    between atoms: C_15  and  C_17
REMARK    4  A    between atoms: C_15  and  C_25
REMARK    5  A    between atoms: C_22  and  O_23
REMARK    6  A    between atoms: O_23  and  C_24
REMARK    7  A    between atoms: N_29  and  C_30
REMARK                            x       y       z     vdW  Elec       q    Type
REMARK                         _______ _______ _______ _____ _____    ______ ____
ROOT
ATOM      1  C   UNL     1       3.177   0.783   3.626  0.00  0.00    +0.174 C 
ENDROOT
BRANCH   1  14
ATOM      2  C   UNL     1      -0.026   1.527   0.018  0.00  0.00    +0.033 C 
ATOM      3  C   UNL     1      -0.004  -0.003   0.007  0.00  0.00    +0.105 C 
ATOM      4  C   UNL     1      -1.425  -0.542   0.168  0.00  0.00    -0.017 A 
ATOM      5  C   UNL     1      -2.509  -0.069  -0.571  0.00  0.00    +0.013 A 
ATOM      6  C   UNL     1      -3.739  -0.597  -0.379  0.00  0.00    +0.046 A 
ATOM      7  S   UNL     1      -3.423  -1.818   0.886  0.00  0.00    -0.101 S 
ATOM      8  C   UNL     1      -1.682  -1.532   1.065  0.00  0.00    -0.004 A 
ATOM      9  C   UNL     1      -0.719  -2.210   1.984  0.00  0.00    +0.062 C 
ATOM     10  C   UNL     1       0.711  -1.918   1.504  0.00  0.00    +0.115 C 
ATOM     11  N   UNL     1       0.795  -0.497   1.137  0.00  0.00    -0.278 N 
ATOM     12  C   UNL     1       1.593   0.341   1.828  0.00  0.00    +0.303 C 
ATOM     13  O   UNL     1       1.591   1.530   1.574  0.00  0.00    -0.253 OA
ATOM     14  N   UNL     1       2.393  -0.139   2.800  0.00  0.00    -0.285 N 
ATOM     15  H   UNL     1       2.451  -1.095   2.953  0.00  0.00    +0.151 HD
ENDBRANCH   1  14
BRANCH   1  16
ATOM     16  C   UNL     1       3.477   0.137   4.954  0.00  0.00    +0.022 A 
ATOM     17  C   UNL     1       3.509  -1.240   5.061  0.00  0.00    +0.009 A 
ATOM     18  C   UNL     1       3.784  -1.833   6.279  0.00  0.00    +0.001 A 
ATOM     19  C   UNL     1       4.028  -1.051   7.393  0.00  0.00    +0.004 A 
ATOM     20  C   UNL     1       3.998   0.326   7.290  0.00  0.00    +0.046 A 
ATOM     21  C   UNL     1       3.727   0.924   6.068  0.00  0.00    +0.125 A 
BRANCH  21  22
ATOM     22  O   UNL     1       3.702   2.279   5.964  0.00  0.00    -0.495 OA
ATOM     23  C   UNL     1       3.969   3.026   7.152  0.00  0.00    +0.277 C 
ENDBRANCH  21  22
ENDBRANCH   1  16
BRANCH   1  24
ATOM     24  C   UNL     1       4.469   1.113   2.924  0.00  0.00    +0.135 A 
ATOM     25  N   UNL     1       5.252   0.254   2.329  0.00  0.00    -0.238 NA
ATOM     26  C   UNL     1       6.308   0.901   1.815  0.00  0.00    +0.130 A 
ATOM     27  C   UNL     1       6.175   2.210   2.102  0.00  0.00    +0.106 A 
ATOM     28  N   UNL     1       5.006   2.346   2.801  0.00  0.00    -0.336 N 
ATOM     29  C   UNL     1       4.444   3.595   3.321  0.00  0.00    +0.150 C 
ENDBRANCH   1  24
TORSDOF 4
