REMARK  Name = ZINC05360512
REMARK  12 active torsions:
REMARK  status: ('A' for Active; 'I' for Inactive)
REMARK    1  A    between atoms: C_1  and  N_2
REMARK    2  A    between atoms: N_11  and  C_26
REMARK    3  A    between atoms: N_14  and  N_15
REMARK    4  A    between atoms: C_16  and  C_17
REMARK    5  A    between atoms: C_20  and  N_23
REMARK    6  A    between atoms: N_23  and  C_24
REMARK    7  A    between atoms: N_23  and  C_25
REMARK    8  A    between atoms: C_26  and  C_27
REMARK    9  A    between atoms: C_27  and  C_29
REMARK   10  A    between atoms: C_27  and  O_38
REMARK   11  A    between atoms: C_29  and  O_30
REMARK   12  A    between atoms: O_30  and  C_31
REMARK                            x       y       z     vdW  Elec       q    Type
REMARK                         _______ _______ _______ _____ _____    ______ ____
ROOT
ATOM      1  C   UNL     1      -1.256  -0.752   0.085  0.00  0.00    +0.155 C 
ATOM      2  N   UNL     1       0.003  -0.003   0.067  0.00  0.00    -0.280 N 
ATOM      3  C   UNL     1      -0.016   1.382   0.057  0.00  0.00    +0.170 A 
ATOM      4  C   UNL     1       1.194   2.069   0.040  0.00  0.00    +0.153 A 
ATOM      5  C   UNL     1       2.397   1.340   0.033  0.00  0.00    +0.280 A 
ATOM      6  O   UNL     1       3.468   1.921   0.019  0.00  0.00    -0.265 OA
ATOM      7  N   UNL     1       2.352  -0.008   0.043  0.00  0.00    -0.273 N 
ATOM      8  H   UNL     1       3.205  -0.529   0.038  0.00  0.00    +0.173 HD
ATOM      9  C   UNL     1       1.177  -0.662   0.059  0.00  0.00    +0.331 A 
ATOM     10  O   UNL     1       1.176  -1.878   0.068  0.00  0.00    -0.246 OA
ATOM     11  N   UNL     1       0.876   3.420   0.033  0.00  0.00    -0.302 N 
ATOM     12  C   UNL     1      -0.481   3.503   0.046  0.00  0.00    +0.218 A 
ATOM     13  N   UNL     1      -0.994   2.289   0.055  0.00  0.00    -0.195 NA
ATOM     14  N   UNL     1      -1.206   4.673   0.043  0.00  0.00    -0.206 N 
ATOM     15  H   UNL     1      -0.748   5.528   0.032  0.00  0.00    +0.177 HD
ENDROOT
BRANCH  14  16
ATOM     16  N   UNL     1      -2.607   4.629   0.057  0.00  0.00    -0.188 NA
ATOM     17  C   UNL     1      -3.291   5.732   0.055  0.00  0.00    +0.138 C 
BRANCH  17  18
ATOM     18  C   UNL     1      -4.764   5.686   0.070  0.00  0.00    -0.005 A 
ATOM     19  C   UNL     1      -5.426   4.455   0.080  0.00  0.00    +0.011 A 
ATOM     20  C   UNL     1      -6.803   4.416   0.099  0.00  0.00    +0.024 A 
ATOM     21  C   UNL     1      -7.534   5.599   0.096  0.00  0.00    +0.029 A 
ATOM     22  C   UNL     1      -6.879   6.825   0.081  0.00  0.00    +0.024 A 
ATOM     23  C   UNL     1      -5.502   6.873   0.067  0.00  0.00    +0.011 A 
BRANCH  21  24
ATOM     24  N   UNL     1      -8.929   5.555   0.109  0.00  0.00    -0.336 N 
ATOM     25  C   UNL     1      -9.699   6.795   0.232  0.00  0.00    +0.129 C 
ATOM     26  C   UNL     1      -9.622   4.269  -0.002  0.00  0.00    +0.129 C 
ENDBRANCH  21  24
ENDBRANCH  17  18
ENDBRANCH  14  16
BRANCH  11  27
ATOM     27  C   UNL     1       1.821   4.540   0.016  0.00  0.00    +0.160 C 
BRANCH  27  28
ATOM     28  C   UNL     1       2.136   4.919  -1.433  0.00  0.00    +0.172 C 
BRANCH  28  29
ATOM     29  O   UNL     1       0.953   5.412  -2.064  0.00  0.00    -0.387 OA
ATOM     30  H   UNL     1       0.579   6.196  -1.639  0.00  0.00    +0.210 HD
ENDBRANCH  28  29
BRANCH  28  31
ATOM     31  C   UNL     1       3.216   6.003  -1.452  0.00  0.00    +0.262 C 
BRANCH  31  32
ATOM     32  O   UNL     1       3.593   6.274  -2.804  0.00  0.00    -0.489 OA
BRANCH  32  33
ATOM     33  C   UNL     1       4.549   7.221  -2.999  0.00  0.00    +0.121 A 
ATOM     34  C   UNL     1       5.108   7.878  -1.913  0.00  0.00    +0.047 A 
ATOM     35  C   UNL     1       6.083   8.836  -2.113  0.00  0.00    +0.023 A 
ATOM     36  C   UNL     1       6.495   9.147  -3.397  0.00  0.00    +0.041 A 
ATOM     37  C   UNL     1       5.935   8.496  -4.482  0.00  0.00    +0.023 A 
ATOM     38  C   UNL     1       4.964   7.534  -4.285  0.00  0.00    +0.047 A 
ATOM     39 CL   UNL     1       7.716  10.356  -3.647  0.00  0.00    -0.084 Cl
ENDBRANCH  32  33
ENDBRANCH  31  32
ENDBRANCH  28  31
ENDBRANCH  27  28
ENDBRANCH  11  27
TORSDOF 9
