REMARK  Name = ZINC04121812
REMARK  4 active torsions:
REMARK  status: ('A' for Active; 'I' for Inactive)
REMARK    1  A    between atoms: C_10  and  C_13
REMARK    2  A    between atoms: C_13  and  C_14
REMARK    3  A    between atoms: N_16  and  C_17
REMARK    4  A    between atoms: C_22  and  N_23
REMARK                            x       y       z     vdW  Elec       q    Type
REMARK                         _______ _______ _______ _____ _____    ______ ____
ROOT
ATOM      1  C   UNL     1       3.413  -2.112  -2.417  0.00  0.00    +0.120 C 
ENDROOT
BRANCH   1  11
ATOM      2  C   UNL     1      -0.076   1.298  -0.027  0.00  0.00    +0.002 A 
ATOM      3  C   UNL     1       1.097   2.030  -0.027  0.00  0.00    +0.001 A 
ATOM      4  C   UNL     1       2.317   1.378  -0.031  0.00  0.00    +0.016 A 
ATOM      5  C   UNL     1       2.359  -0.006  -0.038  0.00  0.00    +0.030 A 
ATOM      6  C   UNL     1       1.181  -0.752  -0.046  0.00  0.00    +0.047 A 
ATOM      7  C   UNL     1      -0.039  -0.083  -0.035  0.00  0.00    +0.024 A 
ATOM      8  N   UNL     1       1.191  -2.144  -0.076  0.00  0.00    -0.284 N 
ATOM      9  C   UNL     1       2.218  -2.923  -0.397  0.00  0.00    +0.231 C 
ATOM     10  O   UNL     1       2.095  -4.122  -0.267  0.00  0.00    -0.274 OA
ATOM     11  C   UNL     1       3.528  -2.389  -0.916  0.00  0.00    +0.146 C 
ATOM     12  S   UNL     1       3.912  -0.846  -0.033  0.00  0.00    -0.110 S 
ATOM     13  H   UNL     1       0.363  -2.590   0.162  0.00  0.00    +0.155 HD
ENDBRANCH   1  11
BRANCH   1  14
ATOM     14  C   UNL     1       4.757  -1.696  -2.956  0.00  0.00    +0.219 C 
ATOM     15  O   UNL     1       5.713  -1.627  -2.213  0.00  0.00    -0.275 OA
ATOM     16  N   UNL     1       4.896  -1.400  -4.263  0.00  0.00    -0.284 N 
ATOM     17  H   UNL     1       4.149  -1.517  -4.869  0.00  0.00    +0.155 HD
BRANCH  16  18
ATOM     18  C   UNL     1       6.120  -0.924  -4.746  0.00  0.00    +0.064 A 
ATOM     19  C   UNL     1       7.311  -1.394  -4.207  0.00  0.00    +0.025 A 
ATOM     20  C   UNL     1       8.518  -0.922  -4.686  0.00  0.00    +0.002 A 
ATOM     21  C   UNL     1       8.541   0.018  -5.700  0.00  0.00    +0.002 A 
ATOM     22  C   UNL     1       7.357   0.489  -6.238  0.00  0.00    +0.034 A 
ATOM     23  C   UNL     1       6.147   0.016  -5.768  0.00  0.00    +0.147 A 
BRANCH  23  24
ATOM     24  N   UNL     1       4.880   0.515  -6.349  0.00  0.00    +0.058 N 
ATOM     25  O   UNL     1       4.904   1.258  -7.302  0.00  0.00    -0.126 OA
ATOM     26  O   UNL     1       3.822   0.179  -5.870  0.00  0.00    -0.126 OA
ENDBRANCH  23  24
ENDBRANCH  16  18
ENDBRANCH   1  14
TORSDOF 4
