REMARK  Name = ZINC39974638
REMARK  12 active torsions:
REMARK  status: ('A' for Active; 'I' for Inactive)
REMARK    1  A    between atoms: C_1  and  C_2
REMARK    2  A    between atoms: C_2  and  C_4
REMARK    3  A    between atoms: C_2  and  N_14
REMARK    4  A    between atoms: C_7  and  O_12
REMARK    5  A    between atoms: C_8  and  O_10
REMARK    6  A    between atoms: O_10  and  C_11
REMARK    7  A    between atoms: O_12  and  C_13
REMARK    8  A    between atoms: N_14  and  C_15
REMARK    9  A    between atoms: C_15  and  N_17
REMARK   10  A    between atoms: N_17  and  C_18
REMARK   11  A    between atoms: C_21  and  S_24
REMARK   12  A    between atoms: S_24  and  N_27
REMARK                            x       y       z     vdW  Elec       q    Type
REMARK                         _______ _______ _______ _____ _____    ______ ____
ROOT
ATOM      1  C   UNL     1      -0.003  -1.256  -4.693  0.00  0.00    +0.033 A 
ATOM      2  C   UNL     1      -1.347  -0.938  -4.841  0.00  0.00    +0.025 A 
ATOM      3  C   UNL     1      -1.975  -1.150  -6.052  0.00  0.00    +0.030 A 
ATOM      4  C   UNL     1      -1.268  -1.678  -7.117  0.00  0.00    +0.106 A 
ATOM      5  C   UNL     1       0.070  -1.996  -6.973  0.00  0.00    +0.030 A 
ATOM      6  C   UNL     1       0.706  -1.781  -5.766  0.00  0.00    +0.025 A 
ENDROOT
BRANCH   4   7
ATOM      7  S   UNL     1      -2.074  -1.947  -8.661  0.00  0.00    +0.061 S 
ATOM      8  O   UNL     1      -1.335  -2.957  -9.334  0.00  0.00    -0.153 OA
ATOM      9  O   UNL     1      -3.461  -2.079  -8.377  0.00  0.00    -0.153 OA
BRANCH   7  10
ATOM     10  N   UNL     1      -1.903  -0.562  -9.551  0.00  0.00    -0.172 NA
ATOM     11  C   UNL     1      -2.893   0.525  -9.475  0.00  0.00    +0.114 C 
ATOM     12  C   UNL     1      -2.199   1.753  -8.889  0.00  0.00    +0.052 C 
ATOM     13  C   UNL     1      -0.880   2.001  -9.572  0.00  0.00    -0.042 A 
ATOM     14  C   UNL     1      -0.333   3.275  -9.474  0.00  0.00    +0.004 A 
ATOM     15  C   UNL     1       0.877   3.566 -10.069  0.00  0.00    +0.000 A 
ATOM     16  C   UNL     1       1.555   2.584 -10.767  0.00  0.00    +0.000 A 
ATOM     17  C   UNL     1       1.012   1.319 -10.868  0.00  0.00    +0.005 A 
ATOM     18  C   UNL     1      -0.209   1.026 -10.275  0.00  0.00    -0.028 A 
ATOM     19  C   UNL     1      -0.754  -0.365 -10.443  0.00  0.00    +0.144 C 
ENDBRANCH   7  10
ENDBRANCH   4   7
BRANCH   1  20
ATOM     20  N   UNL     1       0.637  -1.043  -3.467  0.00  0.00    -0.297 N 
ATOM     21  H   UNL     1       1.511  -0.623  -3.443  0.00  0.00    +0.154 HD
BRANCH  20  22
ATOM     22  C   UNL     1       0.039  -1.421  -2.320  0.00  0.00    +0.135 C 
ATOM     23  S   UNL     1      -1.548  -2.063  -2.353  0.00  0.00    -0.019 S 
BRANCH  22  24
ATOM     24  N   UNL     1       0.691  -1.294  -1.147  0.00  0.00    -0.320 N 
ATOM     25  H   UNL     1       1.590  -0.930  -1.129  0.00  0.00    +0.148 HD
BRANCH  24  27
ATOM     26  C   UNL     1      -0.826  -0.559   0.625  0.00  0.00    +0.033 C 
ATOM     27  C   UNL     1       0.041  -1.705   0.100  0.00  0.00    +0.099 C 
BRANCH  27  28
ATOM     28  C   UNL     1       1.091  -2.050   1.124  0.00  0.00    -0.024 A 
ATOM     29  C   UNL     1       2.231  -1.275   1.231  0.00  0.00    +0.009 A 
ATOM     30  C   UNL     1       3.198  -1.587   2.168  0.00  0.00    +0.050 A 
ATOM     31  C   UNL     1       3.026  -2.679   3.004  0.00  0.00    +0.162 A 
ATOM     32  C   UNL     1       1.878  -3.459   2.896  0.00  0.00    +0.162 A 
ATOM     33  C   UNL     1       0.911  -3.138   1.958  0.00  0.00    +0.054 A 
BRANCH  32  34
ATOM     34  O   UNL     1       1.704  -4.532   3.714  0.00  0.00    -0.491 OA
ATOM     35  C   UNL     1       0.503  -5.287   3.547  0.00  0.00    +0.277 C 
ENDBRANCH  32  34
BRANCH  31  36
ATOM     36  O   UNL     1       3.976  -2.988   3.926  0.00  0.00    -0.491 OA
ATOM     37  C   UNL     1       5.127  -2.144   3.979  0.00  0.00    +0.277 C 
ENDBRANCH  31  36
ENDBRANCH  27  28
ENDBRANCH  24  27
ENDBRANCH  22  24
ENDBRANCH  20  22
ENDBRANCH   1  20
TORSDOF 9
