REMARK  Name = ZINC35682465
REMARK  3 active torsions:
REMARK  status: ('A' for Active; 'I' for Inactive)
REMARK    1  A    between atoms: C_4  and  N_11
REMARK    2  A    between atoms: C_5  and  C_7
REMARK    3  A    between atoms: C_17  and  C_18
REMARK                            x       y       z     vdW  Elec       q    Type
REMARK                         _______ _______ _______ _____ _____    ______ ____
ROOT
ATOM      1  N   UNL     1       3.609  -0.563  -0.049  0.00  0.00    -0.303 N 
ATOM      2  C   UNL     1       4.176  -0.895  -1.338  0.00  0.00    +0.224 C 
ATOM      3  N   UNL     1       5.614  -0.654  -1.414  0.00  0.00    -0.229 N 
ATOM      4  C   UNL     1       6.348  -0.601  -2.547  0.00  0.00    +0.272 C 
ATOM      5  O   UNL     1       5.938  -0.656  -3.692  0.00  0.00    -0.268 OA
ATOM      6  C   UNL     1       7.749  -0.461  -2.107  0.00  0.00    +0.129 C 
ATOM      7  C   UNL     1       8.860  -0.412  -2.899  0.00  0.00    +0.041 C 
ATOM      8  N   UNL     1       7.707  -0.391  -0.744  0.00  0.00    -0.220 NA
ATOM      9  C   UNL     1       6.464  -0.467  -0.344  0.00  0.00    +0.166 C 
ATOM     10  S   UNL     1       5.907  -0.304   1.327  0.00  0.00    -0.071 S 
ATOM     11  C   UNL     1       4.194  -0.881   1.241  0.00  0.00    +0.184 C 
ENDROOT
BRANCH   7  12
ATOM     12  C   UNL     1      10.176  -0.156  -2.303  0.00  0.00    -0.023 A 
ATOM     13  C   UNL     1      11.297   0.026  -3.122  0.00  0.00    +0.009 A 
ATOM     14  C   UNL     1      12.529   0.267  -2.554  0.00  0.00    +0.020 A 
ATOM     15  C   UNL     1      12.661   0.329  -1.176  0.00  0.00    +0.041 A 
ATOM     16  C   UNL     1      11.556   0.150  -0.358  0.00  0.00    +0.020 A 
ATOM     17  C   UNL     1      10.316  -0.086  -0.911  0.00  0.00    +0.009 A 
ATOM     18 CL   UNL     1      14.217   0.631  -0.470  0.00  0.00    -0.084 Cl
ENDBRANCH   7  12
BRANCH   1  22
ATOM     19  C   UNL     1      -0.008   1.498  -0.042  0.00  0.00    +0.001 A 
ATOM     20  C   UNL     1       1.185   2.198  -0.055  0.00  0.00    +0.002 A 
ATOM     21  C   UNL     1       2.386   1.518  -0.057  0.00  0.00    +0.024 A 
ATOM     22  C   UNL     1       2.396   0.128  -0.046  0.00  0.00    +0.043 A 
ATOM     23  C   UNL     1       1.196  -0.571  -0.033  0.00  0.00    +0.076 A 
ATOM     24  C   UNL     1      -0.002   0.116  -0.031  0.00  0.00    +0.014 A 
BRANCH  23  25
ATOM     25  C   UNL     1       1.202  -2.078  -0.021  0.00  0.00    +0.419 C 
ATOM     26  F   UNL     1      -0.115  -2.550  -0.009  0.00  0.00    -0.166 F 
ATOM     27  F   UNL     1       1.855  -2.551  -1.165  0.00  0.00    -0.166 F 
ATOM     28  F   UNL     1       1.871  -2.534   1.120  0.00  0.00    -0.166 F 
ENDBRANCH  23  25
ENDBRANCH   1  22
TORSDOF 3
