REMARK  Name = ZINC04295297
REMARK  7 active torsions:
REMARK  status: ('A' for Active; 'I' for Inactive)
REMARK    1  A    between atoms: C_1  and  C_2
REMARK    2  A    between atoms: C_2  and  C_3
REMARK    3  A    between atoms: C_3  and  C_5
REMARK    4  A    between atoms: C_3  and  O_27
REMARK    5  A    between atoms: C_5  and  N_6
REMARK    6  A    between atoms: C_17  and  C_22
REMARK    7  A    between atoms: C_19  and  C_21
REMARK                            x       y       z     vdW  Elec       q    Type
REMARK                         _______ _______ _______ _____ _____    ______ ____
ROOT
ATOM      1  N   UNL     1      -2.790  -2.554  -0.231  0.00  0.00    -0.326 N 
ATOM      2  C   UNL     1      -3.026  -3.910  -0.362  0.00  0.00    +0.133 A 
ATOM      3  C   UNL     1      -4.358  -4.412  -0.369  0.00  0.00    +0.051 A 
ATOM      4  C   UNL     1      -5.616  -3.671  -0.248  0.00  0.00    -0.025 A 
ATOM      5  C   UNL     1      -6.755  -4.391  -0.283  0.00  0.00    -0.004 A 
ATOM      6  S   UNL     1      -6.234  -6.074  -0.478  0.00  0.00    -0.073 S 
ATOM      7  C   UNL     1      -4.480  -5.809  -0.509  0.00  0.00    +0.116 A 
ATOM      8  N   UNL     1      -3.422  -6.586  -0.625  0.00  0.00    -0.203 NA
ATOM      9  C   UNL     1      -2.205  -6.064  -0.613  0.00  0.00    +0.254 A 
ATOM     10  N   UNL     1      -2.018  -4.756  -0.489  0.00  0.00    -0.195 NA
ATOM     11  N   UNL     1      -1.099  -6.904  -0.736  0.00  0.00    -0.202 N 
ATOM     12  C   UNL     1      -1.131  -8.255  -0.879  0.00  0.00    +0.045 A 
ATOM     13  C   UNL     1       0.147  -8.689  -0.964  0.00  0.00    +0.048 A 
ATOM     14  C   UNL     1       0.989  -7.574  -0.871  0.00  0.00    +0.061 A 
ATOM     15  N   UNL     1       0.245  -6.506  -0.741  0.00  0.00    -0.169 NA
ATOM     16  C   UNL     1       2.494  -7.599  -0.919  0.00  0.00    +0.067 C 
ATOM     17  C   UNL     1      -2.368  -9.115  -0.932  0.00  0.00    +0.066 C 
ATOM     18  C   UNL     1      -8.158  -3.875  -0.179  0.00  0.00    +0.043 C 
ATOM     19  C   UNL     1      -8.107  -2.434   0.349  0.00  0.00    +0.005 C 
ATOM     20  C   UNL     1      -7.056  -1.656  -0.449  0.00  0.00    +0.005 C 
ATOM     21  C   UNL     1      -5.656  -2.154  -0.087  0.00  0.00    +0.037 C 
ATOM     22  H   UNL     1      -3.527  -1.948  -0.060  0.00  0.00    +0.148 HD
ENDROOT
BRANCH   1  23
ATOM     23  C   UNL     1      -1.425  -2.034  -0.350  0.00  0.00    +0.134 C 
BRANCH  23  24
ATOM     24  C   UNL     1      -1.441  -0.515  -0.166  0.00  0.00    +0.131 C 
BRANCH  24  26
ATOM     25  C   UNL     1      -0.079   1.571  -0.352  0.00  0.00    +0.006 C 
ATOM     26  C   UNL     1      -0.038   0.043  -0.414  0.00  0.00    +0.029 C 
ENDBRANCH  24  26
BRANCH  24  27
ATOM     27  O   UNL     1      -1.850  -0.201   1.167  0.00  0.00    -0.390 OA
ATOM     28  H   UNL     1      -1.272  -0.566   1.852  0.00  0.00    +0.210 HD
ENDBRANCH  24  27
ENDBRANCH  23  24
ENDBRANCH   1  23
TORSDOF 4
