REMARK  Name = ZINC63251888
REMARK  8 active torsions:
REMARK  status: ('A' for Active; 'I' for Inactive)
REMARK    1  A    between atoms: C_1  and  C_2
REMARK    2  A    between atoms: C_4  and  C_17
REMARK    3  A    between atoms: C_6  and  C_16
REMARK    4  A    between atoms: N_8  and  C_10
REMARK    5  A    between atoms: N_18  and  N_19
REMARK    6  A    between atoms: C_20  and  C_22
REMARK    7  A    between atoms: C_22  and  S_23
REMARK    8  A    between atoms: S_23  and  C_24
REMARK                            x       y       z     vdW  Elec       q    Type
REMARK                         _______ _______ _______ _____ _____    ______ ____
ROOT
ATOM      1  N   UNL     1      -3.797   1.287  -2.043  0.00  0.00    -0.207 N 
ATOM      2  C   UNL     1      -4.683   0.932  -2.995  0.00  0.00    +0.242 C 
ATOM      3  O   UNL     1      -4.821  -0.236  -3.290  0.00  0.00    -0.273 OA
ATOM      4  H   UNL     1      -3.686   2.221  -1.808  0.00  0.00    +0.177 HD
ENDROOT
BRANCH   1   6
ATOM      5  C   UNL     1      -2.192   0.643  -0.492  0.00  0.00    +0.110 C 
ATOM      6  N   UNL     1      -3.035   0.306  -1.396  0.00  0.00    -0.192 NA
BRANCH   5   9
ATOM      7  C   UNL     1       0.447   1.345  -0.028  0.00  0.00    +0.026 C 
ATOM      8  C   UNL     1       0.147  -0.154   0.015  0.00  0.00    +0.080 C 
ATOM      9  C   UNL     1      -1.373  -0.412   0.205  0.00  0.00    +0.072 C 
ATOM     10  C   UNL     1      -1.507  -0.298   1.742  0.00  0.00    +0.098 C 
ATOM     11  N   UNL     1      -0.147  -0.496   2.269  0.00  0.00    -0.263 N 
ATOM     12  N   UNL     1       0.716  -0.775   1.240  0.00  0.00    -0.236 NA
ATOM     13  C   UNL     1      -2.029   1.088   2.126  0.00  0.00    +0.030 C 
ATOM     14  H   UNL     1       0.829  -1.770   1.122  0.00  0.00    +0.145 HD
BRANCH  11  15
ATOM     15  C   UNL     1       0.211  -0.413   3.617  0.00  0.00    +0.045 A 
ATOM     16  C   UNL     1      -0.547  -1.067   4.580  0.00  0.00    +0.024 A 
ATOM     17  C   UNL     1      -0.189  -0.983   5.912  0.00  0.00    +0.002 A 
ATOM     18  C   UNL     1       0.922  -0.250   6.286  0.00  0.00    +0.000 A 
ATOM     19  C   UNL     1       1.679   0.402   5.330  0.00  0.00    +0.002 A 
ATOM     20  C   UNL     1       1.330   0.318   3.996  0.00  0.00    +0.024 A 
ENDBRANCH  11  15
ENDBRANCH   5   9
ENDBRANCH   1   6
BRANCH   2  21
ATOM     21  C   UNL     1      -5.503   1.987  -3.692  0.00  0.00    +0.170 C 
BRANCH  21  22
ATOM     22  S   UNL     1      -6.594   1.200  -4.908  0.00  0.00    -0.106 S 
BRANCH  22  23
ATOM     23  C   UNL     1      -7.499   2.587  -5.648  0.00  0.00    +0.236 C 
ATOM     24  N   UNL     1      -8.200   3.345  -4.605  0.00  0.00    -0.355 N 
ATOM     25  C   UNL     1      -7.733   4.560  -4.625  0.00  0.00    +0.061 A 
ATOM     26  C   UNL     1      -8.035   5.760  -3.832  0.00  0.00    +0.027 A 
ATOM     27  C   UNL     1      -7.374   6.907  -4.084  0.00  0.00    +0.002 A 
ATOM     28  C   UNL     1      -6.394   7.013  -5.087  0.00  0.00    +0.002 A 
ATOM     29  C   UNL     1      -6.041   5.975  -5.870  0.00  0.00    +0.027 A 
ATOM     30  C   UNL     1      -6.694   4.672  -5.685  0.00  0.00    +0.061 A 
ATOM     31  N   UNL     1      -6.560   3.522  -6.280  0.00  0.00    -0.355 N 
ATOM     32  H   UNL     1      -8.886   3.004  -4.010  0.00  0.00    +0.162 HD
ATOM     33  H   UNL     1      -5.951   3.320  -7.007  0.00  0.00    +0.162 HD
ENDBRANCH  22  23
ENDBRANCH  21  22
ENDBRANCH   2  21
TORSDOF 6
