REMARK  Name = ZINC05355106
REMARK  3 active torsions:
REMARK  status: ('A' for Active; 'I' for Inactive)
REMARK    1  A    between atoms: C_1  and  C_2
REMARK    2  A    between atoms: N_12  and  S_13
REMARK    3  A    between atoms: S_13  and  C_16
REMARK                            x       y       z     vdW  Elec       q    Type
REMARK                         _______ _______ _______ _____ _____    ______ ____
ROOT
ATOM      1  C   UNL     1       6.119   2.838  -0.057  0.00  0.00    +0.031 C 
ATOM      2  C   UNL     1       5.042   3.923  -0.103  0.00  0.00    +0.107 C 
ATOM      3  C   UNL     1       3.679   3.281  -0.029  0.00  0.00    -0.022 A 
ATOM      4  C   UNL     1       3.241   2.569  -1.139  0.00  0.00    +0.055 A 
ATOM      5  C   UNL     1       2.005   1.952  -1.128  0.00  0.00    +0.162 A 
ATOM      6  C   UNL     1       1.202   2.038   0.002  0.00  0.00    +0.162 A 
ATOM      7  C   UNL     1       1.640   2.745   1.105  0.00  0.00    +0.053 A 
ATOM      8  C   UNL     1       2.881   3.373   1.089  0.00  0.00    -0.038 A 
ATOM      9  C   UNL     1       3.285   4.142   2.320  0.00  0.00    +0.052 C 
ATOM     10  C   UNL     1       4.797   4.355   2.358  0.00  0.00    +0.115 C 
ATOM     11  N   UNL     1       5.220   4.836   1.032  0.00  0.00    -0.169 NA
ATOM     12  O   UNL     1      -0.017   1.425   0.010  0.00  0.00    -0.488 OA
ATOM     13  C   UNL     1       0.002  -0.004   0.002  0.00  0.00    +0.232 C 
ATOM     14  C   UNL     1       0.134  -0.534  -1.417  0.00  0.00    +0.082 C 
ATOM     15  C   UNL     1       1.463  -0.159  -2.054  0.00  0.00    +0.232 C 
ATOM     16  O   UNL     1       1.565   1.257  -2.216  0.00  0.00    -0.488 OA
ENDROOT
BRANCH  11  17
ATOM     17  S   UNL     1       5.869   6.346   0.829  0.00  0.00    +0.061 S 
ATOM     18  O   UNL     1       6.412   6.726   2.086  0.00  0.00    -0.153 OA
ATOM     19  O   UNL     1       6.653   6.295  -0.355  0.00  0.00    -0.153 OA
BRANCH  17  20
ATOM     20  C   UNL     1       4.534   7.448   0.502  0.00  0.00    +0.106 A 
ATOM     21  C   UNL     1       4.130   7.677  -0.800  0.00  0.00    +0.030 A 
ATOM     22  C   UNL     1       3.078   8.537  -1.056  0.00  0.00    +0.022 A 
ATOM     23  C   UNL     1       2.438   9.177  -0.011  0.00  0.00    +0.041 A 
ATOM     24  C   UNL     1       2.846   8.952   1.292  0.00  0.00    +0.022 A 
ATOM     25  C   UNL     1       3.894   8.087   1.548  0.00  0.00    +0.030 A 
ATOM     26 CL   UNL     1       1.121  10.262  -0.332  0.00  0.00    -0.084 Cl
ENDBRANCH  17  20
ENDBRANCH  11  17
TORSDOF 2
