REMARK  Name = ZINC14462860
REMARK  10 active torsions:
REMARK  status: ('A' for Active; 'I' for Inactive)
REMARK    1  A    between atoms: C_1  and  C_2
REMARK    2  A    between atoms: C_2  and  C_3
REMARK    3  A    between atoms: C_2  and  C_4
REMARK    4  A    between atoms: C_7  and  C_10
REMARK    5  A    between atoms: C_21  and  S_26
REMARK    6  A    between atoms: S_26  and  N_29
REMARK    7  A    between atoms: N_29  and  C_30
REMARK    8  A    between atoms: C_30  and  C_31
REMARK    9  A    between atoms: C_30  and  C_32
REMARK   10  A    between atoms: C_30  and  C_33
REMARK                            x       y       z     vdW  Elec       q    Type
REMARK                         _______ _______ _______ _____ _____    ______ ____
ROOT
ATOM      1  C   UNL     1      -0.030   5.073  -0.764  0.00  0.00    +0.105 C 
ATOM      2  C   UNL     1      -0.340   6.237  -1.688  0.00  0.00    +0.029 C 
ATOM      3  C   UNL     1       0.538   6.393  -2.937  0.00  0.00    +0.033 C 
ATOM      4  C   UNL     1      -0.431   7.062  -3.914  0.00  0.00    -0.030 C 
ATOM      5  C   UNL     1      -1.683   6.757  -3.591  0.00  0.00    -0.023 C 
ATOM      6  C   UNL     1      -1.662   5.849  -2.416  0.00  0.00    +0.049 C 
ATOM      7  C   UNL     1      -2.748   5.847  -1.411  0.00  0.00    -0.018 A 
ATOM      8  C   UNL     1      -4.034   6.242  -1.710  0.00  0.00    +0.034 A 
ATOM      9  C   UNL     1      -5.017   6.209  -0.738  0.00  0.00    +0.106 A 
ATOM     10  C   UNL     1      -4.711   5.778   0.540  0.00  0.00    +0.030 A 
ATOM     11  C   UNL     1      -3.426   5.386   0.851  0.00  0.00    +0.025 A 
ATOM     12  C   UNL     1      -2.428   5.422  -0.116  0.00  0.00    +0.031 A 
ATOM     13  N   UNL     1      -1.123   5.054   0.232  0.00  0.00    -0.336 N 
ATOM     14  H   UNL     1      -0.932   4.780   1.143  0.00  0.00    +0.147 HD
ENDROOT
BRANCH   1  18
ATOM     15  C   UNL     1       0.026   1.414  -2.967  0.00  0.00    -0.045 A 
ATOM     16  C   UNL     1       1.145   2.225  -2.946  0.00  0.00    +0.004 A 
ATOM     17  C   UNL     1       1.126   3.412  -2.237  0.00  0.00    +0.006 A 
ATOM     18  C   UNL     1      -0.010   3.782  -1.541  0.00  0.00    -0.027 A 
ATOM     19  C   UNL     1      -1.127   2.969  -1.558  0.00  0.00    +0.006 A 
ATOM     20  C   UNL     1      -1.109   1.785  -2.272  0.00  0.00    +0.004 A 
BRANCH  15  22
ATOM     21  C   UNL     1       0.308   0.421  -5.222  0.00  0.00    +0.012 C 
ATOM     22  C   UNL     1       0.046   0.123  -3.744  0.00  0.00    +0.013 C 
ATOM     23  C   UNL     1       1.154  -0.782  -3.202  0.00  0.00    +0.012 C 
ENDBRANCH  15  22
ENDBRANCH   1  18
BRANCH   9  24
ATOM     24  S   UNL     1      -6.659   6.716  -1.129  0.00  0.00    +0.059 S 
ATOM     25  O   UNL     1      -7.182   7.333   0.039  0.00  0.00    -0.153 OA
ATOM     26  O   UNL     1      -6.590   7.386  -2.379  0.00  0.00    -0.153 OA
BRANCH  24  27
ATOM     27  N   UNL     1      -7.549   5.342  -1.377  0.00  0.00    -0.185 NA
ATOM     28  H   UNL     1      -8.260   5.106  -0.759  0.00  0.00    +0.149 HD
BRANCH  27  29
ATOM     29  C   UNL     1      -7.264   4.482  -2.528  0.00  0.00    +0.032 C 
ATOM     30  C   UNL     1      -5.781   4.106  -2.529  0.00  0.00    +0.029 C 
ATOM     31  C   UNL     1      -8.113   3.212  -2.438  0.00  0.00    +0.029 C 
ATOM     32  C   UNL     1      -7.601   5.230  -3.819  0.00  0.00    +0.029 C 
ENDBRANCH  27  29
ENDBRANCH  24  27
ENDBRANCH   9  24
TORSDOF 5
