REMARK  Name = ZINC19641160
REMARK  3 active torsions:
REMARK  status: ('A' for Active; 'I' for Inactive)
REMARK    1  A    between atoms: C_1  and  C_2
REMARK    2  A    between atoms: C_5  and  C_8
REMARK    3  A    between atoms: C_13  and  C_25
REMARK                            x       y       z     vdW  Elec       q    Type
REMARK                         _______ _______ _______ _____ _____    ______ ____
ROOT
ATOM      1  C   UNL     1       8.211  -1.457  -1.779  0.00  0.00    +0.032 C 
ATOM      2  C   UNL     1       7.891  -0.367  -0.755  0.00  0.00    +0.060 C 
ATOM      3  C   UNL     1       6.424  -0.423  -0.395  0.00  0.00    +0.020 C 
ATOM      4  C   UNL     1       5.754  -1.593  -0.402  0.00  0.00    +0.039 C 
ATOM      5  C   UNL     1       4.291  -1.687  -0.031  0.00  0.00    +0.158 C 
ATOM      6  N   UNL     1       3.685  -0.358  -0.032  0.00  0.00    -0.301 N 
ATOM      7  C   UNL     1       2.369   0.007  -0.020  0.00  0.00    +0.069 A 
ATOM      8  C   UNL     1       1.186  -0.723  -0.012  0.00  0.00    +0.028 A 
ATOM      9  C   UNL     1       0.002  -0.004   0.002  0.00  0.00    +0.002 A 
ATOM     10  C   UNL     1      -0.017   1.380   0.010  0.00  0.00    +0.002 A 
ATOM     11  C   UNL     1       1.146   2.129   0.003  0.00  0.00    +0.028 A 
ATOM     12  C   UNL     1       2.355   1.424  -0.013  0.00  0.00    +0.066 A 
ATOM     13  N   UNL     1       3.637   1.839  -0.027  0.00  0.00    -0.327 N 
ATOM     14  C   UNL     1       4.428   0.801  -0.041  0.00  0.00    +0.179 A 
ATOM     15  N   UNL     1       5.811   0.763  -0.068  0.00  0.00    -0.290 N 
ATOM     16  C   UNL     1       6.399  -2.792  -0.761  0.00  0.00    +0.164 C 
ATOM     17  O   UNL     1       5.771  -3.832  -0.743  0.00  0.00    -0.292 OA
ATOM     18  C   UNL     1       7.846  -2.814  -1.168  0.00  0.00    +0.088 C 
ATOM     19  H   UNL     1       6.419   1.651   0.163  0.00  0.00    +0.155 HD
ATOM     20  H   UNL     1       3.868   2.915  -0.025  0.00  0.00    +0.169 HD
ENDROOT
BRANCH   5  21
ATOM     21  C   UNL     1       4.164  -2.293   1.343  0.00  0.00    +0.005 A 
ATOM     22  C   UNL     1       4.671  -1.798   2.483  0.00  0.00    +0.089 A 
ATOM     23  N   UNL     1       4.351  -2.619   3.530  0.00  0.00    -0.360 N 
ATOM     24  H   UNL     1       4.679  -2.364   4.549  0.00  0.00    +0.165 HD
ATOM     25  C   UNL     1       3.620  -3.694   3.076  0.00  0.00    +0.047 A 
ATOM     26  C   UNL     1       3.471  -3.537   1.686  0.00  0.00    +0.005 A 
ATOM     27  C   UNL     1       2.766  -4.490   0.949  0.00  0.00    +0.010 A 
ATOM     28  C   UNL     1       2.222  -5.572   1.583  0.00  0.00    +0.001 A 
ATOM     29  C   UNL     1       2.366  -5.731   2.954  0.00  0.00    +0.002 A 
ATOM     30  C   UNL     1       3.058  -4.802   3.701  0.00  0.00    +0.026 A 
ENDBRANCH   5  21
BRANCH   1  35
ATOM     31  C   UNL     1      13.849  -1.342  -3.043  0.00  0.00    +0.044 C 
ATOM     32  C   UNL     1      12.379  -1.373  -2.713  0.00  0.00    -0.050 A 
ATOM     33  C   UNL     1      11.443  -1.175  -3.711  0.00  0.00    +0.003 A 
ATOM     34  C   UNL     1      10.094  -1.203  -3.409  0.00  0.00    +0.004 A 
ATOM     35  C   UNL     1       9.682  -1.428  -2.108  0.00  0.00    -0.043 A 
ATOM     36  C   UNL     1      10.618  -1.620  -1.110  0.00  0.00    +0.004 A 
ATOM     37  C   UNL     1      11.966  -1.597  -1.413  0.00  0.00    +0.003 A 
ENDBRANCH   1  35
TORSDOF 2
