REMARK  Name = ZINC02279996
REMARK  2 active torsions:
REMARK  status: ('A' for Active; 'I' for Inactive)
REMARK    1  A    between atoms: C_8  and  C_12
REMARK    2  A    between atoms: C_18  and  C_20
REMARK                            x       y       z     vdW  Elec       q    Type
REMARK                         _______ _______ _______ _____ _____    ______ ____
ROOT
ATOM      1  C   UNL     1       2.270   1.280   0.930  0.00  0.00    +0.255 C 
ATOM      2  O   UNL     1       1.897   0.732   1.950  0.00  0.00    -0.270 OA
ATOM      3  N   UNL     1       1.413   1.451  -0.096  0.00  0.00    -0.281 N 
ATOM      4  C   UNL     1       1.788   2.182  -1.302  0.00  0.00    +0.120 C 
ATOM      5  C   UNL     1       1.049   1.610  -2.548  0.00  0.00    +0.090 C 
ATOM      6  S   UNL     1      -0.589   1.271  -1.760  0.00  0.00    -0.132 S 
ATOM      7  C   UNL     1       0.041   0.909  -0.066  0.00  0.00    +0.165 C 
ENDROOT
BRANCH   7   8
ATOM      8  C   UNL     1      -0.788   1.616   0.976  0.00  0.00    -0.009 A 
ATOM      9  C   UNL     1      -0.340   2.768   1.556  0.00  0.00    +0.007 A 
ATOM     10  C   UNL     1      -1.078   3.452   2.525  0.00  0.00    +0.004 A 
ATOM     11  C   UNL     1      -2.289   2.979   2.928  0.00  0.00    -0.039 A 
ATOM     12  C   UNL     1      -2.758   1.806   2.346  0.00  0.00    -0.011 A 
ATOM     13  C   UNL     1      -2.037   1.103   1.364  0.00  0.00    -0.012 A 
ATOM     14  C   UNL     1      -2.605  -0.073   0.849  0.00  0.00    +0.009 A 
ATOM     15  C   UNL     1      -3.825  -0.472   1.312  0.00  0.00    +0.001 A 
ATOM     16  C   UNL     1      -4.526   0.245   2.284  0.00  0.00    +0.004 A 
ATOM     17  C   UNL     1      -4.002   1.387   2.809  0.00  0.00    -0.039 A 
ATOM     18  C   UNL     1      -4.460   2.388   3.841  0.00  0.00    +0.040 C 
ATOM     19  C   UNL     1      -3.330   3.438   3.920  0.00  0.00    +0.040 C 
ENDBRANCH   7   8
BRANCH   1  27
ATOM     20  C   UNL     1       6.899   5.101  -0.379  0.00  0.00    +0.001 A 
ATOM     21  C   UNL     1       7.920   4.257   0.036  0.00  0.00    +0.004 A 
ATOM     22  C   UNL     1       7.636   3.006   0.541  0.00  0.00    +0.047 A 
ATOM     23  C   UNL     1       6.316   2.579   0.638  0.00  0.00    +0.139 A 
ATOM     24  C   UNL     1       5.283   3.435   0.217  0.00  0.00    +0.018 A 
ATOM     25  C   UNL     1       5.595   4.704  -0.293  0.00  0.00    +0.011 A 
ATOM     26  C   UNL     1       3.932   3.014   0.303  0.00  0.00    +0.031 A 
ATOM     27  C   UNL     1       3.658   1.758   0.817  0.00  0.00    +0.122 A 
ATOM     28  C   UNL     1       4.777   0.909   1.241  0.00  0.00    +0.350 A 
ATOM     29  O   UNL     1       4.560  -0.201   1.692  0.00  0.00    -0.244 OA
ATOM     30  O   UNL     1       6.040   1.353   1.133  0.00  0.00    -0.422 OA
ENDBRANCH   1  27
TORSDOF 2
