REMARK  Name = ZINC35722931
REMARK  9 active torsions:
REMARK  status: ('A' for Active; 'I' for Inactive)
REMARK    1  A    between atoms: C_1  and  C_2
REMARK    2  A    between atoms: C_2  and  C_3
REMARK    3  A    between atoms: C_3  and  C_4
REMARK    4  A    between atoms: C_3  and  C_5
REMARK    5  A    between atoms: C_3  and  C_6
REMARK    6  A    between atoms: C_10  and  C_22
REMARK    7  A    between atoms: C_12  and  S_15
REMARK    8  A    between atoms: S_15  and  C_16
REMARK    9  A    between atoms: C_22  and  N_23
REMARK                            x       y       z     vdW  Elec       q    Type
REMARK                         _______ _______ _______ _____ _____    ______ ____
ROOT
ATOM      1  C   UNL     1       0.739  -2.027  -1.265  0.00  0.00    -0.004 C 
ATOM      2  C   UNL     1      -0.696  -2.557  -1.254  0.00  0.00    +0.004 C 
ATOM      3  C   UNL     1      -0.676  -4.087  -1.263  0.00  0.00    +0.003 C 
ATOM      4  C   UNL     1       0.041  -4.580  -2.522  0.00  0.00    -0.015 C 
ATOM      5  C   UNL     1       1.476  -4.051  -2.532  0.00  0.00    +0.056 C 
ATOM      6  C   UNL     1       1.455  -2.521  -2.524  0.00  0.00    +0.019 C 
ENDROOT
BRANCH   1   7
ATOM      7  C   UNL     1       0.718  -0.497  -1.257  0.00  0.00    -0.032 C 
ATOM      8  C   UNL     1      -0.022   0.009  -2.496  0.00  0.00    +0.011 C 
ATOM      9  C   UNL     1       2.154   0.032  -1.268  0.00  0.00    +0.011 C 
BRANCH   7  11
ATOM     10  C   UNL     1      -0.019   1.526   0.010  0.00  0.00    +0.004 C 
ATOM     11  C   UNL     1       0.002  -0.004   0.002  0.00  0.00    +0.003 C 
ENDBRANCH   7  11
ENDBRANCH   1   7
BRANCH   5  12
ATOM     12  S   UNL     1       2.353  -4.652  -1.063  0.00  0.00    -0.083 S 
BRANCH  12  13
ATOM     13  C   UNL     1       4.007  -4.089  -1.294  0.00  0.00    +0.184 A 
ATOM     14  N   UNL     1       5.043  -4.299  -0.454  0.00  0.00    -0.254 N 
ATOM     15  H   UNL     1       5.022  -4.784   0.386  0.00  0.00    +0.191 HD
ATOM     16  N   UNL     1       6.158  -3.675  -1.037  0.00  0.00    -0.160 NA
ATOM     17  C   UNL     1       5.753  -3.140  -2.158  0.00  0.00    +0.245 A 
ATOM     18  N   UNL     1       4.453  -3.393  -2.319  0.00  0.00    -0.209 NA
ENDBRANCH  12  13
ENDBRANCH   5  12
BRANCH   4  19
ATOM     19  C   UNL     1       0.061  -6.110  -2.530  0.00  0.00    -0.082 C 
BRANCH  19  20
ATOM     20  N   UNL     1      -1.313  -6.618  -2.640  0.00  0.00    +0.378 N 
ATOM     21  H   UNL     1      -1.299  -7.627  -2.646  0.00  0.00    -0.090 HD
ATOM     22  H   UNL     1      -1.855  -6.293  -1.854  0.00  0.00    -0.090 HD
ATOM     23  H   UNL     1      -1.728  -6.282  -3.497  0.00  0.00    -0.090 HD
ENDBRANCH  19  20
ENDBRANCH   4  19
TORSDOF 6
