REMARK  Name = ZINC01860570
REMARK  13 active torsions:
REMARK  status: ('A' for Active; 'I' for Inactive)
REMARK    1  A    between atoms: C_1  and  C_2
REMARK    2  A    between atoms: C_2  and  C_39
REMARK    3  A    between atoms: C_9  and  C_24
REMARK    4  A    between atoms: C_9  and  N_28
REMARK    5  A    between atoms: N_12  and  C_13
REMARK    6  A    between atoms: C_13  and  C_14
REMARK    7  A    between atoms: C_18  and  O_22
REMARK    8  A    between atoms: C_19  and  O_20
REMARK    9  A    between atoms: O_20  and  C_21
REMARK   10  A    between atoms: O_22  and  C_23
REMARK   11  A    between atoms: C_29  and  C_31
REMARK   12  A    between atoms: C_31  and  C_32
REMARK   13  A    between atoms: C_32  and  C_33
REMARK                            x       y       z     vdW  Elec       q    Type
REMARK                         _______ _______ _______ _____ _____    ______ ____
ROOT
ATOM      1  C   UNL     1       0.024   1.324   0.538  0.00  0.00    +0.011 C 
ATOM      2  C   UNL     1       0.102  -0.203   0.468  0.00  0.00    -0.023 C 
ATOM      3  C   UNL     1       0.658  -0.620  -0.898  0.00  0.00    +0.058 C 
ATOM      4  C   UNL     1       2.082  -0.112  -1.003  0.00  0.00    +0.024 C 
ATOM      5  C   UNL     1       2.848   0.087   0.103  0.00  0.00    +0.053 C 
ATOM      6  C   UNL     1       2.404  -0.161   1.411  0.00  0.00    +0.164 C 
ATOM      7  O   UNL     1       3.118   0.060   2.368  0.00  0.00    -0.292 OA
ATOM      8  C   UNL     1       1.008  -0.716   1.589  0.00  0.00    +0.086 C 
ATOM      9  C   UNL     1       4.179   0.596  -0.377  0.00  0.00    +0.237 C 
ATOM     10  C   UNL     1       4.013   0.632  -1.886  0.00  0.00    +0.257 C 
ATOM     11  O   UNL     1       4.841   0.979  -2.701  0.00  0.00    -0.272 OA
ATOM     12  N   UNL     1       2.761   0.200  -2.137  0.00  0.00    -0.268 N 
ATOM     13  C   UNL     1      -1.300  -0.790   0.641  0.00  0.00    +0.011 C 
ENDROOT
BRANCH   9  14
ATOM     14  C   UNL     1       5.300  -0.367   0.019  0.00  0.00    +0.424 C 
ATOM     15  F   UNL     1       5.000  -1.651  -0.449  0.00  0.00    -0.167 F 
ATOM     16  F   UNL     1       6.506   0.064  -0.543  0.00  0.00    -0.167 F 
ATOM     17  F   UNL     1       5.420  -0.395   1.413  0.00  0.00    -0.167 F 
ENDBRANCH   9  14
BRANCH   9  18
ATOM     18  N   UNL     1       4.440   1.939   0.147  0.00  0.00    -0.291 N 
ATOM     19  C   UNL     1       3.629   2.962  -0.189  0.00  0.00    +0.214 C 
ATOM     20  O   UNL     1       2.631   2.754  -0.845  0.00  0.00    -0.276 OA
ATOM     21  H   UNL     1       5.196   2.091   0.735  0.00  0.00    +0.150 HD
BRANCH  19  22
ATOM     22  C   UNL     1       3.963   4.364   0.253  0.00  0.00    +0.096 C 
BRANCH  22  23
ATOM     23  C   UNL     1       2.890   5.328  -0.256  0.00  0.00    +0.013 C 
BRANCH  23  24
ATOM     24  C   UNL     1       3.229   6.751   0.192  0.00  0.00    -0.011 C 
ATOM     25  C   UNL     1       3.158   6.836   1.718  0.00  0.00    +0.003 C 
ATOM     26  C   UNL     1       3.497   8.259   2.166  0.00  0.00    +0.000 C 
ATOM     27  C   UNL     1       2.494   9.239   1.554  0.00  0.00    +0.000 C 
ATOM     28  C   UNL     1       2.564   9.154   0.028  0.00  0.00    +0.000 C 
ATOM     29  C   UNL     1       2.225   7.731  -0.420  0.00  0.00    +0.003 C 
ENDBRANCH  23  24
ENDBRANCH  22  23
ENDBRANCH  19  22
ENDBRANCH   9  18
BRANCH  12  30
ATOM     30  C   UNL     1       2.196   0.081  -3.483  0.00  0.00    +0.152 C 
BRANCH  30  31
ATOM     31  C   UNL     1       1.525   1.375  -3.863  0.00  0.00    +0.016 A 
ATOM     32  C   UNL     1       0.152   1.500  -3.756  0.00  0.00    +0.009 A 
ATOM     33  C   UNL     1      -0.467   2.686  -4.104  0.00  0.00    +0.004 A 
ATOM     34  C   UNL     1       0.284   3.753  -4.561  0.00  0.00    +0.049 A 
ATOM     35  C   UNL     1       1.660   3.635  -4.670  0.00  0.00    +0.162 A 
ATOM     36  C   UNL     1       2.284   2.443  -4.314  0.00  0.00    +0.166 A 
BRANCH  36  37
ATOM     37  O   UNL     1       3.635   2.324  -4.415  0.00  0.00    -0.491 OA
ATOM     38  C   UNL     1       4.154   1.851  -5.659  0.00  0.00    +0.277 C 
ENDBRANCH  36  37
BRANCH  35  39
ATOM     39  O   UNL     1       2.400   4.684  -5.119  0.00  0.00    -0.491 OA
ATOM     40  C   UNL     1       1.693   5.878  -5.460  0.00  0.00    +0.277 C 
ENDBRANCH  35  39
ENDBRANCH  30  31
ENDBRANCH  12  30
TORSDOF 9
