REMARK  Name = ZINC35791323
REMARK  8 active torsions:
REMARK  status: ('A' for Active; 'I' for Inactive)
REMARK    1  A    between atoms: C_1  and  C_2
REMARK    2  A    between atoms: C_2  and  N_3
REMARK    3  A    between atoms: N_3  and  C_4
REMARK    4  A    between atoms: N_3  and  C_6
REMARK    5  A    between atoms: C_4  and  C_5
REMARK    6  A    between atoms: C_9  and  C_12
REMARK    7  A    between atoms: C_12  and  N_13
REMARK    8  A    between atoms: C_22  and  C_24
REMARK                            x       y       z     vdW  Elec       q    Type
REMARK                         _______ _______ _______ _____ _____    ______ ____
ROOT
ATOM      1  N   UNL     1      -4.668  -0.319   5.396  0.00  0.00    +0.391 N 
ATOM      2  C   UNL     1      -3.701   0.706   5.797  0.00  0.00    -0.075 C 
ATOM      3  C   UNL     1      -4.403   2.008   6.164  0.00  0.00    +0.003 C 
ATOM      4  C   UNL     1      -5.646   2.191   5.289  0.00  0.00    +0.119 C 
ATOM      5  N   UNL     1      -6.787   1.534   5.937  0.00  0.00    -0.352 N 
ATOM      6  C   UNL     1      -8.033   2.056   6.103  0.00  0.00    +0.086 A 
ATOM      7  C   UNL     1      -8.797   1.136   6.726  0.00  0.00    +0.019 A 
ATOM      8  C   UNL     1      -7.989   0.005   6.959  0.00  0.00    +0.021 A 
ATOM      9  C   UNL     1      -6.763   0.278   6.473  0.00  0.00    +0.010 A 
ATOM     10  C   UNL     1      -5.561  -0.635   6.519  0.00  0.00    +0.014 C 
ATOM     11  H   UNL     1      -5.215   0.024   4.620  0.00  0.00    -0.080 HD
ENDROOT
BRANCH  10  12
ATOM     12  C   UNL     1      -6.015  -2.068   6.414  0.00  0.00    -0.018 A 
ATOM     13  C   UNL     1      -6.669  -2.666   5.312  0.00  0.00    +0.043 A 
ATOM     14  C   UNL     1      -6.889  -3.952   5.640  0.00  0.00    +0.195 A 
ATOM     15  O   UNL     1      -6.404  -4.164   6.875  0.00  0.00    -0.471 OA
ATOM     16  C   UNL     1      -5.869  -3.026   7.347  0.00  0.00    +0.197 A 
ENDBRANCH  10  12
BRANCH   1  17
ATOM     17  C   UNL     1      -3.950  -1.533   4.988  0.00  0.00    -0.042 C 
BRANCH  17  21
ATOM     18  C   UNL     1      -1.543  -0.682   1.560  0.00  0.00    +0.030 A 
ATOM     19  C   UNL     1      -1.019  -0.520   2.836  0.00  0.00    +0.023 A 
ATOM     20  C   UNL     1      -1.800  -0.796   3.942  0.00  0.00    +0.003 A 
ATOM     21  C   UNL     1      -3.102  -1.233   3.779  0.00  0.00    -0.064 A 
ATOM     22  C   UNL     1      -3.627  -1.395   2.510  0.00  0.00    +0.003 A 
ATOM     23  C   UNL     1      -2.853  -1.116   1.401  0.00  0.00    +0.023 A 
BRANCH  18  24
ATOM     24  N   UNL     1      -0.757  -0.404   0.440  0.00  0.00    -0.330 N 
BRANCH  24  26
ATOM     25  C   UNL     1       0.650   1.581   0.689  0.00  0.00    +0.024 C 
ATOM     26  C   UNL     1       0.624   0.053   0.610  0.00  0.00    +0.102 C 
ENDBRANCH  24  26
BRANCH  24  27
ATOM     27  C   UNL     1      -1.313  -0.570  -0.905  0.00  0.00    +0.102 C 
ATOM     28  C   UNL     1      -1.051  -1.996  -1.393  0.00  0.00    +0.024 C 
ENDBRANCH  24  27
ENDBRANCH  18  24
ENDBRANCH  17  21
ENDBRANCH   1  17
TORSDOF 6
