REMARK  Name = ZINC67040759
REMARK  9 active torsions:
REMARK  status: ('A' for Active; 'I' for Inactive)
REMARK    1  A    between atoms: C_1  and  C_2
REMARK    2  A    between atoms: C_2  and  C_3
REMARK    3  A    between atoms: C_2  and  C_4
REMARK    4  A    between atoms: C_2  and  C_5
REMARK    5  A    between atoms: N_16  and  C_17
REMARK    6  A    between atoms: C_17  and  C_19
REMARK    7  A    between atoms: C_17  and  C_27
REMARK    8  A    between atoms: C_22  and  O_25
REMARK    9  A    between atoms: O_25  and  C_26
REMARK                            x       y       z     vdW  Elec       q    Type
REMARK                         _______ _______ _______ _____ _____    ______ ____
ROOT
ATOM      1  C   UNL     1       0.433  -0.429  -1.237  0.00  0.00    +0.221 C 
ATOM      2  O   UNL     1       1.058   0.282  -1.995  0.00  0.00    -0.275 OA
ATOM      3  N   UNL     1       0.108  -1.685  -1.604  0.00  0.00    -0.299 N 
ATOM      4  C   UNL     1       0.444  -2.193  -2.888  0.00  0.00    +0.109 C 
ATOM      5  C   UNL     1      -0.572  -1.826  -4.019  0.00  0.00    +0.038 C 
ATOM      6  C   UNL     1      -2.005  -1.892  -3.397  0.00  0.00    +0.111 C 
ATOM      7  N   UNL     1      -2.197  -2.948  -2.465  0.00  0.00    -0.284 N 
ATOM      8  C   UNL     1      -2.034  -2.616  -1.026  0.00  0.00    +0.128 C 
ATOM      9  C   UNL     1      -0.611  -2.600  -0.681  0.00  0.00    +0.126 C 
ATOM     10  C   UNL     1      -2.513  -4.194  -2.868  0.00  0.00    +0.303 C 
ATOM     11  O   UNL     1      -2.640  -4.436  -4.053  0.00  0.00    -0.253 OA
ATOM     12  N   UNL     1      -2.689  -5.173  -1.958  0.00  0.00    -0.292 N 
ATOM     13  H   UNL     1      -2.588  -4.980  -1.013  0.00  0.00    +0.151 HD
ENDROOT
BRANCH   1  15
ATOM     14  C   UNL     1       0.308   1.592   0.195  0.00  0.00    +0.020 C 
ATOM     15  C   UNL     1       0.020   0.092   0.116  0.00  0.00    +0.039 C 
ATOM     16  C   UNL     1       0.808  -0.637   1.206  0.00  0.00    +0.020 C 
ATOM     17  C   UNL     1      -1.477  -0.151   0.320  0.00  0.00    +0.020 C 
ENDBRANCH   1  15
BRANCH  12  18
ATOM     18  C   UNL     1      -3.033  -6.527  -2.397  0.00  0.00    +0.108 C 
BRANCH  18  19
ATOM     19  C   UNL     1      -2.587  -7.521  -1.355  0.00  0.00    -0.027 A 
ATOM     20  C   UNL     1      -2.746  -7.232  -0.013  0.00  0.00    +0.009 A 
ATOM     21  C   UNL     1      -2.337  -8.141   0.944  0.00  0.00    +0.046 A 
ATOM     22  C   UNL     1      -1.767  -9.345   0.557  0.00  0.00    +0.120 A 
ATOM     23  C   UNL     1      -1.609  -9.633  -0.791  0.00  0.00    +0.046 A 
ATOM     24  C   UNL     1      -2.024  -8.723  -1.744  0.00  0.00    +0.009 A 
BRANCH  22  25
ATOM     25  O   UNL     1      -1.364 -10.241   1.496  0.00  0.00    -0.495 OA
ATOM     26  C   UNL     1      -0.785 -11.459   1.024  0.00  0.00    +0.277 C 
ENDBRANCH  22  25
ENDBRANCH  18  19
BRANCH  18  27
ATOM     27  C   UNL     1      -4.548  -6.633  -2.586  0.00  0.00    +0.014 C 
ATOM     28  C   UNL     1      -5.056  -7.191  -3.917  0.00  0.00    +0.006 C 
ATOM     29  C   UNL     1      -5.198  -5.699  -3.609  0.00  0.00    +0.006 C 
ENDBRANCH  18  27
ENDBRANCH  12  18
TORSDOF 5
