REMARK  Name = ZINC35868067
REMARK  8 active torsions:
REMARK  status: ('A' for Active; 'I' for Inactive)
REMARK    1  A    between atoms: C_1  and  C_2
REMARK    2  A    between atoms: C_2  and  C_3
REMARK    3  A    between atoms: N_13  and  C_16
REMARK    4  A    between atoms: C_16  and  C_17
REMARK    5  A    between atoms: N_26  and  C_27
REMARK    6  A    between atoms: C_27  and  C_28
REMARK    7  A    between atoms: C_27  and  C_29
REMARK    8  A    between atoms: C_27  and  C_30
REMARK                            x       y       z     vdW  Elec       q    Type
REMARK                         _______ _______ _______ _____ _____    ______ ____
ROOT
ATOM      1  C   UNL     1       0.700  -0.485  -1.234  0.00  0.00    +0.132 A 
ATOM      2  N   UNL     1       0.001  -0.699  -2.334  0.00  0.00    -0.217 NA
ATOM      3  C   UNL     1       0.563  -1.123  -3.454  0.00  0.00    +0.133 A 
ATOM      4  C   UNL     1       1.966  -1.357  -3.480  0.00  0.00    +0.051 A 
ATOM      5  C   UNL     1       2.799  -1.823  -4.588  0.00  0.00    -0.022 A 
ATOM      6  C   UNL     1       4.120  -1.964  -4.346  0.00  0.00    +0.010 A 
ATOM      7  S   UNL     1       4.332  -1.492  -2.652  0.00  0.00    -0.072 S 
ATOM      8  C   UNL     1       2.643  -1.106  -2.269  0.00  0.00    +0.114 A 
ATOM      9  N   UNL     1       2.004  -0.679  -1.198  0.00  0.00    -0.225 NA
ATOM     10  C   UNL     1       5.161  -2.426  -5.318  0.00  0.00    +0.127 C 
ATOM     11  N   UNL     1       4.476  -3.041  -6.471  0.00  0.00    -0.298 NA
ATOM     12  C   UNL     1       3.406  -2.163  -6.965  0.00  0.00    +0.089 C 
ATOM     13  C   UNL     1       2.241  -2.144  -5.972  0.00  0.00    +0.052 C 
ATOM     14  N   UNL     1      -0.204  -1.335  -4.586  0.00  0.00    -0.312 N 
ATOM     15  C   UNL     1      -0.724  -2.674  -4.896  0.00  0.00    +0.125 C 
ATOM     16  C   UNL     1      -2.247  -2.583  -5.059  0.00  0.00    +0.128 C 
ATOM     17  N   UNL     1      -2.555  -1.474  -5.972  0.00  0.00    -0.283 N 
ATOM     18  C   UNL     1      -2.035  -0.135  -5.662  0.00  0.00    +0.128 C 
ATOM     19  C   UNL     1      -0.517  -0.225  -5.497  0.00  0.00    +0.125 C 
ATOM     20  C   UNL     1      -3.303  -1.681  -7.074  0.00  0.00    +0.303 C 
ATOM     21  O   UNL     1      -3.807  -2.769  -7.271  0.00  0.00    -0.253 OA
ATOM     22  N   UNL     1      -3.491  -0.681  -7.958  0.00  0.00    -0.294 N 
ATOM     23  H   UNL     1      -3.030   0.164  -7.840  0.00  0.00    +0.151 HD
ENDROOT
BRANCH  22  24
ATOM     24  C   UNL     1      -4.392  -0.871  -9.098  0.00  0.00    +0.028 C 
ATOM     25  C   UNL     1      -5.800  -1.183  -8.588  0.00  0.00    +0.031 C 
ATOM     26  C   UNL     1      -4.426   0.407  -9.939  0.00  0.00    +0.031 C 
ATOM     27  C   UNL     1      -3.891  -2.034  -9.956  0.00  0.00    +0.031 C 
ENDBRANCH  22  24
BRANCH   1  29
ATOM     28  C   UNL     1      -0.033   1.527   0.017  0.00  0.00    +0.012 C 
ATOM     29  C   UNL     1      -0.008  -0.003   0.007  0.00  0.00    +0.073 C 
ENDBRANCH   1  29
BRANCH  11  30
ATOM     30  C   UNL     1       5.431  -3.361  -7.541  0.00  0.00    +0.081 C 
ATOM     31  C   UNL     1       6.387  -4.454  -7.061  0.00  0.00    +0.020 C 
ENDBRANCH  11  30
TORSDOF 3
