REMARK  Name = ZINC60162042
REMARK  10 active torsions:
REMARK  status: ('A' for Active; 'I' for Inactive)
REMARK    1  A    between atoms: C_1  and  C_2
REMARK    2  A    between atoms: C_5  and  C_8
REMARK    3  A    between atoms: C_8  and  C_10
REMARK    4  A    between atoms: C_8  and  N_24
REMARK    5  A    between atoms: C_10  and  N_11
REMARK    6  A    between atoms: C_12  and  C_14
REMARK    7  A    between atoms: C_14  and  N_15
REMARK    8  A    between atoms: C_16  and  C_18
REMARK    9  A    between atoms: N_24  and  C_25
REMARK   10  A    between atoms: N_24  and  C_26
REMARK                            x       y       z     vdW  Elec       q    Type
REMARK                         _______ _______ _______ _____ _____    ______ ____
ROOT
ATOM      1  N   UNL     1       1.846  -4.242  -1.461  0.00  0.00    -0.315 N 
ATOM      2  C   UNL     1       3.131  -4.543  -1.737  0.00  0.00    +0.230 C 
ATOM      3  O   UNL     1       3.818  -5.090  -0.901  0.00  0.00    -0.274 OA
ATOM      4  H   UNL     1       1.296  -3.804  -2.130  0.00  0.00    +0.149 HD
ENDROOT
BRANCH   1   5
ATOM      5  C   UNL     1       1.281  -4.575  -0.151  0.00  0.00    +0.093 C 
BRANCH   5   6
ATOM      6  C   UNL     1      -0.206  -4.216  -0.132  0.00  0.00    -0.021 C 
BRANCH   6  11
ATOM      7  C   UNL     1      -0.819   1.501  -0.705  0.00  0.00    +0.044 C 
ATOM      8  C   UNL     1      -0.659   0.010  -0.555  0.00  0.00    -0.050 A 
ATOM      9  C   UNL     1      -0.837  -0.817  -1.649  0.00  0.00    +0.003 A 
ATOM     10  C   UNL     1      -0.690  -2.185  -1.512  0.00  0.00    +0.002 A 
ATOM     11  C   UNL     1      -0.365  -2.725  -0.281  0.00  0.00    -0.059 A 
ATOM     12  C   UNL     1      -0.187  -1.898   0.812  0.00  0.00    +0.002 A 
ATOM     13  C   UNL     1      -0.330  -0.530   0.674  0.00  0.00    +0.003 A 
ENDBRANCH   6  11
BRANCH   6  14
ATOM     14  N   UNL     1      -0.797  -4.646   1.143  0.00  0.00    +0.382 N 
ATOM     15  C   UNL     1      -2.214  -4.261   1.180  0.00  0.00    -0.096 C 
ATOM     16  C   UNL     1      -0.683  -6.105   1.268  0.00  0.00    -0.096 C 
ATOM     17  H   UNL     1      -0.308  -4.204   1.906  0.00  0.00    -0.082 HD
ENDBRANCH   6  14
ENDBRANCH   5   6
ENDBRANCH   1   5
BRANCH   2  18
ATOM     18  C   UNL     1       3.712  -4.200  -3.084  0.00  0.00    +0.200 C 
BRANCH  18  19
ATOM     19  N   UNL     1       5.113  -4.627  -3.134  0.00  0.00    -0.300 N 
ATOM     20  C   UNL     1       5.840  -4.422  -4.250  0.00  0.00    +0.280 C 
ATOM     21  O   UNL     1       5.334  -3.881  -5.216  0.00  0.00    -0.267 OA
ATOM     22  H   UNL     1       5.516  -5.058  -2.365  0.00  0.00    +0.150 HD
BRANCH  20  23
ATOM     23  C   UNL     1       7.242  -4.849  -4.300  0.00  0.00    +0.191 A 
ATOM     24  C   UNL     1       8.089  -4.697  -5.361  0.00  0.00    +0.056 A 
ATOM     25  C   UNL     1       9.322  -5.244  -4.974  0.00  0.00    +0.058 A 
ATOM     26  C   UNL     1       9.175  -5.701  -3.709  0.00  0.00    +0.171 A 
ATOM     27  O   UNL     1       7.922  -5.456  -3.305  0.00  0.00    -0.444 OA
ATOM     28 BR   UNL     1      10.520  -6.541  -2.678  0.00  0.00    -0.008 Br
ENDBRANCH  20  23
ENDBRANCH  18  19
ENDBRANCH   2  18
TORSDOF 7
