REMARK  Name = ZINC65533198
REMARK  7 active torsions:
REMARK  status: ('A' for Active; 'I' for Inactive)
REMARK    1  A    between atoms: C_1  and  C_2
REMARK    2  A    between atoms: C_9  and  C_11
REMARK    3  A    between atoms: C_11  and  C_12
REMARK    4  A    between atoms: C_12  and  N_13
REMARK    5  A    between atoms: N_13  and  C_14
REMARK    6  A    between atoms: C_14  and  C_15
REMARK    7  A    between atoms: C_15  and  O_25
REMARK                            x       y       z     vdW  Elec       q    Type
REMARK                         _______ _______ _______ _____ _____    ______ ____
ROOT
ATOM      1  N   UNL     1       0.161  -6.371   3.220  0.00  0.00    +0.381 N 
ATOM      2  H   UNL     1      -0.359  -6.699   2.420  0.00  0.00    -0.086 HD
ATOM      3  H   UNL     1       1.134  -6.614   3.112  0.00  0.00    -0.086 HD
ENDROOT
BRANCH   1   4
ATOM      4  C   UNL     1       0.030  -4.912   3.324  0.00  0.00    -0.073 C 
BRANCH   4   5
ATOM      5  C   UNL     1       0.581  -4.259   2.055  0.00  0.00    +0.077 C 
BRANCH   5  13
ATOM      6  C   UNL     1      -0.019   1.526   0.010  0.00  0.00    +0.009 C 
ATOM      7  C   UNL     1       0.002  -0.004   0.002  0.00  0.00    +0.003 C 
ATOM      8  C   UNL     1       0.720  -0.498  -1.256  0.00  0.00    +0.006 C 
ATOM      9  C   UNL     1       0.712  -2.028  -1.282  0.00  0.00    +0.019 C 
ATOM     10  C   UNL     1       1.463  -2.559  -0.057  0.00  0.00    +0.108 C 
ATOM     11  N   UNL     1       0.869  -1.973   1.153  0.00  0.00    -0.301 N 
ATOM     12  C   UNL     1       0.744  -0.512   1.242  0.00  0.00    +0.111 C 
ATOM     13  C   UNL     1       0.447  -2.761   2.161  0.00  0.00    +0.214 C 
ATOM     14  O   UNL     1      -0.042  -2.265   3.154  0.00  0.00    -0.276 OA
ENDBRANCH   5  13
ENDBRANCH   4   5
ENDBRANCH   1   4
BRANCH   1  15
ATOM     15  C   UNL     1      -0.368  -6.998   4.439  0.00  0.00    -0.047 C 
BRANCH  15  16
ATOM     16  C   UNL     1      -0.232  -8.518   4.331  0.00  0.00    +0.057 C 
ATOM     17  C   UNL     1      -0.915  -9.002   3.050  0.00  0.00    +0.020 C 
ATOM     18  C   UNL     1      -2.397  -8.624   3.088  0.00  0.00    +0.010 C 
ATOM     19  C   UNL     1      -3.060  -9.283   4.300  0.00  0.00    -0.010 C 
ATOM     20  C   UNL     1      -2.923 -10.803   4.192  0.00  0.00    +0.007 C 
ATOM     21  C   UNL     1      -1.441 -11.181   4.153  0.00  0.00    -0.010 C 
ATOM     22  C   UNL     1      -0.778 -10.522   2.942  0.00  0.00    +0.010 C 
ATOM     23  C   UNL     1      -0.758 -10.697   5.434  0.00  0.00    +0.010 C 
ATOM     24  C   UNL     1      -0.894  -9.177   5.542  0.00  0.00    +0.020 C 
ATOM     25  C   UNL     1      -2.377  -8.799   5.581  0.00  0.00    +0.010 C 
BRANCH  16  26
ATOM     26  O   UNL     1       1.153  -8.871   4.295  0.00  0.00    -0.390 OA
ATOM     27  H   UNL     1       1.637  -8.487   3.551  0.00  0.00    +0.210 HD
ENDBRANCH  16  26
ENDBRANCH  15  16
ENDBRANCH   1  15
TORSDOF 6
