REMARK  Name = ZINC13979322
REMARK  7 active torsions:
REMARK  status: ('A' for Active; 'I' for Inactive)
REMARK    1  A    between atoms: C_1  and  C_2
REMARK    2  A    between atoms: C_2  and  C_4
REMARK    3  A    between atoms: C_2  and  O_18
REMARK    4  A    between atoms: N_6  and  C_7
REMARK    5  A    between atoms: C_7  and  N_9
REMARK    6  A    between atoms: N_9  and  C_10
REMARK    7  A    between atoms: O_18  and  C_19
REMARK                            x       y       z     vdW  Elec       q    Type
REMARK                         _______ _______ _______ _____ _____    ______ ____
ROOT
ATOM      1  C   UNL     1      -0.055   1.321   2.733  0.00  0.00    +0.259 C 
ATOM      2  O   UNL     1      -0.481   0.406   3.406  0.00  0.00    -0.271 OA
ATOM      3  N   UNL     1       1.203   1.766   2.919  0.00  0.00    -0.265 N 
ATOM      4  H   UNL     1       1.544   2.497   2.381  0.00  0.00    +0.157 HD
ENDROOT
BRANCH   1   6
ATOM      5  C   UNL     1      -0.343   1.700   0.299  0.00  0.00    +0.062 C 
ATOM      6  C   UNL     1      -0.933   1.959   1.687  0.00  0.00    +0.256 C 
BRANCH   6   7
ATOM      7  O   UNL     1      -2.245   1.397   1.759  0.00  0.00    -0.478 OA
BRANCH   7   8
ATOM      8  C   UNL     1      -3.269   2.159   1.290  0.00  0.00    +0.140 A 
ATOM      9  C   UNL     1      -3.005   3.371   0.669  0.00  0.00    +0.048 A 
ATOM     10  C   UNL     1      -4.047   4.141   0.190  0.00  0.00    +0.023 A 
ATOM     11  C   UNL     1      -5.353   3.710   0.337  0.00  0.00    +0.043 A 
ATOM     12  C   UNL     1      -5.620   2.504   0.961  0.00  0.00    +0.043 A 
ATOM     13  C   UNL     1      -4.580   1.728   1.438  0.00  0.00    +0.084 A 
ATOM     14 CL   UNL     1      -4.914   0.215   2.221  0.00  0.00    -0.080 Cl
ATOM     15 CL   UNL     1      -6.660   4.683  -0.262  0.00  0.00    -0.083 Cl
ENDBRANCH   7   8
ENDBRANCH   6   7
ENDBRANCH   1   6
BRANCH   3  16
ATOM     16  C   UNL     1       1.988   1.195   3.854  0.00  0.00    +0.141 C 
ATOM     17  S   UNL     1       1.387  -0.096   4.805  0.00  0.00    -0.018 S 
BRANCH  16  18
ATOM     18  N   UNL     1       3.247   1.640   4.041  0.00  0.00    -0.295 N 
ATOM     19  H   UNL     1       3.563   2.418   3.556  0.00  0.00    +0.154 HD
BRANCH  18  20
ATOM     20  C   UNL     1       4.097   0.980   4.935  0.00  0.00    +0.051 A 
ATOM     21  C   UNL     1       4.166  -0.407   4.934  0.00  0.00    +0.026 A 
ATOM     22  C   UNL     1       5.007  -1.057   5.816  0.00  0.00    +0.022 A 
ATOM     23  C   UNL     1       5.781  -0.327   6.702  0.00  0.00    +0.042 A 
ATOM     24  C   UNL     1       5.714   1.055   6.706  0.00  0.00    +0.041 A 
ATOM     25  C   UNL     1       4.879   1.711   5.822  0.00  0.00    +0.063 A 
ATOM     26 CL   UNL     1       4.801   3.445   5.822  0.00  0.00    -0.082 Cl
ATOM     27 CL   UNL     1       6.836  -1.147   7.810  0.00  0.00    -0.083 Cl
ENDBRANCH  18  20
ENDBRANCH  16  18
ENDBRANCH   3  16
TORSDOF 6
