REMARK  Name = ZINC02088814
REMARK  4 active torsions:
REMARK  status: ('A' for Active; 'I' for Inactive)
REMARK    1  A    between atoms: C_1  and  C_2
REMARK    2  A    between atoms: C_5  and  C_8
REMARK    3  A    between atoms: C_15  and  C_35
REMARK    4  A    between atoms: C_27  and  C_29
REMARK                            x       y       z     vdW  Elec       q    Type
REMARK                         _______ _______ _______ _____ _____    ______ ____
ROOT
ATOM      1  C   UNL     1       2.226   3.940  -0.136  0.00  0.00    +0.127 C 
ATOM      2  C   UNL     1       2.584   4.518   1.233  0.00  0.00    +0.124 C 
ATOM      3  C   UNL     1       2.803   3.397   2.214  0.00  0.00    +0.145 C 
ATOM      4  O   UNL     1       3.256   2.339   1.847  0.00  0.00    -0.297 OA
ATOM      5  C   UNL     1       2.447   3.617   3.667  0.00  0.00    +0.087 C 
ATOM      6  C   UNL     1       0.989   4.091   3.714  0.00  0.00    +0.050 C 
ATOM      7  C   UNL     1       0.816   5.266   2.798  0.00  0.00    +0.001 C 
ATOM      8  C   UNL     1       1.514   5.455   1.702  0.00  0.00    +0.017 C 
ATOM      9  N   UNL     1       1.238   6.601   0.945  0.00  0.00    -0.316 N 
ATOM     10  C   UNL     1       0.437   6.486  -0.196  0.00  0.00    +0.053 A 
ATOM     11  C   UNL     1      -0.774   7.144  -0.302  0.00  0.00    +0.025 A 
ATOM     12  C   UNL     1      -1.513   7.041  -1.467  0.00  0.00    +0.002 A 
ATOM     13  C   UNL     1      -1.046   6.280  -2.524  0.00  0.00    +0.002 A 
ATOM     14  C   UNL     1       0.160   5.610  -2.422  0.00  0.00    +0.025 A 
ATOM     15  C   UNL     1       0.904   5.701  -1.260  0.00  0.00    +0.058 A 
ATOM     16  N   UNL     1       2.120   5.023  -1.119  0.00  0.00    -0.257 N 
ATOM     17  C   UNL     1       3.181   5.360  -1.878  0.00  0.00    +0.251 C 
ATOM     18  O   UNL     1       4.198   4.697  -1.831  0.00  0.00    -0.270 OA
ATOM     19  H   UNL     1       1.597   7.462   1.209  0.00  0.00    +0.152 HD
ENDROOT
BRANCH   1  24
ATOM     20  C   UNL     1      -2.825   1.157   0.227  0.00  0.00    +0.044 C 
ATOM     21  C   UNL     1      -1.508   1.883   0.129  0.00  0.00    -0.050 A 
ATOM     22  C   UNL     1      -1.421   3.209   0.510  0.00  0.00    +0.004 A 
ATOM     23  C   UNL     1      -0.212   3.874   0.426  0.00  0.00    +0.006 A 
ATOM     24  C   UNL     1       0.908   3.215  -0.044  0.00  0.00    -0.026 A 
ATOM     25  C   UNL     1       0.820   1.891  -0.431  0.00  0.00    +0.006 A 
ATOM     26  C   UNL     1      -0.389   1.226  -0.346  0.00  0.00    +0.004 A 
ENDBRANCH   1  24
BRANCH   6  27
ATOM     27  C   UNL     1       0.083   2.971   3.272  0.00  0.00    -0.039 A 
ATOM     28  C   UNL     1      -1.289   3.140   3.302  0.00  0.00    +0.004 A 
ATOM     29  C   UNL     1      -2.121   2.115   2.893  0.00  0.00    +0.002 A 
ATOM     30  C   UNL     1      -1.583   0.917   2.463  0.00  0.00    +0.020 A 
ATOM     31  C   UNL     1      -0.210   0.746   2.438  0.00  0.00    +0.041 A 
ATOM     32  C   UNL     1       0.623   1.774   2.843  0.00  0.00    +0.024 A 
ATOM     33 CL   UNL     1       0.467  -0.759   1.899  0.00  0.00    -0.084 Cl
ENDBRANCH   6  27
BRANCH  17  34
ATOM     34  C   UNL     1       3.108   6.538  -2.769  0.00  0.00    +0.037 A 
ATOM     35  C   UNL     1       3.775   6.532  -3.995  0.00  0.00    +0.013 A 
ATOM     36  C   UNL     1       3.697   7.631  -4.825  0.00  0.00    +0.001 A 
ATOM     37  C   UNL     1       2.970   8.743  -4.438  0.00  0.00    +0.000 A 
ATOM     38  C   UNL     1       2.312   8.758  -3.221  0.00  0.00    +0.001 A 
ATOM     39  C   UNL     1       2.376   7.663  -2.385  0.00  0.00    +0.013 A 
ENDBRANCH  17  34
TORSDOF 3
