REMARK  Name = ZINC02915247
REMARK  6 active torsions:
REMARK  status: ('A' for Active; 'I' for Inactive)
REMARK    1  A    between atoms: C_1  and  O_2
REMARK    2  A    between atoms: O_2  and  C_3
REMARK    3  A    between atoms: C_7  and  C_9
REMARK    4  A    between atoms: C_20  and  C_22
REMARK    5  A    between atoms: C_27  and  O_28
REMARK    6  A    between atoms: O_28  and  C_29
REMARK                            x       y       z     vdW  Elec       q    Type
REMARK                         _______ _______ _______ _____ _____    ______ ____
ROOT
ATOM      1  C   UNL     1       1.539  -4.301   2.336  0.00  0.00    +0.159 C 
ATOM      2  C   UNL     1       2.857  -4.631   1.671  0.00  0.00    +0.027 C 
ATOM      3  C   UNL     1       3.771  -5.322   2.382  0.00  0.00    +0.083 C 
ATOM      4  C   UNL     1       5.064  -5.630   1.719  0.00  0.00    +0.042 A 
ATOM      5  C   UNL     1       5.929  -6.589   2.227  0.00  0.00    +0.013 A 
ATOM      6  C   UNL     1       7.121  -6.846   1.577  0.00  0.00    +0.001 A 
ATOM      7  C   UNL     1       7.451  -6.152   0.426  0.00  0.00    +0.004 A 
ATOM      8  C   UNL     1       6.594  -5.194  -0.086  0.00  0.00    +0.046 A 
ATOM      9  C   UNL     1       5.398  -4.926   0.555  0.00  0.00    +0.131 A 
ATOM     10  O   UNL     1       4.542  -3.986   0.079  0.00  0.00    -0.479 OA
ATOM     11  C   UNL     1       3.143  -4.213   0.258  0.00  0.00    +0.238 C 
ATOM     12  N   UNL     1       3.526  -5.722   3.654  0.00  0.00    -0.213 NA
ATOM     13  C   UNL     1       2.412  -5.479   4.304  0.00  0.00    +0.237 C 
ATOM     14  N   UNL     1       1.383  -4.777   3.716  0.00  0.00    -0.208 N 
ATOM     15  N   UNL     1       0.365  -4.692   4.668  0.00  0.00    -0.251 N 
ATOM     16  C   UNL     1       0.819  -5.340   5.777  0.00  0.00    +0.203 C 
ATOM     17  N   UNL     1       2.010  -5.798   5.554  0.00  0.00    -0.205 NA
ATOM     18  H   UNL     1      -0.495  -4.257   4.561  0.00  0.00    +0.171 HD
ENDROOT
BRANCH   1  23
ATOM     19  C   UNL     1       0.469  -0.816   1.344  0.00  0.00    +0.120 A 
ATOM     20  C   UNL     1       1.071  -0.052   2.334  0.00  0.00    +0.045 A 
ATOM     21  C   UNL     1       1.820  -0.665   3.319  0.00  0.00    +0.004 A 
ATOM     22  C   UNL     1       1.971  -2.040   3.319  0.00  0.00    +0.006 A 
ATOM     23  C   UNL     1       1.373  -2.804   2.334  0.00  0.00    -0.018 A 
ATOM     24  C   UNL     1       0.617  -2.195   1.350  0.00  0.00    +0.051 A 
BRANCH  19  26
ATOM     25  C   UNL     1      -0.378   1.210   0.432  0.00  0.00    +0.277 C 
ATOM     26  O   UNL     1      -0.269  -0.214   0.375  0.00  0.00    -0.495 OA
ENDBRANCH  19  26
ENDBRANCH   1  23
BRANCH  11  27
ATOM     27  C   UNL     1       2.690  -5.299  -0.684  0.00  0.00    +0.039 A 
ATOM     28  C   UNL     1       3.585  -6.259  -1.114  0.00  0.00    +0.011 A 
ATOM     29  C   UNL     1       3.170  -7.255  -1.979  0.00  0.00    +0.001 A 
ATOM     30  C   UNL     1       1.858  -7.293  -2.414  0.00  0.00    +0.004 A 
ATOM     31  C   UNL     1       0.959  -6.336  -1.987  0.00  0.00    +0.046 A 
ATOM     32  C   UNL     1       1.372  -5.338  -1.115  0.00  0.00    +0.127 A 
BRANCH  32  33
ATOM     33  O   UNL     1       0.488  -4.398  -0.688  0.00  0.00    -0.495 OA
ATOM     34  C   UNL     1      -0.853  -4.501  -1.173  0.00  0.00    +0.277 C 
ENDBRANCH  32  33
ENDBRANCH  11  27
TORSDOF 4
