REMARK  Name = ZINC20761230
REMARK  6 active torsions:
REMARK  status: ('A' for Active; 'I' for Inactive)
REMARK    1  A    between atoms: N_17  and  C_18
REMARK    2  A    between atoms: C_18  and  C_19
REMARK    3  A    between atoms: C_19  and  C_20
REMARK    4  A    between atoms: C_20  and  C_21
REMARK    5  A    between atoms: N_23  and  C_24
REMARK    6  A    between atoms: C_27  and  O_30
REMARK                            x       y       z     vdW  Elec       q    Type
REMARK                         _______ _______ _______ _____ _____    ______ ____
ROOT
ATOM      1  C   UNL     1       3.014   2.431  -1.461  0.00  0.00    +0.001 A 
ATOM      2  C   UNL     1       3.722   1.243  -1.528  0.00  0.00    +0.002 A 
ATOM      3  C   UNL     1       3.107   0.009  -1.410  0.00  0.00    +0.026 A 
ATOM      4  C   UNL     1       1.727   0.007  -1.219  0.00  0.00    +0.047 A 
ATOM      5  C   UNL     1       1.007   1.227  -1.150  0.00  0.00    +0.003 A 
ATOM      6  C   UNL     1       1.654   2.460  -1.273  0.00  0.00    +0.010 A 
ATOM      7  C   UNL     1      -0.381   0.862  -0.947  0.00  0.00    -0.016 A 
ATOM      8  C   UNL     1      -0.432  -0.487  -0.908  0.00  0.00    +0.038 A 
ATOM      9  N   UNL     1       0.825  -1.007  -1.069  0.00  0.00    -0.356 N 
ATOM     10  H   UNL     1       1.165  -2.053  -1.089  0.00  0.00    +0.166 HD
ATOM     11  C   UNL     1      -1.713  -1.269  -0.719  0.00  0.00    +0.162 C 
ATOM     12  N   UNL     1      -2.760  -0.313  -0.320  0.00  0.00    -0.280 N 
ATOM     13  C   UNL     1      -2.852   0.963  -1.045  0.00  0.00    +0.114 C 
ATOM     14  C   UNL     1      -1.573   1.772  -0.796  0.00  0.00    +0.056 C 
ATOM     15  C   UNL     1      -3.611  -0.601   0.685  0.00  0.00    +0.303 C 
ATOM     16  O   UNL     1      -4.407   0.236   1.065  0.00  0.00    -0.253 OA
ATOM     17  N   UNL     1      -3.581  -1.815   1.267  0.00  0.00    -0.299 N 
ATOM     18  H   UNL     1      -2.809  -2.544   0.979  0.00  0.00    +0.150 HD
ENDROOT
BRANCH  17  19
ATOM     19  C   UNL     1      -4.575  -2.166   2.284  0.00  0.00    +0.106 C 
BRANCH  19  20
ATOM     20  C   UNL     1      -4.318  -3.590   2.780  0.00  0.00    +0.028 C 
BRANCH  20  21
ATOM     21  C   UNL     1      -5.357  -3.956   3.842  0.00  0.00    +0.097 C 
BRANCH  21  22
ATOM     22  C   UNL     1      -5.104  -5.359   4.330  0.00  0.00    +0.217 C 
ATOM     23  O   UNL     1      -4.183  -6.003   3.874  0.00  0.00    -0.275 OA
ATOM     24  N   UNL     1      -5.901  -5.898   5.274  0.00  0.00    -0.285 N 
ATOM     25  H   UNL     1      -6.785  -5.347   5.627  0.00  0.00    +0.155 HD
BRANCH  24  26
ATOM     26  C   UNL     1      -5.603  -7.160   5.805  0.00  0.00    +0.034 A 
ATOM     27  C   UNL     1      -6.629  -8.009   6.196  0.00  0.00    +0.027 A 
ATOM     28  C   UNL     1      -6.335  -9.254   6.714  0.00  0.00    +0.047 A 
ATOM     29  C   UNL     1      -5.014  -9.653   6.856  0.00  0.00    +0.117 A 
ATOM     30  C   UNL     1      -3.987  -8.802   6.471  0.00  0.00    +0.047 A 
ATOM     31  C   UNL     1      -4.280  -7.559   5.947  0.00  0.00    +0.027 A 
BRANCH  29  32
ATOM     32  O   UNL     1      -4.725 -10.877   7.372  0.00  0.00    -0.507 OA
ATOM     33  H   UNL     1      -3.677 -11.193   7.484  0.00  0.00    +0.292 HD
ENDBRANCH  29  32
ENDBRANCH  24  26
ENDBRANCH  21  22
ENDBRANCH  20  21
ENDBRANCH  19  20
ENDBRANCH  17  19
TORSDOF 6
