REMARK  Name = ZINC43410882
REMARK  4 active torsions:
REMARK  status: ('A' for Active; 'I' for Inactive)
REMARK    1  A    between atoms: C_1  and  N_2
REMARK    2  A    between atoms: N_2  and  C_16
REMARK    3  A    between atoms: C_4  and  C_13
REMARK    4  A    between atoms: C_13  and  N_15
REMARK                            x       y       z     vdW  Elec       q    Type
REMARK                         _______ _______ _______ _____ _____    ______ ____
ROOT
ATOM      1  C   UNL     1      -0.988   0.417  -0.656  0.00  0.00    +0.131 C 
ATOM      2  N   UNL     1       0.231  -0.045   0.014  0.00  0.00    -0.315 N 
ATOM      3  C   UNL     1       0.152  -0.637   1.262  0.00  0.00    +0.131 A 
ATOM      4  C   UNL     1       0.020   0.164   2.410  0.00  0.00    +0.043 A 
ATOM      5  C   UNL     1      -0.051  -0.467   3.655  0.00  0.00    +0.019 A 
ATOM      6  C   UNL     1       0.008  -1.854   3.710  0.00  0.00    -0.025 A 
ATOM      7  C   UNL     1       0.131  -2.574   2.542  0.00  0.00    +0.047 A 
ATOM      8  N   UNL     1       0.196  -1.951   1.371  0.00  0.00    -0.236 NA
ATOM      9  C   UNL     1       0.182  -4.081   2.527  0.00  0.00    +0.056 C 
ATOM     10  C   UNL     1       0.529  -4.621   3.912  0.00  0.00    +0.006 C 
ATOM     11  C   UNL     1      -0.422  -3.984   4.933  0.00  0.00    +0.005 C 
ATOM     12  C   UNL     1      -0.064  -2.505   5.066  0.00  0.00    +0.037 C 
ENDROOT
BRANCH   2  13
ATOM     13  C   UNL     1       1.532   0.120  -0.638  0.00  0.00    +0.079 C 
ATOM     14  C   UNL     1       1.492  -0.516  -2.031  0.00  0.00    +0.050 C 
ATOM     15  C   UNL     1       2.829  -0.270  -2.735  0.00  0.00    +0.161 C 
ATOM     16  O   UNL     1       3.077   1.136  -2.805  0.00  0.00    -0.380 OA
ATOM     17  C   UNL     1       3.172   1.776  -1.531  0.00  0.00    +0.161 C 
ATOM     18  C   UNL     1       1.849   1.613  -0.779  0.00  0.00    +0.050 C 
ENDBRANCH   2  13
BRANCH   4  19
ATOM     19  C   UNL     1      -0.041   1.631   2.304  0.00  0.00    +0.080 C 
ATOM     20  S   UNL     1       0.040   2.382   0.767  0.00  0.00    -0.035 S 
BRANCH  19  21
ATOM     21  N   UNL     1      -0.160   2.383   3.416  0.00  0.00    -0.352 N 
ATOM     22  H   UNL     1      -0.206   1.958   4.287  0.00  0.00    +0.143 HD
ATOM     23  H   UNL     1      -0.200   3.350   3.346  0.00  0.00    +0.143 HD
ENDBRANCH  19  21
ENDBRANCH   4  19
TORSDOF 3
