REMARK  Name = ZINC32721535
REMARK  7 active torsions:
REMARK  status: ('A' for Active; 'I' for Inactive)
REMARK    1  A    between atoms: C_1  and  C_2
REMARK    2  A    between atoms: C_2  and  C_3
REMARK    3  A    between atoms: C_2  and  C_4
REMARK    4  A    between atoms: C_4  and  C_6
REMARK    5  A    between atoms: C_4  and  N_21
REMARK    6  A    between atoms: C_14  and  C_16
REMARK    7  A    between atoms: C_22  and  C_24
REMARK                            x       y       z     vdW  Elec       q    Type
REMARK                         _______ _______ _______ _____ _____    ______ ____
ROOT
ATOM      1  C   UNL     1      -0.345   2.404  -1.389  0.00  0.00    +0.162 C 
ENDROOT
BRANCH   1   2
ATOM      2  C   UNL     1       0.810   1.602  -0.848  0.00  0.00    +0.236 C 
ATOM      3  O   UNL     1       0.944   0.439  -1.166  0.00  0.00    -0.274 OA
ATOM      4  N   UNL     1       1.699   2.179  -0.014  0.00  0.00    -0.297 N 
ATOM      5  C   UNL     1       1.619   3.615   0.287  0.00  0.00    +0.127 C 
ATOM      6  C   UNL     1       1.537   3.787   1.814  0.00  0.00    +0.127 C 
ATOM      7  N   UNL     1       2.607   2.991   2.433  0.00  0.00    -0.294 N 
ATOM      8  C   UNL     1       2.690   1.556   2.127  0.00  0.00    +0.127 C 
ATOM      9  C   UNL     1       2.769   1.383   0.605  0.00  0.00    +0.127 C 
ATOM     10  C   UNL     1       3.496   3.568   3.265  0.00  0.00    +0.253 C 
ATOM     11  O   UNL     1       4.496   2.962   3.603  0.00  0.00    -0.269 OA
BRANCH  10  12
ATOM     12  C   UNL     1       3.259   4.926   3.765  0.00  0.00    +0.074 A 
ATOM     13  C   UNL     1       4.115   5.761   4.465  0.00  0.00    +0.021 A 
ATOM     14  C   UNL     1       3.634   6.999   4.813  0.00  0.00    +0.008 A 
ATOM     15  C   UNL     1       2.364   7.337   4.471  0.00  0.00    +0.046 A 
ATOM     16  S   UNL     1       1.790   5.930   3.637  0.00  0.00    -0.092 S 
ENDBRANCH  10  12
ENDBRANCH   1   2
BRANCH   1  17
ATOM     17  N   UNL     1      -1.524   1.543  -1.508  0.00  0.00    -0.303 N 
ATOM     18  C   UNL     1      -2.759   2.082  -1.476  0.00  0.00    +0.220 C 
ATOM     19  O   UNL     1      -2.894   3.280  -1.348  0.00  0.00    -0.275 OA
ATOM     20  H   UNL     1      -1.401   0.456  -1.624  0.00  0.00    +0.149 HD
BRANCH  18  21
ATOM     21  C   UNL     1      -3.971   1.196  -1.598  0.00  0.00    +0.048 C 
ATOM     22  C   UNL     1      -3.980   0.182  -0.452  0.00  0.00    +0.019 C 
ATOM     23  C   UNL     1      -5.212  -0.717  -0.577  0.00  0.00    -0.009 C 
ATOM     24  C   UNL     1      -6.478   0.139  -0.510  0.00  0.00    +0.007 C 
ATOM     25  C   UNL     1      -6.469   1.152  -1.657  0.00  0.00    -0.009 C 
ATOM     26  C   UNL     1      -5.237   2.052  -1.532  0.00  0.00    +0.019 C 
ATOM     27  C   UNL     1      -6.425   0.410  -2.994  0.00  0.00    +0.007 C 
ATOM     28  C   UNL     1      -5.159  -0.446  -3.060  0.00  0.00    -0.009 C 
ATOM     29  C   UNL     1      -5.168  -1.460  -1.914  0.00  0.00    +0.007 C 
ATOM     30  C   UNL     1      -3.927   0.453  -2.935  0.00  0.00    +0.019 C 
ENDBRANCH  18  21
ENDBRANCH   1  17
BRANCH   1  32
ATOM     31  C   UNL     1      -1.104   3.869  -3.265  0.00  0.00    +0.009 C 
ATOM     32  C   UNL     1       0.021   2.961  -2.766  0.00  0.00    +0.012 C 
ATOM     33  C   UNL     1       1.318   3.766  -2.662  0.00  0.00    +0.009 C 
ENDBRANCH   1  32
TORSDOF 5
