REMARK  Name = ZINC39534220
REMARK  14 active torsions:
REMARK  status: ('A' for Active; 'I' for Inactive)
REMARK    1  A    between atoms: C_1  and  C_2
REMARK    2  A    between atoms: C_2  and  C_3
REMARK    3  A    between atoms: C_2  and  S_4
REMARK    4  A    between atoms: S_4  and  C_7
REMARK    5  A    between atoms: N_10  and  C_14
REMARK    6  A    between atoms: C_14  and  C_16
REMARK    7  A    between atoms: C_14  and  C_24
REMARK    8  A    between atoms: C_16  and  N_17
REMARK    9  A    between atoms: N_17  and  S_18
REMARK   10  A    between atoms: S_18  and  C_21
REMARK   11  A    between atoms: C_21  and  C_22
REMARK   12  A    between atoms: C_21  and  C_23
REMARK   13  A    between atoms: C_27  and  C_30
REMARK   14  A    between atoms: C_35  and  O_36
REMARK                            x       y       z     vdW  Elec       q    Type
REMARK                         _______ _______ _______ _____ _____    ______ ____
ROOT
ATOM      1  C   UNL     1      -6.124  -0.842  -3.303  0.00  0.00    +0.102 C 
ENDROOT
BRANCH   1   4
ATOM      2  C   UNL     1      -2.639  -1.582  -2.082  0.00  0.00    +0.212 C 
ATOM      3  C   UNL     1      -4.168  -1.642  -2.122  0.00  0.00    +0.127 C 
ATOM      4  N   UNL     1      -4.663  -0.754  -3.183  0.00  0.00    -0.290 NA
ATOM      5  C   UNL     1      -4.236   0.632  -2.947  0.00  0.00    +0.100 C 
ATOM      6  C   UNL     1      -2.707   0.693  -2.908  0.00  0.00    +0.098 C 
ATOM      7  N   UNL     1      -2.211  -0.196  -1.847  0.00  0.00    -0.293 NA
ATOM      8  H   UNL     1      -2.510   0.126  -0.938  0.00  0.00    +0.124 HD
BRANCH   2   9
ATOM      9  S   UNL     1      -2.026  -2.640  -0.742  0.00  0.00    -0.012 S 
ATOM     10  O   UNL     1      -2.345  -3.989  -1.053  0.00  0.00    -0.173 OA
ATOM     11  O   UNL     1      -2.462  -2.095   0.496  0.00  0.00    -0.173 OA
BRANCH   9  13
ATOM     12  C   UNL     1       0.131  -0.959  -0.659  0.00  0.00    +0.031 C 
ATOM     13  C   UNL     1      -0.228  -2.433  -0.859  0.00  0.00    +0.126 C 
ATOM     14  C   UNL     1       0.454  -3.275   0.222  0.00  0.00    +0.031 C 
ENDBRANCH   9  13
ENDBRANCH   2   9
ENDBRANCH   1   4
BRANCH   1  15
ATOM     15  C   UNL     1      -6.511  -2.237  -3.720  0.00  0.00    -0.029 A 
ATOM     16  C   UNL     1      -5.750  -2.912  -4.657  0.00  0.00    +0.006 A 
ATOM     17  C   UNL     1      -6.101  -4.190  -5.043  0.00  0.00    +0.009 A 
ATOM     18  C   UNL     1      -7.223  -4.801  -4.486  0.00  0.00    -0.014 A 
ATOM     19  C   UNL     1      -7.986  -4.116  -3.542  0.00  0.00    +0.009 A 
ATOM     20  C   UNL     1      -7.623  -2.840  -3.159  0.00  0.00    +0.006 A 
BRANCH  18  21
ATOM     21  C   UNL     1      -7.604  -6.174  -4.897  0.00  0.00    +0.024 A 
ATOM     22  C   UNL     1      -7.698  -6.499  -6.248  0.00  0.00    +0.012 A 
ATOM     23  C   UNL     1      -8.053  -7.779  -6.625  0.00  0.00    +0.001 A 
ATOM     24  C   UNL     1      -8.318  -8.740  -5.666  0.00  0.00    +0.004 A 
ATOM     25  C   UNL     1      -8.228  -8.428  -4.323  0.00  0.00    +0.046 A 
ATOM     26  C   UNL     1      -7.866  -7.149  -3.930  0.00  0.00    +0.125 A 
BRANCH  26  27
ATOM     27  O   UNL     1      -7.772  -6.842  -2.610  0.00  0.00    -0.506 OA
ATOM     28  H   UNL     1      -8.597  -6.519  -2.221  0.00  0.00    +0.292 HD
ENDBRANCH  26  27
ENDBRANCH  18  21
ENDBRANCH   1  15
BRANCH   1  29
ATOM     29  C   UNL     1      -6.610   0.158  -4.355  0.00  0.00    +0.129 C 
BRANCH  29  30
ATOM     30  N   UNL     1      -8.073   0.122  -4.423  0.00  0.00    -0.192 NA
ATOM     31  H   UNL     1      -8.534  -0.727  -4.517  0.00  0.00    +0.148 HD
BRANCH  30  32
ATOM     32  S   UNL     1      -8.941   1.530  -4.340  0.00  0.00    +0.032 S 
ATOM     33  O   UNL     1     -10.301   1.121  -4.388  0.00  0.00    -0.158 OA
ATOM     34  O   UNL     1      -8.427   2.206  -3.200  0.00  0.00    -0.158 OA
BRANCH  32  35
ATOM     35  C   UNL     1      -8.507   2.435  -5.851  0.00  0.00    +0.142 C 
ATOM     36  C   UNL     1      -9.280   3.755  -5.895  0.00  0.00    +0.033 C 
ATOM     37  C   UNL     1      -7.005   2.723  -5.860  0.00  0.00    +0.033 C 
ENDBRANCH  32  35
ENDBRANCH  30  32
ENDBRANCH  29  30
ENDBRANCH   1  29
TORSDOF 10
