REMARK  Name = ZINC05376416
REMARK  8 active torsions:
REMARK  status: ('A' for Active; 'I' for Inactive)
REMARK    1  A    between atoms: C_1  and  O_2
REMARK    2  A    between atoms: O_2  and  C_3
REMARK    3  A    between atoms: C_6  and  C_9
REMARK    4  A    between atoms: N_15  and  C_16
REMARK    5  A    between atoms: C_19  and  O_24
REMARK    6  A    between atoms: C_21  and  O_22
REMARK    7  A    between atoms: O_22  and  C_23
REMARK    8  A    between atoms: O_24  and  C_25
REMARK                            x       y       z     vdW  Elec       q    Type
REMARK                         _______ _______ _______ _____ _____    ______ ____
ROOT
ATOM      1  C   UNL     1      -1.399  -4.156  -0.367  0.00  0.00    +0.028 C 
ATOM      2  C   UNL     1      -1.901  -2.918  -0.125  0.00  0.00    +0.078 C 
ATOM      3  C   UNL     1      -3.306  -2.474  -0.061  0.00  0.00    +0.256 C 
ATOM      4  O   UNL     1      -4.227  -3.250  -0.237  0.00  0.00    -0.269 OA
ATOM      5  N   UNL     1      -3.520  -1.195   0.201  0.00  0.00    -0.260 N 
ATOM      6  C   UNL     1      -2.462  -0.331   0.391  0.00  0.00    +0.166 C 
ATOM      7  N   UNL     1      -2.495   0.955   0.652  0.00  0.00    -0.222 NA
ATOM      8  S   UNL     1      -1.036  -1.389   0.203  0.00  0.00    -0.049 S 
ATOM      9  H   UNL     1      -4.429  -0.862   0.257  0.00  0.00    +0.157 HD
ENDROOT
BRANCH   1  13
ATOM     10  C   UNL     1       2.757  -4.880   0.056  0.00  0.00    +0.120 A 
ATOM     11  C   UNL     1       2.189  -3.749   0.631  0.00  0.00    +0.046 A 
ATOM     12  C   UNL     1       0.840  -3.509   0.497  0.00  0.00    +0.011 A 
ATOM     13  C   UNL     1       0.040  -4.407  -0.221  0.00  0.00    -0.024 A 
ATOM     14  C   UNL     1       0.617  -5.547  -0.793  0.00  0.00    +0.011 A 
ATOM     15  C   UNL     1       1.968  -5.774  -0.657  0.00  0.00    +0.046 A 
BRANCH  10  17
ATOM     16  C   UNL     1       4.607  -6.292  -0.424  0.00  0.00    +0.277 C 
ATOM     17  O   UNL     1       4.089  -5.111   0.191  0.00  0.00    -0.495 OA
ENDBRANCH  10  17
ENDBRANCH   1  13
BRANCH   7  18
ATOM     18  C   UNL     1      -1.328   1.670   0.727  0.00  0.00    +0.108 A 
ATOM     19  C   UNL     1      -0.371   1.555  -0.282  0.00  0.00    +0.035 A 
ATOM     20  C   UNL     1       0.800   2.281  -0.206  0.00  0.00    +0.048 A 
ATOM     21  C   UNL     1       1.032   3.121   0.875  0.00  0.00    +0.124 A 
ATOM     22  C   UNL     1       0.088   3.236   1.885  0.00  0.00    +0.093 A 
ATOM     23  C   UNL     1      -1.089   2.514   1.819  0.00  0.00    +0.149 A 
BRANCH  23  24
ATOM     24  O   UNL     1      -2.015   2.626   2.809  0.00  0.00    -0.493 OA
ATOM     25  C   UNL     1      -1.706   3.510   3.888  0.00  0.00    +0.277 C 
ENDBRANCH  23  24
BRANCH  21  26
ATOM     26  O   UNL     1       2.188   3.834   0.943  0.00  0.00    -0.495 OA
ATOM     27  C   UNL     1       3.116   3.669  -0.132  0.00  0.00    +0.277 C 
ENDBRANCH  21  26
ENDBRANCH   7  18
TORSDOF 5
