REMARK  Name = ZINC63557675
REMARK  6 active torsions:
REMARK  status: ('A' for Active; 'I' for Inactive)
REMARK    1  A    between atoms: C_1  and  C_2
REMARK    2  A    between atoms: C_6  and  N_9
REMARK    3  A    between atoms: C_10  and  C_12
REMARK    4  A    between atoms: N_17  and  C_19
REMARK    5  A    between atoms: C_19  and  C_20
REMARK    6  A    between atoms: C_20  and  C_21
REMARK                            x       y       z     vdW  Elec       q    Type
REMARK                         _______ _______ _______ _____ _____    ______ ____
ROOT
ATOM      1  C   UNL     1       5.611  -1.845   1.264  0.00  0.00    +0.101 C 
ATOM      2  C   UNL     1       6.243  -2.678   0.125  0.00  0.00    +0.110 C 
ATOM      3  C   UNL     1       7.597  -3.079   0.667  0.00  0.00    +0.216 C 
ATOM      4  O   UNL     1       8.517  -3.498  -0.003  0.00  0.00    -0.276 OA
ATOM      5  N   UNL     1       7.633  -2.903   1.999  0.00  0.00    -0.300 N 
ATOM      6  C   UNL     1       6.353  -2.390   2.504  0.00  0.00    +0.121 C 
ENDROOT
BRANCH   1   8
ATOM      7  N   UNL     1       3.314  -1.760   0.348  0.00  0.00    -0.290 N 
ATOM      8  C   UNL     1       4.130  -2.105   1.364  0.00  0.00    +0.220 C 
ATOM      9  O   UNL     1       3.672  -2.626   2.359  0.00  0.00    -0.275 OA
ATOM     10  H   UNL     1       3.680  -1.343  -0.447  0.00  0.00    +0.151 HD
BRANCH   7  15
ATOM     11  C   UNL     1      -0.019   1.526   0.010  0.00  0.00    +0.037 C 
ATOM     12  C   UNL     1       0.002  -0.004   0.002  0.00  0.00    +0.126 C 
ATOM     13  N   UNL     1       0.783  -0.534  -1.160  0.00  0.00    -0.242 NA
ATOM     14  N   UNL     1       1.220  -1.898  -0.887  0.00  0.00    -0.227 NA
ATOM     15  C   UNL     1       1.875  -2.013   0.446  0.00  0.00    +0.216 C 
ATOM     16  S   UNL     1       1.026  -0.672   1.385  0.00  0.00    -0.102 S 
ATOM     17  H   UNL     1       1.569   0.063  -1.369  0.00  0.00    +0.142 HD
ATOM     18  H   UNL     1       1.826  -2.237  -1.618  0.00  0.00    +0.143 HD
ENDBRANCH   7  15
ENDBRANCH   1   8
BRANCH   5  19
ATOM     19  C   UNL     1       8.799  -3.187   2.839  0.00  0.00    +0.112 C 
BRANCH  19  20
ATOM     20  C   UNL     1       9.670  -1.933   2.942  0.00  0.00    +0.052 C 
BRANCH  20  21
ATOM     21  C   UNL     1      10.870  -2.225   3.806  0.00  0.00    -0.040 C 
ATOM     22  C   UNL     1      12.100  -2.601   3.389  0.00  0.00    +0.000 A 
ATOM     23  C   UNL     1      12.668  -2.843   2.058  0.00  0.00    +0.030 A 
ATOM     24  C   UNL     1      13.964  -3.220   1.955  0.00  0.00    +0.042 A 
ATOM     25  C   UNL     1      14.775  -3.385   3.088  0.00  0.00    +0.022 A 
ATOM     26  C   UNL     1      14.324  -3.181   4.343  0.00  0.00    +0.027 A 
ATOM     27  C   UNL     1      12.978  -2.782   4.568  0.00  0.00    +0.043 A 
ATOM     28  N   UNL     1      12.315  -2.527   5.670  0.00  0.00    -0.380 N 
ATOM     29  C   UNL     1      10.943  -2.149   5.315  0.00  0.00    +0.144 C 
ATOM     30 CL   UNL     1      14.639  -3.507   0.382  0.00  0.00    -0.084 Cl
ATOM     31  H   UNL     1      12.674  -2.577   6.570  0.00  0.00    +0.160 HD
ENDBRANCH  20  21
ENDBRANCH  19  20
ENDBRANCH   5  19
TORSDOF 5
