REMARK  Name = ZINC41439178
REMARK  4 active torsions:
REMARK  status: ('A' for Active; 'I' for Inactive)
REMARK    1  A    between atoms: C_4  and  O_7
REMARK    2  A    between atoms: O_7  and  C_8
REMARK    3  A    between atoms: C_8  and  C_9
REMARK    4  A    between atoms: C_17  and  N_21
REMARK                            x       y       z     vdW  Elec       q    Type
REMARK                         _______ _______ _______ _____ _____    ______ ____
ROOT
ATOM      1  C   UNL     1       4.878  -2.667  -0.275  0.00  0.00    +0.257 C 
ATOM      2  O   UNL     1       5.728  -1.916   0.154  0.00  0.00    -0.272 OA
ATOM      3  N   UNL     1       5.098  -3.997  -0.288  0.00  0.00    -0.267 N 
ATOM      4  C   UNL     1       3.972  -4.941  -0.294  0.00  0.00    +0.114 C 
ATOM      5  C   UNL     1       4.285  -6.049   0.720  0.00  0.00    +0.024 C 
ATOM      6  C   UNL     1       5.532  -6.803   0.258  0.00  0.00    +0.038 C 
ATOM      7  C   UNL     1       6.652  -5.841  -0.036  0.00  0.00    -0.024 A 
ATOM      8  C   UNL     1       6.407  -4.503  -0.301  0.00  0.00    +0.060 A 
ATOM      9  C   UNL     1       7.468  -3.640  -0.579  0.00  0.00    +0.047 A 
ATOM     10  C   UNL     1       8.768  -4.122  -0.593  0.00  0.00    +0.024 A 
ATOM     11  C   UNL     1       9.008  -5.458  -0.330  0.00  0.00    +0.002 A 
ATOM     12  C   UNL     1       7.956  -6.312  -0.045  0.00  0.00    +0.005 A 
ENDROOT
BRANCH   9  13
ATOM     13  N   UNL     1       7.220  -2.288  -0.844  0.00  0.00    -0.357 N 
ATOM     14  H   UNL     1       7.723  -1.603  -0.377  0.00  0.00    +0.142 HD
ATOM     15  H   UNL     1       6.545  -2.038  -1.494  0.00  0.00    +0.142 HD
ENDBRANCH   9  13
BRANCH   1  16
ATOM     16  C   UNL     1       3.575  -2.115  -0.795  0.00  0.00    +0.325 C 
BRANCH  16  17
ATOM     17  O   UNL     1       3.582  -0.691  -0.676  0.00  0.00    -0.483 OA
BRANCH  17  21
ATOM     18  C   UNL     1       0.215   1.311  -1.973  0.00  0.00    +0.000 A 
ATOM     19  C   UNL     1       1.282   2.020  -1.453  0.00  0.00    +0.004 A 
ATOM     20  C   UNL     1       2.410   1.352  -1.018  0.00  0.00    +0.045 A 
ATOM     21  C   UNL     1       2.472  -0.031  -1.103  0.00  0.00    +0.121 A 
ATOM     22  C   UNL     1       1.401  -0.740  -1.625  0.00  0.00    +0.045 A 
ATOM     23  C   UNL     1       0.275  -0.068  -2.060  0.00  0.00    +0.004 A 
ENDBRANCH  17  21
ENDBRANCH  16  17
ENDBRANCH   1  16
TORSDOF 4
