REMARK  Name = ZINC04455868
REMARK  5 active torsions:
REMARK  status: ('A' for Active; 'I' for Inactive)
REMARK    1  A    between atoms: C_7  and  C_18
REMARK    2  A    between atoms: N_9  and  C_10
REMARK    3  A    between atoms: C_10  and  C_11
REMARK    4  A    between atoms: C_19  and  C_20
REMARK    5  A    between atoms: C_19  and  C_22
REMARK                            x       y       z     vdW  Elec       q    Type
REMARK                         _______ _______ _______ _____ _____    ______ ____
ROOT
ATOM      1  C   UNL     1       8.440   7.339   0.323  0.00  0.00    +0.001 A 
ATOM      2  C   UNL     1       9.742   6.864   0.372  0.00  0.00    +0.002 A 
ATOM      3  C   UNL     1       9.998   5.511   0.318  0.00  0.00    +0.026 A 
ATOM      4  C   UNL     1       8.944   4.608   0.212  0.00  0.00    +0.050 A 
ATOM      5  C   UNL     1       7.628   5.092   0.162  0.00  0.00    +0.007 A 
ATOM      6  C   UNL     1       7.383   6.461   0.219  0.00  0.00    +0.010 A 
ATOM      7  C   UNL     1       6.761   3.902   0.052  0.00  0.00    +0.002 A 
ATOM      8  C   UNL     1       7.604   2.810   0.050  0.00  0.00    +0.095 A 
ATOM      9  N   UNL     1       8.890   3.231   0.138  0.00  0.00    -0.342 N 
ENDROOT
BRANCH   7  10
ATOM     10  C   UNL     1       5.347   3.884  -0.028  0.00  0.00    +0.032 C 
ATOM     11  C   UNL     1       4.696   2.752  -0.472  0.00  0.00    +0.095 C 
BRANCH  11  12
ATOM     12  C   UNL     1       3.226   2.675  -0.409  0.00  0.00    +0.150 A 
ATOM     13  N   UNL     1       2.473   1.606  -0.820  0.00  0.00    -0.337 N 
ATOM     14  H   UNL     1       2.818   0.752  -1.209  0.00  0.00    +0.167 HD
ATOM     15  C   UNL     1       1.148   1.929  -0.595  0.00  0.00    +0.066 A 
ATOM     16  C   UNL     1      -0.053   1.266  -0.802  0.00  0.00    +0.028 A 
ATOM     17  C   UNL     1      -1.241   1.882  -0.467  0.00  0.00    +0.002 A 
ATOM     18  C   UNL     1      -1.242   3.154   0.087  0.00  0.00    +0.002 A 
ATOM     19  C   UNL     1      -0.070   3.823   0.298  0.00  0.00    +0.030 A 
ATOM     20  C   UNL     1       1.147   3.221  -0.040  0.00  0.00    +0.089 A 
ATOM     21  N   UNL     1       2.439   3.622   0.048  0.00  0.00    -0.227 NA
ENDBRANCH  11  12
BRANCH  11  22
ATOM     22  C   UNL     1       5.448   1.651  -0.994  0.00  0.00    +0.103 C 
ATOM     23  N   UNL     1       6.045   0.778  -1.408  0.00  0.00    -0.191 NA
ENDBRANCH  11  22
ENDBRANCH   7  10
BRANCH   9  24
ATOM     24  C   UNL     1      10.058   2.348   0.159  0.00  0.00    +0.157 C 
BRANCH  24  25
ATOM     25  C   UNL     1      10.453   2.071   1.586  0.00  0.00    -0.028 A 
ATOM     26  C   UNL     1      11.361   2.895   2.224  0.00  0.00    +0.007 A 
ATOM     27  C   UNL     1      11.720   2.645   3.535  0.00  0.00    +0.020 A 
ATOM     28  C   UNL     1      11.179   1.563   4.206  0.00  0.00    +0.041 A 
ATOM     29  C   UNL     1      10.274   0.735   3.565  0.00  0.00    +0.020 A 
ATOM     30  C   UNL     1       9.912   0.989   2.256  0.00  0.00    +0.007 A 
ATOM     31 CL   UNL     1      11.634   1.245   5.851  0.00  0.00    -0.084 Cl
ENDBRANCH  24  25
ENDBRANCH   9  24
TORSDOF 5
