REMARK  Name = ZINC39325020
REMARK  9 active torsions:
REMARK  status: ('A' for Active; 'I' for Inactive)
REMARK    1  A    between atoms: C_1  and  C_2
REMARK    2  A    between atoms: C_2  and  C_3
REMARK    3  A    between atoms: C_6  and  C_9
REMARK    4  A    between atoms: N_14  and  C_28
REMARK    5  A    between atoms: C_18  and  C_26
REMARK    6  A    between atoms: C_19  and  N_25
REMARK    7  A    between atoms: C_20  and  C_21
REMARK    8  A    between atoms: C_20  and  C_23
REMARK    9  A    between atoms: C_28  and  C_29
REMARK                            x       y       z     vdW  Elec       q    Type
REMARK                         _______ _______ _______ _____ _____    ______ ____
ROOT
ATOM      1  C   UNL     1       2.707  -1.868  -4.752  0.00  0.00    +0.067 C 
ATOM      2  C   UNL     1       3.683  -0.796  -5.241  0.00  0.00    +0.044 C 
ATOM      3  C   UNL     1       2.962   0.424  -5.767  0.00  0.00    +0.094 C 
ATOM      4  N   UNL     1       2.913   1.503  -4.776  0.00  0.00    -0.294 NA
ATOM      5  C   UNL     1       4.278   1.912  -4.402  0.00  0.00    +0.112 C 
ATOM      6  C   UNL     1       4.948   0.730  -3.748  0.00  0.00    -0.006 C 
ATOM      7  C   UNL     1       4.633  -0.483  -4.120  0.00  0.00    -0.026 C 
ATOM      8  C   UNL     1       5.210  -1.634  -3.380  0.00  0.00    +0.074 C 
ATOM      9  C   UNL     1       4.655  -2.864  -3.529  0.00  0.00    +0.054 C 
ATOM     10  C   UNL     1       3.487  -3.143  -4.430  0.00  0.00    +0.188 C 
ENDROOT
BRANCH   1  14
ATOM     11  C   UNL     1       0.707  -0.490  -1.238  0.00  0.00    -0.048 A 
ATOM     12  C   UNL     1       0.174  -0.224  -2.486  0.00  0.00    +0.004 A 
ATOM     13  C   UNL     1       0.822  -0.670  -3.623  0.00  0.00    +0.004 A 
ATOM     14  C   UNL     1       2.002  -1.381  -3.513  0.00  0.00    -0.041 A 
ATOM     15  C   UNL     1       2.534  -1.646  -2.265  0.00  0.00    +0.004 A 
ATOM     16  C   UNL     1       1.889  -1.197  -1.128  0.00  0.00    +0.004 A 
BRANCH  11  18
ATOM     17  C   UNL     1       0.506   1.395   0.360  0.00  0.00    +0.009 C 
ATOM     18  C   UNL     1       0.001  -0.004   0.001  0.00  0.00    +0.032 C 
ENDBRANCH  11  18
ENDBRANCH   1  14
BRANCH   9  19
ATOM     19  N   UNL     1       5.188  -3.904  -2.820  0.00  0.00    -0.358 N 
ATOM     20  H   UNL     1       5.942  -3.752  -2.230  0.00  0.00    +0.142 HD
ATOM     21  H   UNL     1       4.811  -4.793  -2.908  0.00  0.00    +0.142 HD
ENDBRANCH   9  19
BRANCH  10  22
ATOM     22  C   UNL     1       2.587  -4.103  -3.770  0.00  0.00    +0.091 C 
ATOM     23  N   UNL     1       1.892  -4.843  -3.261  0.00  0.00    -0.194 NA
ENDBRANCH  10  22
BRANCH  10  24
ATOM     24  C   UNL     1       3.979  -3.734  -5.685  0.00  0.00    +0.091 C 
ATOM     25  N   UNL     1       4.360  -4.191  -6.653  0.00  0.00    -0.194 NA
ENDBRANCH  10  24
BRANCH   8  26
ATOM     26  C   UNL     1       6.338  -1.448  -2.519  0.00  0.00    +0.101 C 
ATOM     27  N   UNL     1       7.234  -1.300  -1.836  0.00  0.00    -0.191 NA
ENDBRANCH   8  26
BRANCH   4  28
ATOM     28  C   UNL     1       2.139   2.646  -5.279  0.00  0.00    +0.120 C 
BRANCH  28  29
ATOM     29  C   UNL     1       1.902   3.624  -4.158  0.00  0.00    -0.033 A 
ATOM     30  C   UNL     1       0.779   3.504  -3.362  0.00  0.00    +0.005 A 
ATOM     31  C   UNL     1       0.561   4.402  -2.334  0.00  0.00    +0.000 A 
ATOM     32  C   UNL     1       1.467   5.420  -2.101  0.00  0.00    +0.000 A 
ATOM     33  C   UNL     1       2.591   5.539  -2.897  0.00  0.00    +0.000 A 
ATOM     34  C   UNL     1       2.811   4.639  -3.922  0.00  0.00    +0.005 A 
ENDBRANCH  28  29
ENDBRANCH   4  28
TORSDOF 8
