REMARK  Name = ZINC20156206
REMARK  3 active torsions:
REMARK  status: ('A' for Active; 'I' for Inactive)
REMARK    1  A    between atoms: C_1  and  C_2
REMARK    2  A    between atoms: N_16  and  C_17
REMARK    3  A    between atoms: C_24  and  C_26
REMARK                            x       y       z     vdW  Elec       q    Type
REMARK                         _______ _______ _______ _____ _____    ______ ____
ROOT
ATOM      1  C   UNL     1       3.170   2.275  -1.455  0.00  0.00    +0.079 C 
ATOM      2  C   UNL     1       1.782   1.640  -1.340  0.00  0.00    +0.183 C 
ATOM      3  C   UNL     1       0.999   2.328  -0.213  0.00  0.00    +0.096 C 
ATOM      4  C   UNL     1      -0.422   1.742  -0.236  0.00  0.00    +0.122 C 
ATOM      5  C   UNL     1      -0.315   0.235  -0.157  0.00  0.00    +0.015 A 
ATOM      6  C   UNL     1      -1.390  -0.488   0.327  0.00  0.00    +0.009 A 
ATOM      7  C   UNL     1      -1.321  -1.866   0.404  0.00  0.00    +0.001 A 
ATOM      8  C   UNL     1      -0.175  -2.524  -0.003  0.00  0.00    +0.004 A 
ATOM      9  C   UNL     1       0.900  -1.805  -0.484  0.00  0.00    +0.046 A 
ATOM     10  C   UNL     1       0.836  -0.417  -0.561  0.00  0.00    +0.128 A 
ATOM     11  O   UNL     1       1.920   0.258  -1.024  0.00  0.00    -0.468 OA
ATOM     12  N   UNL     1      -1.017   2.071  -1.542  0.00  0.00    -0.239 N 
ATOM     13  C   UNL     1      -0.250   2.057  -2.646  0.00  0.00    +0.150 C 
ATOM     14  S   UNL     1      -0.984   2.355  -4.164  0.00  0.00    -0.018 S 
ATOM     15  N   UNL     1       1.069   1.817  -2.602  0.00  0.00    -0.243 N 
ATOM     16  C   UNL     1      -2.324   2.385  -1.631  0.00  0.00    +0.288 C 
ATOM     17  O   UNL     1      -2.830   2.584  -2.720  0.00  0.00    -0.266 OA
ENDROOT
BRANCH  15  18
ATOM     18  C   UNL     1       1.784   1.735  -3.803  0.00  0.00    +0.039 A 
ATOM     19  C   UNL     1       2.342   0.526  -4.198  0.00  0.00    +0.026 A 
ATOM     20  C   UNL     1       3.044   0.446  -5.385  0.00  0.00    +0.040 A 
ATOM     21  C   UNL     1       3.199   1.572  -6.176  0.00  0.00    +0.124 A 
ATOM     22  C   UNL     1       2.647   2.779  -5.782  0.00  0.00    +0.040 A 
ATOM     23  C   UNL     1       1.941   2.862  -4.598  0.00  0.00    +0.026 A 
ATOM     24  F   UNL     1       3.890   1.492  -7.335  0.00  0.00    -0.205 F 
ENDBRANCH  15  18
BRANCH  16  25
ATOM     25  C   UNL     1      -3.137   2.486  -0.417  0.00  0.00    +0.191 A 
ATOM     26  C   UNL     1      -4.429   2.926  -0.350  0.00  0.00    +0.056 A 
ATOM     27  C   UNL     1      -4.810   2.856   0.998  0.00  0.00    +0.058 A 
ATOM     28  C   UNL     1      -3.746   2.382   1.689  0.00  0.00    +0.171 A 
ATOM     29  O   UNL     1      -2.742   2.156   0.831  0.00  0.00    -0.444 OA
ATOM     30 BR   UNL     1      -3.690   2.081   3.555  0.00  0.00    -0.008 Br
ENDBRANCH  16  25
TORSDOF 2
