REMARK  Name = ZINC01808786
REMARK  7 active torsions:
REMARK  status: ('A' for Active; 'I' for Inactive)
REMARK    1  A    between atoms: C_4  and  C_7
REMARK    2  A    between atoms: N_14  and  C_22
REMARK    3  A    between atoms: C_15  and  C_16
REMARK    4  A    between atoms: C_22  and  C_23
REMARK    5  A    between atoms: C_23  and  C_24
REMARK    6  A    between atoms: N_26  and  N_27
REMARK    7  A    between atoms: C_28  and  C_29
REMARK                            x       y       z     vdW  Elec       q    Type
REMARK                         _______ _______ _______ _____ _____    ______ ____
ROOT
ATOM      1  C   UNL     1       2.305   4.060  -0.026  0.00  0.00    +0.015 A 
ATOM      2  C   UNL     1       3.337   3.990   1.018  0.00  0.00    +0.008 A 
ATOM      3  C   UNL     1       3.406   3.366   2.264  0.00  0.00    +0.010 A 
ATOM      4  C   UNL     1       4.538   3.483   3.021  0.00  0.00    +0.001 A 
ATOM      5  C   UNL     1       5.623   4.212   2.555  0.00  0.00    +0.002 A 
ATOM      6  C   UNL     1       5.579   4.831   1.325  0.00  0.00    +0.026 A 
ATOM      7  C   UNL     1       4.435   4.725   0.538  0.00  0.00    +0.050 A 
ATOM      8  N   UNL     1       4.102   5.220  -0.705  0.00  0.00    -0.339 N 
ATOM      9  C   UNL     1       2.831   4.826  -1.046  0.00  0.00    +0.058 A 
ENDROOT
BRANCH   1  13
ATOM     10  C   UNL     1      -1.548   2.272   0.075  0.00  0.00    +0.000 A 
ATOM     11  C   UNL     1      -0.418   1.473   0.056  0.00  0.00    +0.001 A 
ATOM     12  C   UNL     1       0.836   2.048   0.022  0.00  0.00    +0.008 A 
ATOM     13  C   UNL     1       0.963   3.437   0.011  0.00  0.00    -0.015 A 
ATOM     14  C   UNL     1      -0.180   4.237   0.036  0.00  0.00    +0.008 A 
ATOM     15  C   UNL     1      -1.428   3.650   0.070  0.00  0.00    +0.001 A 
ENDBRANCH   1  13
BRANCH   9  16
ATOM     16  C   UNL     1       2.138   5.168  -2.304  0.00  0.00    -0.001 A 
ATOM     17  C   UNL     1       1.996   6.504  -2.686  0.00  0.00    +0.010 A 
ATOM     18  C   UNL     1       1.353   6.815  -3.866  0.00  0.00    +0.001 A 
ATOM     19  C   UNL     1       0.839   5.809  -4.664  0.00  0.00    +0.000 A 
ATOM     20  C   UNL     1       0.970   4.484  -4.289  0.00  0.00    +0.001 A 
ATOM     21  C   UNL     1       1.616   4.157  -3.115  0.00  0.00    +0.010 A 
ENDBRANCH   9  16
BRANCH   8  22
ATOM     22  C   UNL     1       4.976   6.047  -1.540  0.00  0.00    +0.131 C 
BRANCH  22  23
ATOM     23  C   UNL     1       5.756   5.152  -2.504  0.00  0.00    +0.119 C 
BRANCH  23  24
ATOM     24  C   UNL     1       6.713   5.993  -3.308  0.00  0.00    +0.234 C 
ATOM     25  O   UNL     1       6.766   7.192  -3.128  0.00  0.00    -0.274 OA
ATOM     26  N   UNL     1       7.511   5.414  -4.228  0.00  0.00    -0.207 N 
ATOM     27  H   UNL     1       7.469   4.456  -4.372  0.00  0.00    +0.177 HD
BRANCH  26  28
ATOM     28  N   UNL     1       8.401   6.197  -4.976  0.00  0.00    -0.188 NA
ATOM     29  C   UNL     1       9.169   5.639  -5.862  0.00  0.00    +0.140 C 
BRANCH  29  30
ATOM     30  C   UNL     1      10.104   6.461  -6.647  0.00  0.00    +0.020 A 
ATOM     31  C   UNL     1      10.970   6.021  -7.600  0.00  0.00    +0.093 A 
ATOM     32  N   UNL     1      11.668   7.076  -8.108  0.00  0.00    -0.360 N 
ATOM     33  H   UNL     1      12.342   7.012  -8.802  0.00  0.00    +0.165 HD
ATOM     34  C   UNL     1      11.282   8.246  -7.490  0.00  0.00    +0.047 A 
ATOM     35  C   UNL     1      10.290   7.919  -6.551  0.00  0.00    +0.008 A 
ATOM     36  C   UNL     1       9.711   8.918  -5.771  0.00  0.00    +0.010 A 
ATOM     37  C   UNL     1      10.116  10.225  -5.926  0.00  0.00    +0.001 A 
ATOM     38  C   UNL     1      11.096  10.550  -6.853  0.00  0.00    +0.002 A 
ATOM     39  C   UNL     1      11.677   9.573  -7.631  0.00  0.00    +0.026 A 
ENDBRANCH  29  30
ENDBRANCH  26  28
ENDBRANCH  23  24
ENDBRANCH  22  23
ENDBRANCH   8  22
TORSDOF 7
