REMARK  Name = ZINC02338838
REMARK  8 active torsions:
REMARK  status: ('A' for Active; 'I' for Inactive)
REMARK    1  A    between atoms: C_5  and  C_7
REMARK    2  A    between atoms: N_9  and  C_10
REMARK    3  A    between atoms: C_10  and  C_11
REMARK    4  A    between atoms: C_11  and  C_12
REMARK    5  A    between atoms: C_12  and  C_13
REMARK    6  A    between atoms: C_13  and  C_14
REMARK    7  A    between atoms: C_14  and  C_15
REMARK    8  A    between atoms: N_17  and  N_18
REMARK                            x       y       z     vdW  Elec       q    Type
REMARK                         _______ _______ _______ _____ _____    ______ ____
ROOT
ATOM      1  C   UNL     1      -4.097  -8.982  -0.011  0.00  0.00    +0.232 C 
ATOM      2  O   UNL     1      -5.033  -8.212   0.003  0.00  0.00    -0.274 OA
ATOM      3  N   UNL     1      -4.319 -10.312  -0.016  0.00  0.00    -0.206 N 
ATOM      4  H   UNL     1      -3.570 -10.928  -0.028  0.00  0.00    +0.177 HD
ENDROOT
BRANCH   3   5
ATOM      5  N   UNL     1      -5.630 -10.803  -0.006  0.00  0.00    -0.175 NA
ATOM      6  C   UNL     1      -5.846 -12.096  -0.012  0.00  0.00    +0.153 C 
ATOM      7  C   UNL     1      -7.153 -12.793  -0.009  0.00  0.00    +0.030 A 
ATOM      8  C   UNL     1      -8.470 -12.346   0.000  0.00  0.00    +0.032 A 
ATOM      9  C   UNL     1      -9.504 -13.262   0.001  0.00  0.00    +0.042 A 
ATOM     10  C   UNL     1      -9.228 -14.620  -0.007  0.00  0.00    +0.022 A 
ATOM     11  C   UNL     1      -7.924 -15.072  -0.016  0.00  0.00    +0.025 A 
ATOM     12  C   UNL     1      -6.871 -14.165  -0.018  0.00  0.00    +0.043 A 
ATOM     13  N   UNL     1      -5.492 -14.350  -0.025  0.00  0.00    -0.280 N 
ATOM     14  C   UNL     1      -4.838 -13.176  -0.029  0.00  0.00    +0.269 C 
ATOM     15  O   UNL     1      -3.631 -13.029  -0.041  0.00  0.00    -0.268 OA
ATOM     16 CL   UNL     1     -11.151 -12.712   0.012  0.00  0.00    -0.084 Cl
ATOM     17  H   UNL     1      -5.057 -15.217  -0.032  0.00  0.00    +0.155 HD
ENDBRANCH   3   5
BRANCH   1  18
ATOM     18  C   UNL     1      -2.686  -8.454  -0.021  0.00  0.00    +0.097 C 
BRANCH  18  19
ATOM     19  C   UNL     1      -2.714  -6.924  -0.012  0.00  0.00    +0.009 C 
BRANCH  19  20
ATOM     20  C   UNL     1      -1.282  -6.387  -0.023  0.00  0.00    +0.002 C 
BRANCH  20  21
ATOM     21  C   UNL     1      -1.310  -4.857  -0.013  0.00  0.00    +0.019 C 
BRANCH  21  22
ATOM     22  C   UNL     1       0.122  -4.321  -0.025  0.00  0.00    +0.104 C 
BRANCH  22  25
ATOM     23  C   UNL     1       1.250  -2.160  -0.023  0.00  0.00    +0.245 C 
ATOM     24  O   UNL     1       2.313  -2.748  -0.037  0.00  0.00    -0.270 OA
ATOM     25  N   UNL     1       0.095  -2.856  -0.015  0.00  0.00    -0.311 N 
ATOM     26  H   UNL     1      -0.754  -2.386  -0.004  0.00  0.00    +0.149 HD
BRANCH  23  31
ATOM     27  C   UNL     1      -0.017   1.375   0.010  0.00  0.00    +0.001 A 
ATOM     28  C   UNL     1       1.170   2.087   0.002  0.00  0.00    +0.001 A 
ATOM     29  C   UNL     1       2.383   1.423  -0.013  0.00  0.00    +0.021 A 
ATOM     30  C   UNL     1       2.417   0.041  -0.021  0.00  0.00    +0.053 A 
ATOM     31  C   UNL     1       1.222  -0.683  -0.014  0.00  0.00    +0.055 A 
ATOM     32  C   UNL     1       0.002  -0.004   0.002  0.00  0.00    +0.014 A 
ATOM     33 CL   UNL     1       3.940  -0.792  -0.041  0.00  0.00    -0.083 Cl
ENDBRANCH  23  31
ENDBRANCH  22  25
ENDBRANCH  21  22
ENDBRANCH  20  21
ENDBRANCH  19  20
ENDBRANCH  18  19
ENDBRANCH   1  18
TORSDOF 8
