REMARK  Name = ZINC16450819
REMARK  5 active torsions:
REMARK  status: ('A' for Active; 'I' for Inactive)
REMARK    1  A    between atoms: C_4  and  C_7
REMARK    2  A    between atoms: C_8  and  C_9
REMARK    3  A    between atoms: N_14  and  C_17
REMARK    4  A    between atoms: C_20  and  N_24
REMARK    5  A    between atoms: C_25  and  C_27
REMARK                            x       y       z     vdW  Elec       q    Type
REMARK                         _______ _______ _______ _____ _____    ______ ____
ROOT
ATOM      1  C   UNL     1       3.269   9.007  -0.243  0.00  0.00    +0.048 A 
ATOM      2  C   UNL     1       3.837   7.740  -0.254  0.00  0.00    +0.026 A 
ATOM      3  C   UNL     1       3.034   6.622  -0.153  0.00  0.00    +0.025 A 
ATOM      4  C   UNL     1       1.656   6.764  -0.051  0.00  0.00    +0.035 A 
ATOM      5  C   UNL     1       1.087   8.030  -0.040  0.00  0.00    +0.045 A 
ATOM      6  C   UNL     1       1.891   9.150  -0.136  0.00  0.00    +0.064 A 
ATOM      7 CL   UNL     1       1.180  10.733  -0.121  0.00  0.00    -0.082 Cl
ENDROOT
BRANCH   1  13
ATOM      8  C   UNL     1       7.683  12.008  -0.750  0.00  0.00    +0.240 C 
ATOM      9  O   UNL     1       8.409  12.059   0.225  0.00  0.00    -0.271 OA
ATOM     10  N   UNL     1       6.379  11.701  -0.604  0.00  0.00    -0.295 N 
ATOM     11  C   UNL     1       5.788  11.536   0.733  0.00  0.00    +0.127 C 
ATOM     12  C   UNL     1       5.041  10.198   0.774  0.00  0.00    +0.124 C 
ATOM     13  N   UNL     1       4.085  10.141  -0.340  0.00  0.00    -0.326 N 
ATOM     14  C   UNL     1       4.773  10.184  -1.637  0.00  0.00    +0.124 C 
ATOM     15  C   UNL     1       5.509  11.521  -1.776  0.00  0.00    +0.127 C 
BRANCH   8  17
ATOM     16  C   UNL     1       9.504  12.686  -2.220  0.00  0.00    +0.013 C 
ATOM     17  C   UNL     1       8.225  12.281  -2.083  0.00  0.00    +0.068 C 
BRANCH  16  21
ATOM     18  C   UNL     1      11.075  13.477  -6.080  0.00  0.00    +0.000 A 
ATOM     19  C   UNL     1      11.878  13.636  -4.964  0.00  0.00    +0.001 A 
ATOM     20  C   UNL     1      11.374  13.381  -3.706  0.00  0.00    +0.008 A 
ATOM     21  C   UNL     1      10.049  12.961  -3.560  0.00  0.00    -0.025 A 
ATOM     22  C   UNL     1       9.246  12.797  -4.692  0.00  0.00    +0.008 A 
ATOM     23  C   UNL     1       9.762  13.061  -5.943  0.00  0.00    +0.001 A 
ENDBRANCH  16  21
ENDBRANCH   8  17
ENDBRANCH   1  13
BRANCH   4  24
ATOM     24  N   UNL     1       0.840   5.629   0.045  0.00  0.00    -0.279 N 
ATOM     25  C   UNL     1      -0.379   5.624  -0.530  0.00  0.00    +0.284 C 
ATOM     26  O   UNL     1      -0.805   6.633  -1.060  0.00  0.00    -0.266 OA
ATOM     27  H   UNL     1       1.153   4.847   0.526  0.00  0.00    +0.155 HD
BRANCH  25  28
ATOM     28  C   UNL     1      -1.190   4.404  -0.517  0.00  0.00    +0.191 A 
ATOM     29  C   UNL     1      -2.435   4.262  -1.060  0.00  0.00    +0.056 A 
ATOM     30  C   UNL     1      -2.833   2.939  -0.818  0.00  0.00    +0.058 A 
ATOM     31  C   UNL     1      -1.828   2.338  -0.141  0.00  0.00    +0.171 A 
ATOM     32  O   UNL     1      -0.837   3.223   0.034  0.00  0.00    -0.444 OA
ATOM     33 BR   UNL     1      -1.821   0.544   0.458  0.00  0.00    -0.008 Br
ENDBRANCH  25  28
ENDBRANCH   4  24
TORSDOF 5
