REMARK  Name = ZINC12875665
REMARK  13 active torsions:
REMARK  status: ('A' for Active; 'I' for Inactive)
REMARK    1  A    between atoms: CD1_1  and  CG1_2
REMARK    2  A    between atoms: CG1_2  and  CB_3
REMARK    3  A    between atoms: CB_3  and  CG2_5
REMARK    4  A    between atoms: CB_3  and  CA_6
REMARK    5  A    between atoms: CA_6  and  C_8
REMARK    6  A    between atoms: CA_6  and  N_10
REMARK    7  A    between atoms: C_11  and  C_13
REMARK    8  A    between atoms: C_13  and  O_14
REMARK    9  A    between atoms: O_14  and  N_15
REMARK   10  A    between atoms: C_19  and  C_39
REMARK   11  A    between atoms: C_24  and  C_38
REMARK   12  A    between atoms: C_35  and  C_36
REMARK   13  A    between atoms: C_35  and  O_37
REMARK                            x       y       z     vdW  Elec       q    Type
REMARK                         _______ _______ _______ _____ _____    ______ ____
ROOT
ATOM      1  N   UNK A   0       0.342  -2.478  -0.094  0.00  0.00    -0.089 NA
ATOM      2  C   UNK A   0       0.483  -1.323   0.475  0.00  0.00    +0.080 C 
ATOM      3  C   UNK A   0       1.760  -0.933   1.196  0.00  0.00    +0.059 C 
ATOM      4  C   UNK A   0       2.209   0.417   0.637  0.00  0.00    +0.017 C 
ATOM      5  C   UNK A   0       1.132   1.469   0.744  0.00  0.00    -0.007 C 
ATOM      6  C   UNK A   0       1.255   2.279   2.036  0.00  0.00    +0.002 C 
ATOM      7  C   UNK A   0       2.670   2.835   2.157  0.00  0.00    +0.005 C 
ATOM      8  C   UNK A   0       2.810   3.769   3.370  0.00  0.00    +0.010 C 
ATOM      9  C   UNK A   0       1.787   4.876   3.204  0.00  0.00    -0.000 C 
ATOM     10  C   UNK A   0       0.382   4.218   3.277  0.00  0.00    +0.001 C 
ATOM     11  C   UNK A   0       0.204   3.402   2.010  0.00  0.00    -0.003 C 
ATOM     12  C   UNK A   0      -1.201   2.799   1.969  0.00  0.00    +0.008 C 
ATOM     13  C   UNK A   0      -1.389   1.997   0.677  0.00  0.00    +0.031 C 
ATOM     14  C   UNK A   0      -0.272   0.969   0.605  0.00  0.00    -0.062 C 
ATOM     15  C   UNK A   0      -0.590  -0.309   0.461  0.00  0.00    +0.026 C 
ATOM     16  C   UNK A   0      -0.528   5.444   3.414  0.00  0.00    +0.007 C 
ATOM     17  C   UNK A   0       0.251   6.346   4.411  0.00  0.00    +0.035 C 
ATOM     18  C   UNK A   0       1.739   5.929   4.306  0.00  0.00    +0.069 C 
ATOM     19  C   UNK A   0       2.216   5.332   5.631  0.00  0.00    +0.042 C 
ATOM     20  C   UNK A   0       1.974   5.555   1.846  0.00  0.00    +0.014 C 
ATOM     21  C   UNK A   0       1.364   2.458  -0.400  0.00  0.00    +0.016 C 
ENDROOT
BRANCH  18  22
ATOM     22  O   UNK A   0       2.544   7.055   3.950  0.00  0.00    -0.388 OA
ATOM     23  H   UNK A   0       2.553   7.758   4.614  0.00  0.00    +0.210 HD
ENDBRANCH  18  22
BRANCH   1  24
ATOM     24  O   UNK A   0       1.399  -3.420  -0.055  0.00  0.00    -0.384 OA
BRANCH  24  25
ATOM     25  C   UNK A   0       1.107  -4.649  -0.722  0.00  0.00    +0.358 C 
BRANCH  25  27
ATOM     26  N   ILE A   1       2.247  -6.796  -1.178  0.00  0.00    -0.299 N 
ATOM     27  C   UNK A   0       2.294  -5.571  -0.619  0.00  0.00    +0.254 C 
ATOM     28  O   UNK A   0       3.292  -5.211  -0.031  0.00  0.00    -0.272 OA
ATOM     29  H   ILE A   1       1.449  -7.085  -1.648  0.00  0.00    +0.150 HD
BRANCH  26  30
ATOM     30  CA  ILE A   1       3.401  -7.693  -1.078  0.00  0.00    +0.189 C 
BRANCH  30  31
ATOM     31  C   ILE A   1       4.376  -7.383  -2.184  0.00  0.00    +0.376 C 
ATOM     32  O   ILE A   1       3.998  -6.813  -3.181  0.00  0.00    -0.244 OA
ATOM     33  OXT ILE A   1       5.664  -7.740  -2.064  0.00  0.00    -0.244 OA
ENDBRANCH  30  31
BRANCH  30  34
ATOM     34  CB  ILE A   1       2.933  -9.144  -1.202  0.00  0.00    +0.017 C 
ATOM     35  CG2 ILE A   1       2.192  -9.329  -2.529  0.00  0.00    +0.010 C 
BRANCH  34  37
ATOM     36  CD1 ILE A   1       1.635 -10.964  -0.087  0.00  0.00    +0.004 C 
ATOM     37  CG1 ILE A   1       1.992  -9.477  -0.043  0.00  0.00    +0.002 C 
ENDBRANCH  34  37
ENDBRANCH  30  34
ENDBRANCH  26  30
ENDBRANCH  25  27
ENDBRANCH  24  25
ENDBRANCH   1  24
TORSDOF 8
