REMARK  Name = ZINC08872800
REMARK  4 active torsions:
REMARK  status: ('A' for Active; 'I' for Inactive)
REMARK    1  A    between atoms: C_4  and  N_7
REMARK    2  A    between atoms: N_14  and  N_15
REMARK    3  A    between atoms: C_16  and  C_17
REMARK    4  A    between atoms: N_25  and  C_26
REMARK                            x       y       z     vdW  Elec       q    Type
REMARK                         _______ _______ _______ _____ _____    ______ ____
ROOT
ATOM      1  N   UNL     1       3.645  -0.657  -0.158  0.00  0.00    -0.283 N 
ATOM      2  C   UNL     1       3.639  -2.037  -0.097  0.00  0.00    +0.225 A 
ATOM      3  N   UNL     1       4.766  -2.697   0.151  0.00  0.00    -0.181 NA
ATOM      4  C   UNL     1       4.760  -4.025   0.210  0.00  0.00    +0.221 A 
ATOM      5  N   UNL     1       3.627  -4.693   0.021  0.00  0.00    -0.180 NA
ATOM      6  C   UNL     1       2.499  -4.034  -0.227  0.00  0.00    +0.241 A 
ATOM      7  N   UNL     1       2.504  -2.705  -0.280  0.00  0.00    -0.179 NA
ATOM      8  N   UNL     1       1.322  -4.729  -0.423  0.00  0.00    -0.205 N 
ATOM      9  N   UNL     1       5.931  -4.709   0.467  0.00  0.00    -0.310 N 
ATOM     10  H   UNL     1       2.820  -0.175  -0.328  0.00  0.00    +0.155 HD
ATOM     11  H   UNL     1       1.331  -5.698  -0.463  0.00  0.00    +0.177 HD
ATOM     12  H   UNL     1       6.758  -4.221   0.605  0.00  0.00    +0.149 HD
ENDROOT
BRANCH   1  16
ATOM     13  C   UNL     1       7.205   1.436   0.387  0.00  0.00    +0.000 A 
ATOM     14  C   UNL     1       6.252   1.914  -0.494  0.00  0.00    +0.002 A 
ATOM     15  C   UNL     1       5.070   1.222  -0.677  0.00  0.00    +0.023 A 
ATOM     16  C   UNL     1       4.840   0.046   0.025  0.00  0.00    +0.034 A 
ATOM     17  C   UNL     1       5.799  -0.431   0.909  0.00  0.00    +0.023 A 
ATOM     18  C   UNL     1       6.979   0.266   1.087  0.00  0.00    +0.002 A 
ENDBRANCH   1  16
BRANCH   9  19
ATOM     19  C   UNL     1       5.924  -6.173   0.532  0.00  0.00    +0.073 C 
ATOM     20  C   UNL     1       5.527  -6.619   1.941  0.00  0.00    +0.022 C 
ATOM     21  C   UNL     1       5.520  -8.147   2.009  0.00  0.00    +0.002 C 
ATOM     22  C   UNL     1       6.917  -8.678   1.681  0.00  0.00    +0.000 C 
ATOM     23  C   UNL     1       7.314  -8.232   0.273  0.00  0.00    +0.002 C 
ATOM     24  C   UNL     1       7.321  -6.704   0.205  0.00  0.00    +0.022 C 
ENDBRANCH   9  19
BRANCH   8  25
ATOM     25  N   UNL     1       0.114  -4.033  -0.565  0.00  0.00    -0.187 NA
ATOM     26  C   UNL     1      -0.993  -4.686  -0.744  0.00  0.00    +0.139 C 
BRANCH  26  27
ATOM     27  C   UNL     1      -2.256  -3.954  -0.954  0.00  0.00    +0.013 A 
ATOM     28  C   UNL     1      -3.463  -4.650  -1.052  0.00  0.00    +0.012 A 
ATOM     29  C   UNL     1      -4.640  -3.959  -1.249  0.00  0.00    +0.021 A 
ATOM     30  C   UNL     1      -4.628  -2.577  -1.350  0.00  0.00    +0.042 A 
ATOM     31  C   UNL     1      -3.435  -1.881  -1.254  0.00  0.00    +0.040 A 
ATOM     32  C   UNL     1      -2.250  -2.559  -1.051  0.00  0.00    +0.051 A 
ATOM     33 CL   UNL     1      -0.757  -1.684  -0.923  0.00  0.00    -0.083 Cl
ATOM     34 CL   UNL     1      -6.114  -1.716  -1.599  0.00  0.00    -0.083 Cl
ENDBRANCH  26  27
ENDBRANCH   8  25
TORSDOF 4
