REMARK  Name = ZINC67510785
REMARK  4 active torsions:
REMARK  status: ('A' for Active; 'I' for Inactive)
REMARK    1  A    between atoms: C_1  and  C_2
REMARK    2  A    between atoms: C_2  and  N_3
REMARK    3  A    between atoms: C_12  and  C_14
REMARK    4  A    between atoms: C_15  and  C_16
REMARK                            x       y       z     vdW  Elec       q    Type
REMARK                         _______ _______ _______ _____ _____    ______ ____
ROOT
ATOM      1  N   UNL     1      -1.370  -0.516   0.023  0.00  0.00    -0.300 N 
ATOM      2  C   UNL     1      -1.599  -1.844   0.009  0.00  0.00    +0.302 C 
ATOM      3  O   UNL     1      -0.670  -2.620  -0.104  0.00  0.00    -0.253 OA
ATOM      4  N   UNL     1      -2.858  -2.312   0.120  0.00  0.00    -0.283 N 
ATOM      5  C   UNL     1      -4.001  -1.388   0.136  0.00  0.00    +0.128 C 
ATOM      6  C   UNL     1      -4.977  -1.796  -0.974  0.00  0.00    +0.127 C 
ATOM      7  N   UNL     1      -5.232  -3.239  -0.868  0.00  0.00    -0.295 N 
ATOM      8  C   UNL     1      -4.090  -4.164  -0.884  0.00  0.00    +0.127 C 
ATOM      9  C   UNL     1      -3.113  -3.756   0.220  0.00  0.00    +0.128 C 
ATOM     10  C   UNL     1      -6.491  -3.707  -0.757  0.00  0.00    +0.240 C 
ATOM     11  O   UNL     1      -6.685  -4.895  -0.574  0.00  0.00    -0.271 OA
ATOM     12  H   UNL     1      -2.115   0.104   0.040  0.00  0.00    +0.150 HD
ENDROOT
BRANCH   1  14
ATOM     13  C   UNL     1      -0.015   1.520   0.033  0.00  0.00    +0.024 C 
ATOM     14  C   UNL     1       0.005  -0.010   0.013  0.00  0.00    +0.102 C 
ENDBRANCH   1  14
BRANCH  10  15
ATOM     15  C   UNL     1      -7.625  -2.787  -0.856  0.00  0.00    +0.068 C 
ATOM     16  C   UNL     1      -8.886  -3.267  -0.846  0.00  0.00    +0.014 C 
BRANCH  16  17
ATOM     17  C   UNL     1     -10.026  -2.342  -0.946  0.00  0.00    -0.005 A 
ATOM     18  C   UNL     1      -9.806  -0.965  -1.058  0.00  0.00    +0.029 A 
ATOM     19  C   UNL     1     -10.880  -0.104  -1.151  0.00  0.00    +0.042 A 
ATOM     20  C   UNL     1     -12.174  -0.601  -1.134  0.00  0.00    +0.021 A 
ATOM     21  C   UNL     1     -12.400  -1.961  -1.024  0.00  0.00    +0.022 A 
ATOM     22  C   UNL     1     -11.335  -2.836  -0.936  0.00  0.00    +0.048 A 
ATOM     23 CL   UNL     1     -11.620  -4.543  -0.806  0.00  0.00    -0.083 Cl
ATOM     24 CL   UNL     1     -10.611   1.605  -1.289  0.00  0.00    -0.084 Cl
ENDBRANCH  16  17
ENDBRANCH  10  15
TORSDOF 3
