REMARK  Name = ZINC09216245
REMARK  7 active torsions:
REMARK  status: ('A' for Active; 'I' for Inactive)
REMARK    1  A    between atoms: C_1  and  C_2
REMARK    2  A    between atoms: C_2  and  C_3
REMARK    3  A    between atoms: C_2  and  C_4
REMARK    4  A    between atoms: C_4  and  C_5
REMARK    5  A    between atoms: N_13  and  C_16
REMARK    6  A    between atoms: C_16  and  C_17
REMARK    7  A    between atoms: C_17  and  C_18
REMARK                            x       y       z     vdW  Elec       q    Type
REMARK                         _______ _______ _______ _____ _____    ______ ____
ROOT
ATOM      1  C   UNL     1      -1.114  -1.807   0.206  0.00  0.00    -0.057 C 
ATOM      2  C   UNL     1      -2.456  -2.564   0.105  0.00  0.00    +0.073 C 
ATOM      3  C   UNL     1      -2.880  -2.822   1.578  0.00  0.00    +0.088 C 
ATOM      4  C   UNL     1      -2.833  -4.329   1.695  0.00  0.00    +0.225 C 
ATOM      5  O   UNL     1      -3.102  -4.963   2.692  0.00  0.00    -0.275 OA
ATOM      6  N   UNL     1      -2.447  -4.853   0.526  0.00  0.00    -0.241 N 
ATOM      7  C   UNL     1      -2.208  -3.948  -0.450  0.00  0.00    +0.224 C 
ATOM      8  O   UNL     1      -1.853  -4.195  -1.583  0.00  0.00    -0.275 OA
ATOM      9  C   UNL     1      -1.763  -2.190   2.417  0.00  0.00    +0.050 C 
ATOM     10  N   UNL     1      -0.567  -2.171   1.540  0.00  0.00    +0.394 N 
ATOM     11  C   UNL     1      -1.499  -2.977   3.670  0.00  0.00    -0.026 A 
ATOM     12  C   UNL     1      -1.116  -4.277   3.909  0.00  0.00    +0.024 A 
ATOM     13  C   UNL     1      -0.949  -4.722   5.210  0.00  0.00    +0.041 A 
ATOM     14  C   UNL     1      -1.168  -3.856   6.267  0.00  0.00    +0.022 A 
ATOM     15  C   UNL     1      -1.552  -2.552   6.030  0.00  0.00    +0.025 A 
ATOM     16  C   UNL     1      -1.722  -2.097   4.725  0.00  0.00    +0.036 A 
ATOM     17  N   UNL     1      -2.097  -0.843   4.238  0.00  0.00    -0.286 N 
ATOM     18  C   UNL     1      -2.144  -0.814   2.892  0.00  0.00    +0.211 C 
ATOM     19  O   UNL     1      -2.438   0.136   2.197  0.00  0.00    -0.277 OA
ATOM     20 CL   UNL     1      -0.467  -6.361   5.514  0.00  0.00    -0.084 Cl
ATOM     21  H   UNL     1      -0.127  -3.078   1.506  0.00  0.00    -0.083 HD
ATOM     22  H   UNL     1      -2.300  -0.081   4.803  0.00  0.00    +0.155 HD
ATOM     23  H   UNL     1       0.088  -1.471   1.855  0.00  0.00    -0.083 HD
ENDROOT
BRANCH   1  24
ATOM     24  C   UNL     1      -1.347  -0.298   0.120  0.00  0.00    -0.012 C 
BRANCH  24  26
ATOM     25  C   UNL     1      -1.578   1.638  -1.443  0.00  0.00    +0.007 C 
ATOM     26  C   UNL     1      -1.206   0.158  -1.334  0.00  0.00    -0.019 C 
ATOM     27  C   UNL     1       0.240  -0.041  -1.793  0.00  0.00    +0.007 C 
ENDBRANCH  24  26
ENDBRANCH   1  24
BRANCH   6  28
ATOM     28  C   UNL     1      -2.300  -6.296   0.315  0.00  0.00    +0.121 C 
BRANCH  28  29
ATOM     29  C   UNL     1      -3.627  -6.877  -0.178  0.00  0.00    +0.054 C 
BRANCH  29  30
ATOM     30  C   UNL     1      -3.476  -8.360  -0.395  0.00  0.00    -0.046 A 
ATOM     31  C   UNL     1      -3.068  -8.841  -1.625  0.00  0.00    +0.004 A 
ATOM     32  C   UNL     1      -2.930 -10.202  -1.824  0.00  0.00    +0.000 A 
ATOM     33  C   UNL     1      -3.199 -11.082  -0.792  0.00  0.00    +0.000 A 
ATOM     34  C   UNL     1      -3.606 -10.601   0.438  0.00  0.00    +0.000 A 
ATOM     35  C   UNL     1      -3.740  -9.240   0.638  0.00  0.00    +0.004 A 
ENDBRANCH  29  30
ENDBRANCH  28  29
ENDBRANCH   6  28
TORSDOF 5
