REMARK  Name = ZINC59310729
REMARK  9 active torsions:
REMARK  status: ('A' for Active; 'I' for Inactive)
REMARK    1  A    between atoms: C_1  and  C_2
REMARK    2  A    between atoms: C_2  and  C_4
REMARK    3  A    between atoms: C_7  and  N_10
REMARK    4  A    between atoms: C_11  and  C_13
REMARK    5  A    between atoms: C_13  and  S_14
REMARK    6  A    between atoms: S_14  and  C_15
REMARK    7  A    between atoms: N_20  and  N_21
REMARK    8  A    between atoms: C_22  and  C_23
REMARK    9  A    between atoms: C_22  and  C_24
REMARK                            x       y       z     vdW  Elec       q    Type
REMARK                         _______ _______ _______ _____ _____    ______ ____
ROOT
ATOM      1  C   UNL     1      -7.356  -7.509  -0.419  0.00  0.00    +0.211 A 
ATOM      2  N   UNL     1      -7.596  -8.820  -0.524  0.00  0.00    -0.186 NA
ATOM      3  C   UNL     1      -8.894  -9.029  -0.588  0.00  0.00    +0.232 A 
ATOM      4  N   UNL     1      -9.513  -7.831  -0.523  0.00  0.00    -0.245 N 
ATOM      5  N   UNL     1      -8.499  -6.866  -0.409  0.00  0.00    -0.144 NA
ATOM      6  N   UNL     1      -9.516 -10.260  -0.702  0.00  0.00    -0.205 N 
ATOM      7  H   UNL     1     -10.483 -10.313  -0.743  0.00  0.00    +0.177 HD
ATOM      8  H   UNL     1     -10.469  -7.669  -0.547  0.00  0.00    +0.192 HD
ENDROOT
BRANCH   6   9
ATOM      9  N   UNL     1      -8.747 -11.430  -0.760  0.00  0.00    -0.189 NA
ATOM     10  C   UNL     1      -9.322 -12.569  -0.865  0.00  0.00    +0.040 C 
ATOM     11  C   UNL     1     -10.825 -12.651  -0.928  0.00  0.00    +0.063 C 
BRANCH  10  12
ATOM     12  C   UNL     1      -8.495 -13.827  -0.927  0.00  0.00    +0.011 C 
ATOM     13  C   UNL     1      -8.771 -14.554  -2.245  0.00  0.00    +0.016 C 
ATOM     14  C   UNL     1      -7.931 -15.832  -2.307  0.00  0.00    -0.010 C 
ATOM     15  C   UNL     1      -6.447 -15.472  -2.225  0.00  0.00    +0.007 C 
ATOM     16  C   UNL     1      -6.171 -14.744  -0.907  0.00  0.00    -0.010 C 
ATOM     17  C   UNL     1      -7.011 -13.467  -0.845  0.00  0.00    +0.016 C 
ATOM     18  C   UNL     1      -6.541 -15.655   0.265  0.00  0.00    +0.007 C 
ATOM     19  C   UNL     1      -8.025 -16.016   0.183  0.00  0.00    -0.010 C 
ATOM     20  C   UNL     1      -8.301 -16.743  -1.135  0.00  0.00    +0.007 C 
ATOM     21  C   UNL     1      -8.865 -14.738   0.245  0.00  0.00    +0.016 C 
ENDBRANCH  10  12
ENDBRANCH   6   9
BRANCH   1  22
ATOM     22  S   UNL     1      -5.763  -6.766  -0.304  0.00  0.00    -0.075 S 
BRANCH  22  23
ATOM     23  C   UNL     1      -6.114  -4.991  -0.178  0.00  0.00    +0.173 C 
BRANCH  23  25
ATOM     24  N   UNL     1      -4.834  -2.885   0.031  0.00  0.00    -0.285 N 
ATOM     25  C   UNL     1      -4.819  -4.228  -0.073  0.00  0.00    +0.227 C 
ATOM     26  O   UNL     1      -3.762  -4.824  -0.081  0.00  0.00    -0.275 OA
ATOM     27  H   UNL     1      -5.678  -2.414   0.115  0.00  0.00    +0.155 HD
BRANCH  24  31
ATOM     28  C   UNL     1      -1.260  -0.754  -0.007  0.00  0.00    +0.017 A 
ATOM     29  C   UNL     1      -1.388  -1.926  -0.763  0.00  0.00    +0.013 A 
ATOM     30  C   UNL     1      -2.567  -2.625  -0.748  0.00  0.00    +0.024 A 
ATOM     31  C   UNL     1      -3.637  -2.171   0.018  0.00  0.00    +0.033 A 
ATOM     32  C   UNL     1      -3.515  -1.006   0.771  0.00  0.00    +0.024 A 
ATOM     33  C   UNL     1      -2.338  -0.304   0.766  0.00  0.00    +0.013 A 
BRANCH  28  35
ATOM     34  C   UNL     1       1.159  -0.489  -0.854  0.00  0.00    +0.091 C 
ATOM     35  C   UNL     1       0.001  -0.003  -0.021  0.00  0.00    +0.160 C 
ATOM     36  O   UNL     1       0.111   1.010   0.639  0.00  0.00    -0.292 OA
ENDBRANCH  28  35
ENDBRANCH  24  31
ENDBRANCH  23  25
ENDBRANCH  22  23
ENDBRANCH   1  22
TORSDOF 7
