REMARK  Name = ZINC34691103
REMARK  11 active torsions:
REMARK  status: ('A' for Active; 'I' for Inactive)
REMARK    1  A    between atoms: C_1  and  C_2
REMARK    2  A    between atoms: C_2  and  O_4
REMARK    3  A    between atoms: O_4  and  C_5
REMARK    4  A    between atoms: C_9  and  C_35
REMARK    5  A    between atoms: C_14  and  C_34
REMARK    6  A    between atoms: C_15  and  C_28
REMARK    7  A    between atoms: C_19  and  O_27
REMARK    8  A    between atoms: C_24  and  O_26
REMARK    9  A    between atoms: C_35  and  O_36
REMARK   10  A    between atoms: O_36  and  S_37
REMARK   11  A    between atoms: S_37  and  C_40
REMARK                            x       y       z     vdW  Elec       q    Type
REMARK                         _______ _______ _______ _____ _____    ______ ____
ROOT
ATOM      1  C   UNL     1      -0.378  -1.647  -1.206  0.00  0.00    +0.179 C 
ATOM      2  C   UNL     1      -1.766  -2.260  -1.057  0.00  0.00    +0.045 C 
ATOM      3  C   UNL     1      -2.559  -2.149  -2.355  0.00  0.00    +0.016 C 
ATOM      4  C   UNL     1      -1.812  -2.838  -3.509  0.00  0.00    +0.028 C 
ATOM      5  C   UNL     1      -2.617  -2.662  -4.788  0.00  0.00    +0.006 C 
ATOM      6  C   UNL     1      -3.994  -3.299  -4.696  0.00  0.00    +0.005 C 
ATOM      7  C   UNL     1      -4.028  -4.738  -5.178  0.00  0.00    +0.010 C 
ATOM      8  C   UNL     1      -3.504  -4.883  -6.601  0.00  0.00    +0.004 C 
ATOM      9  C   UNL     1      -3.250  -6.390  -6.872  0.00  0.00    +0.027 C 
ATOM     10  C   UNL     1      -1.903  -6.667  -6.177  0.00  0.00    +0.011 C 
ATOM     11  C   UNL     1      -1.100  -5.354  -6.297  0.00  0.00    +0.036 C 
ATOM     12  C   UNL     1      -2.098  -4.279  -6.740  0.00  0.00    +0.075 C 
ATOM     13  C   UNL     1      -1.911  -2.940  -6.082  0.00  0.00    +0.025 C 
ATOM     14  C   UNL     1      -0.454  -2.496  -6.130  0.00  0.00    +0.009 C 
ATOM     15  C   UNL     1       0.298  -2.777  -4.836  0.00  0.00    +0.036 C 
ATOM     16  C   UNL     1      -0.455  -2.148  -3.664  0.00  0.00    +0.077 C 
ATOM     17  C   UNL     1       0.367  -2.264  -2.386  0.00  0.00    +0.080 C 
ATOM     18  C   UNL     1      -4.476  -4.292  -7.631  0.00  0.00    +0.014 C 
ENDROOT
BRANCH   9  19
ATOM     19  C   UNL     1      -4.340  -7.263  -6.305  0.00  0.00    -0.022 C 
ATOM     20  C   UNL     1      -4.265  -8.011  -5.206  0.00  0.00    +0.094 C 
ATOM     21  C   UNL     1      -5.544  -8.701  -5.011  0.00  0.00    +0.332 C 
ATOM     22  O   UNL     1      -5.796  -9.459  -4.095  0.00  0.00    -0.246 OA
ATOM     23  O   UNL     1      -6.397  -8.368  -5.997  0.00  0.00    -0.457 OA
ATOM     24  C   UNL     1      -5.728  -7.452  -6.870  0.00  0.00    +0.264 C 
ENDBRANCH   9  19
BRANCH  16  25
ATOM     25  O   UNL     1      -0.670  -0.760  -3.959  0.00  0.00    -0.388 OA
ATOM     26  H   UNL     1       0.144  -0.251  -4.072  0.00  0.00    +0.210 HD
ENDBRANCH  16  25
BRANCH  12  27
ATOM     27  O   UNL     1      -1.884  -4.071  -8.159  0.00  0.00    -0.388 OA
ATOM     28  H   UNL     1      -1.022  -3.689  -8.375  0.00  0.00    +0.210 HD
ENDBRANCH  12  27
BRANCH   1  29
ATOM     29  O   UNL     1      -0.484  -0.233  -1.373  0.00  0.00    -0.461 OA
BRANCH  29  31
ATOM     30  C   UNL     1      -0.606   2.013  -0.356  0.00  0.00    +0.136 C 
ATOM     31  C   UNL     1      -0.496   0.513  -0.258  0.00  0.00    +0.304 C 
ATOM     32  O   UNL     1      -0.419  -0.018   0.825  0.00  0.00    -0.251 OA
ENDBRANCH  29  31
ENDBRANCH   1  29
BRANCH   4  33
ATOM     33  C   UNL     1      -1.629  -4.309  -3.152  0.00  0.00    +0.203 C 
BRANCH  33  34
ATOM     34  O   UNL     1      -0.851  -4.416  -1.958  0.00  0.00    -0.238 OA
BRANCH  34  35
ATOM     35  S   UNL     1      -0.605  -5.848  -1.505  0.00  0.00    +0.079 S 
ATOM     36  O   UNL     1      -0.060  -5.727  -0.198  0.00  0.00    -0.147 OA
ATOM     37  O   UNL     1      -1.843  -6.512  -1.715  0.00  0.00    -0.147 OA
ATOM     38  C   UNL     1       0.649  -6.489  -2.648  0.00  0.00    +0.228 C 
ENDBRANCH  34  35
ENDBRANCH  33  34
ENDBRANCH   4  33
TORSDOF 8
