REMARK  Name = ZINC36523210
REMARK  16 active torsions:
REMARK  status: ('A' for Active; 'I' for Inactive)
REMARK    1  A    between atoms: C_1  and  C_2
REMARK    2  A    between atoms: C_2  and  C_3
REMARK    3  A    between atoms: C_2  and  C_4
REMARK    4  A    between atoms: C_2  and  C_5
REMARK    5  A    between atoms: C_5  and  C_6
REMARK    6  A    between atoms: C_6  and  C_7
REMARK    7  A    between atoms: C_6  and  C_8
REMARK    8  A    between atoms: C_6  and  N_9
REMARK    9  A    between atoms: C_10  and  C_12
REMARK   10  A    between atoms: C_12  and  C_14
REMARK   11  A    between atoms: C_12  and  N_21
REMARK   12  A    between atoms: C_19  and  O_20
REMARK   13  A    between atoms: N_21  and  C_22
REMARK   14  A    between atoms: C_23  and  C_25
REMARK   15  A    between atoms: C_25  and  C_33
REMARK   16  A    between atoms: C_26  and  C_27
REMARK                            x       y       z     vdW  Elec       q    Type
REMARK                         _______ _______ _______ _____ _____    ______ ____
ROOT
ATOM      1  C   UNL     1       5.528  -0.914  -3.966  0.00  0.00    +0.196 C 
ENDROOT
BRANCH   1   2
ATOM      2  C   UNL     1       5.587  -2.404  -4.181  0.00  0.00    +0.023 A 
ATOM      3  C   UNL     1       5.240  -3.264  -3.157  0.00  0.00    +0.009 A 
ATOM      4  C   UNL     1       5.294  -4.632  -3.353  0.00  0.00    +0.001 A 
ATOM      5  C   UNL     1       5.695  -5.142  -4.574  0.00  0.00    +0.004 A 
ATOM      6  C   UNL     1       6.042  -4.286  -5.601  0.00  0.00    +0.046 A 
ATOM      7  C   UNL     1       5.983  -2.913  -5.409  0.00  0.00    +0.122 A 
BRANCH   7   8
ATOM      8  O   UNL     1       6.319  -2.069  -6.419  0.00  0.00    -0.506 OA
ATOM      9  H   UNL     1       7.256  -1.831  -6.438  0.00  0.00    +0.292 HD
ENDBRANCH   7   8
ENDBRANCH   1   2
BRANCH   1  11
ATOM     10  N   UNL     1       3.417  -1.004  -2.679  0.00  0.00    -0.308 N 
ATOM     11  C   UNL     1       4.706  -0.615  -2.738  0.00  0.00    +0.239 C 
ATOM     12  O   UNL     1       5.205  -0.025  -1.804  0.00  0.00    -0.273 OA
ATOM     13  H   UNL     1       3.018  -1.476  -3.427  0.00  0.00    +0.149 HD
BRANCH  10  14
ATOM     14  C   UNL     1       2.619  -0.714  -1.486  0.00  0.00    +0.030 C 
ATOM     15  C   UNL     1       2.686   0.784  -1.179  0.00  0.00    +0.031 C 
ATOM     16  C   UNL     1       3.172  -1.503  -0.297  0.00  0.00    +0.031 C 
BRANCH  14  17
ATOM     17  C   UNL     1       1.164  -1.118  -1.734  0.00  0.00    +0.031 C 
BRANCH  17  19
ATOM     18  C   UNL     1       1.232  -1.662  -4.172  0.00  0.00    +0.010 C 
ATOM     19  C   UNL     1       0.738  -0.657  -3.129  0.00  0.00    -0.036 C 
ATOM     20  C   UNL     1       1.343   0.718  -3.419  0.00  0.00    +0.010 C 
ATOM     21  C   UNL     1      -0.788  -0.566  -3.192  0.00  0.00    +0.010 C 
ENDBRANCH  17  19
ENDBRANCH  14  17
ENDBRANCH  10  14
ENDBRANCH   1  11
BRANCH   1  22
ATOM     22  N   UNL     1       6.885  -0.393  -3.784  0.00  0.00    -0.285 N 
ATOM     23  C   UNL     1       7.750  -0.950  -2.743  0.00  0.00    +0.133 C 
ATOM     24  C   UNL     1       7.337   0.600  -4.576  0.00  0.00    +0.248 C 
ATOM     25  O   UNL     1       6.590   1.125  -5.380  0.00  0.00    -0.270 OA
BRANCH  24  26
ATOM     26  C   UNL     1       8.734   1.049  -4.468  0.00  0.00    +0.045 C 
ATOM     27  C   UNL     1       9.099   1.905  -3.475  0.00  0.00    +0.021 C 
BRANCH  27  28
ATOM     28  C   UNL     1       8.101   2.369  -2.502  0.00  0.00    -0.024 A 
ATOM     29  C   UNL     1       8.458   2.552  -1.161  0.00  0.00    +0.008 A 
ATOM     30  C   UNL     1       7.516   2.988  -0.255  0.00  0.00    +0.001 A 
ATOM     31  C   UNL     1       6.219   3.244  -0.667  0.00  0.00    +0.000 A 
ATOM     32  C   UNL     1       5.857   3.064  -1.991  0.00  0.00    +0.001 A 
ATOM     33  C   UNL     1       6.789   2.635  -2.912  0.00  0.00    +0.008 A 
ENDBRANCH  27  28
BRANCH  26  34
ATOM     34  C   UNL     1       9.744   0.569  -5.439  0.00  0.00    -0.013 A 
ATOM     35  C   UNL     1       9.609   0.869  -6.795  0.00  0.00    +0.008 A 
ATOM     36  C   UNL     1      10.552   0.418  -7.695  0.00  0.00    +0.001 A 
ATOM     37  C   UNL     1      11.631  -0.329  -7.256  0.00  0.00    +0.000 A 
ATOM     38  C   UNL     1      11.770  -0.629  -5.913  0.00  0.00    +0.001 A 
ATOM     39  C   UNL     1      10.836  -0.180  -5.002  0.00  0.00    +0.008 A 
ENDBRANCH  26  34
ENDBRANCH  24  26
ENDBRANCH   1  22
TORSDOF 10
