REMARK  Name = ZINC00970881
REMARK  9 active torsions:
REMARK  status: ('A' for Active; 'I' for Inactive)
REMARK    1  A    between atoms: C_1  and  C_2
REMARK    2  A    between atoms: C_3  and  C_29
REMARK    3  A    between atoms: C_4  and  C_20
REMARK    4  A    between atoms: C_10  and  C_11
REMARK    5  A    between atoms: C_23  and  C_26
REMARK    6  A    between atoms: C_26  and  C_27
REMARK    7  A    between atoms: C_26  and  C_28
REMARK    8  A    between atoms: C_29  and  O_31
REMARK    9  A    between atoms: O_31  and  C_32
REMARK                            x       y       z     vdW  Elec       q    Type
REMARK                         _______ _______ _______ _____ _____    ______ ____
ROOT
ATOM      1  C   UNL     1       9.412   4.150  -0.060  0.00  0.00    +0.066 C 
ATOM      2  C   UNL     1       7.927   4.406  -0.046  0.00  0.00    +0.053 C 
ATOM      3  C   UNL     1       7.461   5.691  -0.035  0.00  0.00    +0.085 C 
ATOM      4  C   UNL     1       5.965   5.907  -0.022  0.00  0.00    +0.162 C 
ATOM      5  N   UNL     1       5.104   4.692  -0.021  0.00  0.00    -0.275 N 
ATOM      6  C   UNL     1       3.767   4.665  -0.009  0.00  0.00    +0.268 A 
ATOM      7  O   UNL     1       3.130   5.703   0.003  0.00  0.00    -0.266 OA
ATOM      8  C   UNL     1       3.096   3.412  -0.009  0.00  0.00    +0.084 A 
ATOM      9  C   UNL     1       1.757   3.146   0.002  0.00  0.00    +0.066 C 
ATOM     10  S   UNL     1       4.476   2.277  -0.021  0.00  0.00    -0.046 S 
ATOM     11  C   UNL     1       5.780   3.492  -0.033  0.00  0.00    +0.178 A 
ATOM     12  N   UNL     1       7.083   3.382  -0.044  0.00  0.00    -0.228 NA
ENDROOT
BRANCH   9  13
ATOM     13  C   UNL     1       1.302   1.809  -0.001  0.00  0.00    +0.131 A 
ATOM     14  C   UNL     1      -0.017   1.398   0.010  0.00  0.00    +0.050 A 
ATOM     15  C   UNL     1       0.002  -0.004   0.002  0.00  0.00    +0.057 A 
ATOM     16  C   UNL     1       1.300  -0.387  -0.012  0.00  0.00    +0.171 A 
ATOM     17  O   UNL     1       2.078   0.705  -0.014  0.00  0.00    -0.449 OA
ATOM     18 BR   UNL     1       1.917  -2.175  -0.027  0.00  0.00    -0.008 Br
ENDBRANCH   9  13
BRANCH   4  19
ATOM     19  C   UNL     1       5.625   6.718   1.202  0.00  0.00    -0.020 A 
ATOM     20  C   UNL     1       5.376   6.082   2.405  0.00  0.00    +0.006 A 
ATOM     21  C   UNL     1       5.069   6.826   3.529  0.00  0.00    +0.004 A 
ATOM     22  C   UNL     1       5.000   8.204   3.448  0.00  0.00    -0.045 A 
ATOM     23  C   UNL     1       5.245   8.839   2.245  0.00  0.00    +0.004 A 
ATOM     24  C   UNL     1       5.557   8.096   1.122  0.00  0.00    +0.006 A 
BRANCH  22  25
ATOM     25  C   UNL     1       4.659   9.014   4.672  0.00  0.00    +0.013 C 
ATOM     26  C   UNL     1       3.278   8.605   5.186  0.00  0.00    +0.012 C 
ATOM     27  C   UNL     1       5.704   8.759   5.760  0.00  0.00    +0.012 C 
ENDBRANCH  22  25
ENDBRANCH   4  19
BRANCH   3  28
ATOM     28  C   UNL     1       8.348   6.780  -0.037  0.00  0.00    +0.339 C 
ATOM     29  O   UNL     1       9.550   6.587  -0.048  0.00  0.00    -0.245 OA
BRANCH  28  30
ATOM     30  O   UNL     1       7.867   8.043  -0.026  0.00  0.00    -0.465 OA
ATOM     31  C   UNL     1       8.825   9.102  -0.028  0.00  0.00    +0.280 C 
ENDBRANCH  28  30
ENDBRANCH   3  28
TORSDOF 5
