REMARK  Name = ZINC38671073
REMARK  15 active torsions:
REMARK  status: ('A' for Active; 'I' for Inactive)
REMARK    1  A    between atoms: C_1  and  C_2
REMARK    2  A    between atoms: C_2  and  O_3
REMARK    3  A    between atoms: O_3  and  C_4
REMARK    4  A    between atoms: C_6  and  C_16
REMARK    5  A    between atoms: C_8  and  O_13
REMARK    6  A    between atoms: C_9  and  O_10
REMARK    7  A    between atoms: O_10  and  C_11
REMARK    8  A    between atoms: C_11  and  C_12
REMARK    9  A    between atoms: O_13  and  C_14
REMARK   10  A    between atoms: C_14  and  C_15
REMARK   11  A    between atoms: N_18  and  C_19
REMARK   12  A    between atoms: C_19  and  C_20
REMARK   13  A    between atoms: C_20  and  C_22
REMARK   14  A    between atoms: C_20  and  N_33
REMARK   15  A    between atoms: N_31  and  C_32
REMARK                            x       y       z     vdW  Elec       q    Type
REMARK                         _______ _______ _______ _____ _____    ______ ____
ROOT
ATOM      1  C   UNL     1      -0.512  -7.065   1.298  0.00  0.00    +0.094 C 
ENDROOT
BRANCH   1   4
ATOM      2  C   UNL     1      -0.138  -5.694   3.277  0.00  0.00    +0.244 C 
ATOM      3  O   UNL     1      -0.601  -4.747   2.672  0.00  0.00    -0.270 OA
ATOM      4  N   UNL     1      -0.050  -6.898   2.678  0.00  0.00    -0.313 N 
ATOM      5  H   UNL     1       0.320  -7.654   3.160  0.00  0.00    +0.149 HD
BRANCH   2   8
ATOM      6  C   UNL     1       0.675  -4.122   6.591  0.00  0.00    +0.166 A 
ATOM      7  C   UNL     1       0.238  -4.278   5.289  0.00  0.00    +0.062 A 
ATOM      8  C   UNL     1       0.329  -5.525   4.667  0.00  0.00    +0.044 A 
ATOM      9  C   UNL     1       0.861  -6.613   5.363  0.00  0.00    +0.062 A 
ATOM     10  C   UNL     1       1.296  -6.453   6.665  0.00  0.00    +0.166 A 
ATOM     11  C   UNL     1       1.210  -5.207   7.281  0.00  0.00    +0.204 A 
BRANCH   6  12
ATOM     12  O   UNL     1       0.587  -2.908   7.197  0.00  0.00    -0.488 OA
BRANCH  12  14
ATOM     13  C   UNL     1       0.011  -0.562   7.273  0.00  0.00    +0.048 C 
ATOM     14  C   UNL     1       0.028  -1.839   6.431  0.00  0.00    +0.226 C 
ENDBRANCH  12  14
ENDBRANCH   6  12
BRANCH  11  15
ATOM     15  O   UNL     1       1.643  -5.051   8.560  0.00  0.00    -0.485 OA
BRANCH  15  16
ATOM     16  C   UNL     1       0.690  -5.275   9.600  0.00  0.00    +0.226 C 
ATOM     17  C   UNL     1       1.356  -5.053  10.959  0.00  0.00    +0.048 C 
ENDBRANCH  15  16
ENDBRANCH  11  15
BRANCH  10  18
ATOM     18  O   UNL     1       1.814  -7.512   7.344  0.00  0.00    -0.488 OA
BRANCH  18  19
ATOM     19  C   UNL     1       1.878  -8.759   6.649  0.00  0.00    +0.226 C 
ATOM     20  C   UNL     1       2.484  -9.823   7.567  0.00  0.00    +0.048 C 
ENDBRANCH  18  19
ENDBRANCH  10  18
ENDBRANCH   2   8
ENDBRANCH   1   4
BRANCH   1  21
ATOM     21  C   UNL     1      -0.199  -8.486   0.824  0.00  0.00    -0.020 C 
BRANCH  21  22
ATOM     22  C   UNL     1      -0.984  -9.475   1.647  0.00  0.00    -0.059 A 
ATOM     23  C   UNL     1      -2.315  -9.713   1.355  0.00  0.00    +0.004 A 
ATOM     24  C   UNL     1      -3.034 -10.617   2.110  0.00  0.00    +0.023 A 
ATOM     25  C   UNL     1      -2.420 -11.289   3.162  0.00  0.00    +0.033 A 
ATOM     26  C   UNL     1      -1.086 -11.052   3.451  0.00  0.00    -0.026 A 
ATOM     27  C   UNL     1      -0.371 -10.145   2.687  0.00  0.00    +0.007 A 
ATOM     28  C   UNL     1      -0.386 -11.769   4.576  0.00  0.00    +0.038 C 
ATOM     29  C   UNL     1      -1.402 -12.313   5.579  0.00  0.00    +0.024 C 
ATOM     30  C   UNL     1      -2.464 -13.120   4.820  0.00  0.00    +0.105 C 
ATOM     31  N   UNL     1      -3.168 -12.198   3.918  0.00  0.00    -0.333 N 
ATOM     32  C   UNL     1      -4.629 -12.231   3.812  0.00  0.00    +0.129 C 
ENDBRANCH  21  22
BRANCH  21  33
ATOM     33  N   UNL     1      -0.570  -8.623  -0.591  0.00  0.00    +0.385 N 
ATOM     34  C   UNL     1      -0.319 -10.001  -1.030  0.00  0.00    -0.078 C 
ATOM     35  C   UNL     1      -0.779 -10.170  -2.480  0.00  0.00    -0.019 C 
ATOM     36  C   UNL     1      -0.002  -9.199  -3.373  0.00  0.00    -0.004 C 
ATOM     37  C   UNL     1      -0.212  -7.771  -2.861  0.00  0.00    -0.019 C 
ATOM     38  C   UNL     1       0.227  -7.690  -1.397  0.00  0.00    -0.078 C 
ATOM     39  H   UNL     1      -1.550  -8.410  -0.703  0.00  0.00    -0.081 HD
ENDBRANCH  21  33
ENDBRANCH   1  21
TORSDOF 11
