REMARK  Name = ZINC63161838
REMARK  7 active torsions:
REMARK  status: ('A' for Active; 'I' for Inactive)
REMARK    1  A    between atoms: C_5  and  C_7
REMARK    2  A    between atoms: C_7  and  S_8
REMARK    3  A    between atoms: S_8  and  C_9
REMARK    4  A    between atoms: C_9  and  C_10
REMARK    5  A    between atoms: C_10  and  N_11
REMARK    6  A    between atoms: N_14  and  C_15
REMARK    7  A    between atoms: C_17  and  C_23
REMARK                            x       y       z     vdW  Elec       q    Type
REMARK                         _______ _______ _______ _____ _____    ______ ____
ROOT
ATOM      1  N   UNL     1       1.146  -6.717   2.754  0.00  0.00    -0.298 N 
ATOM      2  C   UNL     1       1.167  -7.518   3.838  0.00  0.00    +0.304 C 
ATOM      3  O   UNL     1       1.016  -7.043   4.948  0.00  0.00    -0.253 OA
ATOM      4  N   UNL     1       1.353  -8.845   3.693  0.00  0.00    -0.265 N 
ATOM      5  H   UNL     1       1.266  -7.096   1.869  0.00  0.00    +0.150 HD
ATOM      6  H   UNL     1       1.399  -9.233   2.806  0.00  0.00    +0.157 HD
ENDROOT
BRANCH   4   7
ATOM      7  C   UNL     1       1.481  -9.663   4.824  0.00  0.00    +0.100 A 
ATOM      8  C   UNL     1       0.616 -10.702   5.028  0.00  0.00    +0.042 A 
ATOM      9  C   UNL     1       0.766 -11.505   6.168  0.00  0.00    +0.073 A 
ATOM     10  C   UNL     1       1.758 -11.249   7.051  0.00  0.00    +0.098 A 
ATOM     11  N   UNL     1       2.619 -10.216   6.850  0.00  0.00    -0.327 N 
ATOM     12  H   UNL     1       3.324 -10.047   7.495  0.00  0.00    +0.168 HD
ATOM     13  C   UNL     1       2.508  -9.427   5.764  0.00  0.00    +0.270 A 
ATOM     14  O   UNL     1       3.292  -8.507   5.595  0.00  0.00    -0.266 OA
BRANCH   9  15
ATOM     15  C   UNL     1      -0.178 -12.655   6.409  0.00  0.00    +0.419 C 
ATOM     16  F   UNL     1       0.170 -13.302   7.599  0.00  0.00    -0.166 F 
ATOM     17  F   UNL     1      -1.487 -12.171   6.507  0.00  0.00    -0.166 F 
ATOM     18  F   UNL     1      -0.094 -13.559   5.345  0.00  0.00    -0.166 F 
ENDBRANCH   9  15
ENDBRANCH   4   7
BRANCH   1  19
ATOM     19  C   UNL     1       0.944  -5.275   2.913  0.00  0.00    +0.116 C 
BRANCH  19  20
ATOM     20  C   UNL     1       0.963  -4.604   1.538  0.00  0.00    +0.088 C 
BRANCH  20  21
ATOM     21  S   UNL     1       0.712  -2.818   1.734  0.00  0.00    -0.154 S 
BRANCH  21  22
ATOM     22  C   UNL     1       0.762  -2.179   0.037  0.00  0.00    +0.107 C 
BRANCH  22  27
ATOM     23  C   UNL     1      -0.894   1.214  -0.011  0.00  0.00    +0.000 A 
ATOM     24  C   UNL     1       0.198   2.057   0.091  0.00  0.00    +0.003 A 
ATOM     25  C   UNL     1       1.472   1.530   0.176  0.00  0.00    +0.038 A 
ATOM     26  C   UNL     1       1.656   0.158   0.159  0.00  0.00    +0.127 A 
ATOM     27  C   UNL     1       0.563  -0.685   0.056  0.00  0.00    -0.002 A 
ATOM     28  C   UNL     1      -0.711  -0.156  -0.029  0.00  0.00    +0.007 A 
ATOM     29  F   UNL     1       2.902  -0.358   0.241  0.00  0.00    -0.205 F 
ENDBRANCH  22  27
ENDBRANCH  21  22
ENDBRANCH  20  21
ENDBRANCH  19  20
ENDBRANCH   1  19
TORSDOF 7
