REMARK  Name = ZINC06834602
REMARK  11 active torsions:
REMARK  status: ('A' for Active; 'I' for Inactive)
REMARK    1  A    between atoms: C_1  and  C_2
REMARK    2  A    between atoms: C_2  and  C_3
REMARK    3  A    between atoms: C_3  and  C_4
REMARK    4  A    between atoms: C_4  and  C_5
REMARK    5  A    between atoms: N_7  and  C_8
REMARK    6  A    between atoms: C_11  and  C_14
REMARK    7  A    between atoms: N_16  and  C_21
REMARK    8  A    between atoms: C_24  and  C_27
REMARK    9  A    between atoms: C_27  and  C_28
REMARK   10  A    between atoms: C_27  and  C_29
REMARK   11  A    between atoms: C_27  and  C_30
REMARK                            x       y       z     vdW  Elec       q    Type
REMARK                         _______ _______ _______ _____ _____    ______ ____
ROOT
ATOM      1  C   UNL     1       3.552   3.599  -0.100  0.00  0.00    +0.170 C 
ATOM      2  N   UNL     1       3.556   2.128   0.007  0.00  0.00    -0.254 N 
ATOM      3  C   UNL     1       4.714   1.488   0.107  0.00  0.00    +0.231 C 
ATOM      4  O   UNL     1       4.759   0.280   0.206  0.00  0.00    -0.274 OA
ATOM      5  C   UNL     1       5.984   2.325   0.087  0.00  0.00    +0.167 C 
ATOM      6  S   UNL     1       5.317   3.936  -0.516  0.00  0.00    -0.124 S 
ENDROOT
BRANCH   1  10
ATOM      7  C   UNL     1       0.961   4.904  -3.238  0.00  0.00    +0.033 A 
ATOM      8  C   UNL     1       1.165   5.709  -2.125  0.00  0.00    +0.023 A 
ATOM      9  C   UNL     1       2.003   5.284  -1.113  0.00  0.00    +0.008 A 
ATOM     10  C   UNL     1       2.638   4.059  -1.207  0.00  0.00    -0.017 A 
ATOM     11  C   UNL     1       2.441   3.258  -2.316  0.00  0.00    +0.008 A 
ATOM     12  C   UNL     1       1.600   3.675  -3.330  0.00  0.00    +0.023 A 
BRANCH   7  15
ATOM     13  C   UNL     1       0.046   6.639  -4.585  0.00  0.00    +0.217 C 
ATOM     14  O   UNL     1       0.791   7.433  -4.049  0.00  0.00    -0.275 OA
ATOM     15  N   UNL     1       0.113   5.332  -4.266  0.00  0.00    -0.285 N 
ATOM     16  H   UNL     1      -0.427   4.687  -4.749  0.00  0.00    +0.155 HD
BRANCH  13  17
ATOM     17  C   UNL     1      -0.954   7.116  -5.606  0.00  0.00    +0.096 C 
BRANCH  17  18
ATOM     18  C   UNL     1      -0.822   8.630  -5.781  0.00  0.00    +0.009 C 
BRANCH  18  20
ATOM     19  C   UNL     1      -1.705  10.629  -6.993  0.00  0.00    +0.004 C 
ATOM     20  C   UNL     1      -1.837   9.115  -6.818  0.00  0.00    -0.003 C 
ENDBRANCH  18  20
ENDBRANCH  17  18
ENDBRANCH  13  17
ENDBRANCH   7  15
ENDBRANCH   1  10
BRANCH   2  21
ATOM     21  C   UNL     1       2.352   1.415   0.009  0.00  0.00    +0.038 A 
ATOM     22  C   UNL     1       1.448   1.579   1.051  0.00  0.00    +0.024 A 
ATOM     23  C   UNL     1       0.261   0.873   1.050  0.00  0.00    +0.006 A 
ATOM     24  C   UNL     1      -0.029   0.005   0.013  0.00  0.00    -0.042 A 
ATOM     25  C   UNL     1       0.868  -0.159  -1.026  0.00  0.00    +0.006 A 
ATOM     26  C   UNL     1       2.058   0.543  -1.031  0.00  0.00    +0.024 A 
BRANCH  24  27
ATOM     27  C   UNL     1      -1.325  -0.763   0.016  0.00  0.00    -0.013 C 
ATOM     28  C   UNL     1      -2.499   0.218   0.018  0.00  0.00    +0.015 C 
ATOM     29  C   UNL     1      -1.399  -1.644  -1.232  0.00  0.00    +0.015 C 
ATOM     30  C   UNL     1      -1.394  -1.643   1.266  0.00  0.00    +0.015 C 
ENDBRANCH  24  27
ENDBRANCH   2  21
TORSDOF 7
