REMARK  Name = ZINC22347497
REMARK  13 active torsions:
REMARK  status: ('A' for Active; 'I' for Inactive)
REMARK    1  A    between atoms: C_1  and  C_2
REMARK    2  A    between atoms: C_5  and  S_8
REMARK    3  A    between atoms: S_8  and  N_11
REMARK    4  A    between atoms: N_11  and  C_12
REMARK    5  A    between atoms: N_11  and  C_32
REMARK    6  A    between atoms: C_12  and  C_13
REMARK    7  A    between atoms: N_15  and  C_16
REMARK    8  A    between atoms: C_16  and  C_18
REMARK    9  A    between atoms: C_16  and  C_19
REMARK   10  A    between atoms: C_22  and  N_25
REMARK   11  A    between atoms: C_28  and  C_31
REMARK   12  A    between atoms: C_36  and  C_39
REMARK   13  A    between atoms: C_37  and  C_38
REMARK                            x       y       z     vdW  Elec       q    Type
REMARK                         _______ _______ _______ _____ _____    ______ ____
ROOT
ATOM      1  C   UNL     1       0.335   0.848  -0.104  0.00  0.00    +0.227 C 
ENDROOT
BRANCH   1   2
ATOM      2  C   UNL     1      -0.315   1.053  -1.448  0.00  0.00    +0.233 C 
ATOM      3  O   UNL     1      -1.401   1.587  -1.522  0.00  0.00    -0.274 OA
ATOM      4  N   UNL     1       0.311   0.642  -2.569  0.00  0.00    -0.307 N 
ATOM      5  H   UNL     1       1.297   0.157  -2.502  0.00  0.00    +0.149 HD
BRANCH   4   6
ATOM      6  C   UNL     1      -0.320   0.841  -3.876  0.00  0.00    +0.100 C 
ATOM      7  C   UNL     1      -1.277  -0.318  -4.161  0.00  0.00    +0.033 C 
BRANCH   6   8
ATOM      8  C   UNL     1       0.741   0.890  -4.944  0.00  0.00    -0.027 A 
ATOM      9  C   UNL     1       1.824   0.032  -4.882  0.00  0.00    +0.007 A 
ATOM     10  C   UNL     1       2.796   0.071  -5.863  0.00  0.00    +0.023 A 
ATOM     11  C   UNL     1       2.690   0.982  -6.907  0.00  0.00    +0.030 A 
ATOM     12  C   UNL     1       1.605   1.846  -6.963  0.00  0.00    +0.023 A 
ATOM     13  C   UNL     1       0.633   1.798  -5.982  0.00  0.00    +0.007 A 
BRANCH  11  14
ATOM     14  N   UNL     1       3.674   1.028  -7.897  0.00  0.00    -0.330 N 
ATOM     15  C   UNL     1       3.087   0.851  -9.231  0.00  0.00    +0.105 C 
ATOM     16  C   UNL     1       4.168   1.052 -10.296  0.00  0.00    +0.022 C 
ATOM     17  C   UNL     1       5.292   0.036 -10.074  0.00  0.00    -0.011 C 
ATOM     18  C   UNL     1       5.854   0.210  -8.660  0.00  0.00    +0.022 C 
ATOM     19  C   UNL     1       4.724   0.033  -7.642  0.00  0.00    +0.105 C 
ATOM     20  C   UNL     1       6.403   0.272 -11.098  0.00  0.00    +0.007 C 
ENDBRANCH  11  14
ENDBRANCH   6   8
ENDBRANCH   4   6
ENDBRANCH   1   2
BRANCH   1  21
ATOM     21  N   UNL     1      -0.491   1.466   0.936  0.00  0.00    -0.194 N 
BRANCH  21  22
ATOM     22  C   UNL     1      -1.542   0.748   1.511  0.00  0.00    +0.055 A 
ATOM     23  C   UNL     1      -2.793   0.743   0.907  0.00  0.00    +0.025 A 
ATOM     24  C   UNL     1      -3.830   0.032   1.478  0.00  0.00    +0.002 A 
ATOM     25  C   UNL     1      -3.625  -0.674   2.649  0.00  0.00    +0.004 A 
ATOM     26  C   UNL     1      -2.381  -0.671   3.253  0.00  0.00    -0.046 A 
ATOM     27  C   UNL     1      -1.337   0.033   2.684  0.00  0.00    -0.025 A 
ATOM     28  C   UNL     1       0.020   0.031   3.339  0.00  0.00    +0.046 C 
ATOM     29  C   UNL     1      -2.161  -1.442   4.529  0.00  0.00    +0.044 C 
ENDBRANCH  21  22
BRANCH  21  30
ATOM     30  S   UNL     1      -0.178   3.015   1.431  0.00  0.00    +0.075 S 
ATOM     31  O   UNL     1      -0.815   3.175   2.691  0.00  0.00    -0.150 OA
ATOM     32  O   UNL     1       1.216   3.225   1.250  0.00  0.00    -0.150 OA
BRANCH  30  37
ATOM     33  C   UNL     1      -2.994   6.719  -2.409  0.00  0.00    +0.044 C 
ATOM     34  C   UNL     1      -2.291   5.794  -1.450  0.00  0.00    -0.050 A 
ATOM     35  C   UNL     1      -2.913   5.412  -0.276  0.00  0.00    +0.005 A 
ATOM     36  C   UNL     1      -2.267   4.564   0.604  0.00  0.00    +0.029 A 
ATOM     37  C   UNL     1      -1.000   4.096   0.310  0.00  0.00    +0.109 A 
ATOM     38  C   UNL     1      -0.376   4.482  -0.862  0.00  0.00    +0.029 A 
ATOM     39  C   UNL     1      -1.024   5.327  -1.744  0.00  0.00    +0.005 A 
ENDBRANCH  30  37
ENDBRANCH  21  30
ENDBRANCH   1  21
TORSDOF 8
