REMARK  Name = ZINC06936554
REMARK  4 active torsions:
REMARK  status: ('A' for Active; 'I' for Inactive)
REMARK    1  A    between atoms: C_1  and  C_2
REMARK    2  A    between atoms: C_7  and  N_12
REMARK    3  A    between atoms: C_9  and  C_11
REMARK    4  A    between atoms: C_13  and  C_15
REMARK                            x       y       z     vdW  Elec       q    Type
REMARK                         _______ _______ _______ _____ _____    ______ ____
ROOT
ATOM      1  C   UNL     1       5.990   7.063   3.675  0.00  0.00    +0.078 C 
ATOM      2  C   UNL     1       5.023   7.024   4.862  0.00  0.00    +0.031 C 
ATOM      3  C   UNL     1       4.624   5.574   5.141  0.00  0.00    +0.107 C 
ATOM      4  N   UNL     1       3.987   5.001   3.948  0.00  0.00    -0.313 N 
ATOM      5  C   UNL     1       4.912   4.984   2.808  0.00  0.00    +0.107 C 
ATOM      6  C   UNL     1       5.320   6.418   2.459  0.00  0.00    +0.031 C 
ATOM      7  C   UNL     1       3.497   3.733   4.208  0.00  0.00    +0.152 A 
ATOM      8  C   UNL     1       2.845   2.995   3.205  0.00  0.00    +0.148 A 
ATOM      9  C   UNL     1       2.367   1.714   3.528  0.00  0.00    +0.166 A 
ATOM     10  N   UNL     1       2.551   1.249   4.760  0.00  0.00    -0.216 NA
ATOM     11  C   UNL     1       3.167   1.976   5.667  0.00  0.00    +0.225 A 
ATOM     12  N   UNL     1       3.631   3.186   5.411  0.00  0.00    -0.218 NA
ATOM     13  N   UNL     1       1.780   1.231   2.387  0.00  0.00    -0.312 N 
ATOM     14  C   UNL     1       1.911   2.184   1.420  0.00  0.00    +0.112 A 
ATOM     15  N   UNL     1       2.534   3.221   1.907  0.00  0.00    -0.227 NA
ATOM     16  C   UNL     1       1.416   2.053  -0.000  0.00  0.00    +0.074 C 
ATOM     17  C   UNL     1      -0.019   1.521   0.010  0.00  0.00    +0.008 C 
ATOM     18  C   UNL     1       0.002  -0.004   0.002  0.00  0.00    +0.002 C 
ATOM     19  C   UNL     1       1.210  -0.525   0.778  0.00  0.00    +0.022 C 
ATOM     20  C   UNL     1       1.121  -0.070   2.236  0.00  0.00    +0.125 C 
ENDROOT
BRANCH   1  22
ATOM     21  N   UNL     1       7.182   8.772   2.342  0.00  0.00    -0.312 N 
ATOM     22  C   UNL     1       6.340   8.494   3.357  0.00  0.00    +0.216 C 
ATOM     23  O   UNL     1       5.863   9.395   4.014  0.00  0.00    -0.276 OA
ATOM     24  H   UNL     1       7.563   8.052   1.817  0.00  0.00    +0.149 HD
BRANCH  21  30
ATOM     25  C   UNL     1      10.595  11.715   0.309  0.00  0.00    +0.008 C 
ATOM     26  C   UNL     1       9.236  11.666   1.010  0.00  0.00    -0.009 C 
ATOM     27  C   UNL     1       8.167  12.260   0.091  0.00  0.00    +0.003 C 
ATOM     28  C   UNL     1       6.808  12.210   0.791  0.00  0.00    +0.002 C 
ATOM     29  C   UNL     1       6.453  10.758   1.114  0.00  0.00    +0.022 C 
ATOM     30  C   UNL     1       7.522  10.164   2.033  0.00  0.00    +0.076 C 
ATOM     31  C   UNL     1       8.881  10.213   1.333  0.00  0.00    +0.009 C 
ATOM     32  C   UNL     1       9.950   9.619   2.252  0.00  0.00    +0.009 C 
ENDBRANCH  21  30
ENDBRANCH   1  22
TORSDOF 2
