REMARK  Name = ZINC55132035
REMARK  7 active torsions:
REMARK  status: ('A' for Active; 'I' for Inactive)
REMARK    1  A    between atoms: C_1  and  C_2
REMARK    2  A    between atoms: C_2  and  C_3
REMARK    3  A    between atoms: C_3  and  C_5
REMARK    4  A    between atoms: C_3  and  N_6
REMARK    5  A    between atoms: C_12  and  C_14
REMARK    6  A    between atoms: C_16  and  C_24
REMARK    7  A    between atoms: C_21  and  N_23
REMARK                            x       y       z     vdW  Elec       q    Type
REMARK                         _______ _______ _______ _____ _____    ______ ____
ROOT
ATOM      1  N   UNL     1       2.084  -0.487   1.245  0.00  0.00    -0.297 NA
ATOM      2  C   UNL     1       2.781  -0.920   0.026  0.00  0.00    +0.103 C 
ATOM      3  C   UNL     1       4.125  -0.191  -0.076  0.00  0.00    +0.123 C 
ATOM      4  N   UNL     1       4.869  -0.405   1.175  0.00  0.00    -0.299 N 
ATOM      5  C   UNL     1       4.187  -0.122   2.447  0.00  0.00    +0.123 C 
ATOM      6  C   UNL     1       2.840  -0.854   2.450  0.00  0.00    +0.103 C 
ATOM      7  C   UNL     1       6.142  -0.847   1.156  0.00  0.00    +0.217 C 
ATOM      8  O   UNL     1       6.661  -1.157   0.105  0.00  0.00    -0.275 OA
ENDROOT
BRANCH   7   9
ATOM      9  C   UNL     1       6.921  -0.956   2.442  0.00  0.00    +0.064 C 
ATOM     10  C   UNL     1       7.919  -2.111   2.337  0.00  0.00    -0.004 C 
ATOM     11  C   UNL     1       8.710  -2.222   3.642  0.00  0.00    +0.004 C 
ATOM     12  C   UNL     1       9.466  -0.916   3.893  0.00  0.00    -0.001 C 
ATOM     13  C   UNL     1       8.467   0.239   3.998  0.00  0.00    -0.016 C 
ATOM     14  C   UNL     1       7.677   0.350   2.693  0.00  0.00    -0.063 C 
ATOM     15  C   UNL     1       7.163  -3.417   2.085  0.00  0.00    +0.008 C 
BRANCH  14  16
ATOM     16  N   UNL     1       6.718   1.459   2.794  0.00  0.00    +0.380 N 
ATOM     17  H   UNL     1       6.083   1.286   3.558  0.00  0.00    -0.090 HD
ATOM     18  H   UNL     1       7.217   2.320   2.959  0.00  0.00    -0.090 HD
ATOM     19  H   UNL     1       6.197   1.532   1.933  0.00  0.00    -0.090 HD
ENDBRANCH  14  16
ENDBRANCH   7   9
BRANCH   1  20
ATOM     20  C   UNL     1       0.721  -1.031   1.293  0.00  0.00    +0.053 C 
ATOM     21  C   UNL     1       0.779  -2.559   1.261  0.00  0.00    +0.024 C 
BRANCH  20  23
ATOM     22  C   UNL     1      -0.238   0.992   0.183  0.00  0.00    +0.005 C 
ATOM     23  C   UNL     1      -0.072  -0.526   0.086  0.00  0.00    +0.015 C 
ENDBRANCH  20  23
ENDBRANCH   1  20
TORSDOF 4
