REMARK  Name = ZINC39665050
REMARK  7 active torsions:
REMARK  status: ('A' for Active; 'I' for Inactive)
REMARK    1  A    between atoms: C_1  and  C_2
REMARK    2  A    between atoms: C_2  and  C_4
REMARK    3  A    between atoms: C_2  and  O_35
REMARK    4  A    between atoms: C_4  and  N_5
REMARK    5  A    between atoms: C_6  and  C_8
REMARK    6  A    between atoms: C_19  and  C_21
REMARK    7  A    between atoms: O_35  and  C_36
REMARK                            x       y       z     vdW  Elec       q    Type
REMARK                         _______ _______ _______ _____ _____    ______ ____
ROOT
ATOM      1  C   UNL     1      -1.116  -4.690   0.681  0.00  0.00    +0.100 C 
ATOM      2  C   UNL     1      -0.705  -4.729   2.170  0.00  0.00    +0.121 C 
ATOM      3  N   UNL     1      -1.974  -4.942   2.904  0.00  0.00    -0.296 N 
ATOM      4  C   UNL     1      -2.726  -5.907   2.067  0.00  0.00    +0.115 C 
ATOM      5  C   UNL     1      -2.442  -5.467   0.617  0.00  0.00    -0.004 C 
ATOM      6  C   UNL     1      -3.561  -4.562   0.112  0.00  0.00    -0.010 C 
ATOM      7  C   UNL     1      -4.856  -5.372   0.004  0.00  0.00    -0.082 C 
ATOM      8  N   UNL     1      -4.656  -6.497  -0.918  0.00  0.00    +0.379 N 
ATOM      9  C   UNL     1      -3.643  -7.412  -0.379  0.00  0.00    -0.082 C 
ATOM     10  C   UNL     1      -2.296  -6.688  -0.286  0.00  0.00    -0.010 C 
ATOM     11  C   UNL     1      -2.358  -4.384   4.069  0.00  0.00    +0.247 C 
ATOM     12  O   UNL     1      -3.396  -4.733   4.597  0.00  0.00    -0.270 OA
ATOM     13  H   UNL     1      -5.527  -6.993  -1.035  0.00  0.00    -0.086 HD
ATOM     14  H   UNL     1      -4.349  -6.146  -1.813  0.00  0.00    -0.086 HD
ENDROOT
BRANCH  11  15
ATOM     15  C   UNL     1      -1.518  -3.349   4.705  0.00  0.00    +0.045 A 
ATOM     16  C   UNL     1      -0.146  -3.567   4.880  0.00  0.00    +0.014 A 
ATOM     17  C   UNL     1       0.640  -2.604   5.473  0.00  0.00    +0.001 A 
ATOM     18  C   UNL     1       0.084  -1.409   5.901  0.00  0.00    +0.012 A 
ATOM     19  C   UNL     1      -1.276  -1.172   5.737  0.00  0.00    +0.031 A 
ATOM     20  C   UNL     1      -2.088  -2.143   5.129  0.00  0.00    +0.006 A 
ATOM     21  C   UNL     1      -3.481  -1.632   5.075  0.00  0.00    -0.006 A 
ATOM     22  C   UNL     1      -4.655  -2.191   4.585  0.00  0.00    +0.009 A 
ATOM     23  C   UNL     1      -5.844  -1.482   4.661  0.00  0.00    +0.001 A 
ATOM     24  C   UNL     1      -5.872  -0.220   5.220  0.00  0.00    +0.001 A 
ATOM     25  C   UNL     1      -4.710   0.352   5.713  0.00  0.00    +0.012 A 
ATOM     26  C   UNL     1      -3.511  -0.348   5.644  0.00  0.00    +0.030 A 
ATOM     27  C   UNL     1      -2.136  -0.016   6.088  0.00  0.00    +0.194 C 
ATOM     28  O   UNL     1      -1.778   1.013   6.624  0.00  0.00    -0.287 OA
ENDBRANCH  11  15
BRANCH   1  30
ATOM     29  N   UNL     1      -1.209  -2.950  -1.075  0.00  0.00    -0.312 N 
ATOM     30  C   UNL     1      -1.320  -3.267   0.230  0.00  0.00    +0.218 C 
ATOM     31  O   UNL     1      -1.585  -2.405   1.042  0.00  0.00    -0.275 OA
ATOM     32  H   UNL     1      -0.997  -3.639  -1.725  0.00  0.00    +0.149 HD
BRANCH  29  33
ATOM     33  C   UNL     1      -1.407  -1.567  -1.513  0.00  0.00    +0.148 C 
BRANCH  33  35
ATOM     34  C   UNL     1      -1.433  -0.036  -3.488  0.00  0.00    +0.053 C 
ATOM     35  C   UNL     1      -1.226  -1.481  -3.030  0.00  0.00    +0.187 C 
BRANCH  35  36
ATOM     36  O   UNL     1       0.094  -1.906  -3.377  0.00  0.00    -0.488 OA
BRANCH  36  37
ATOM     37  C   UNL     1       0.273  -2.403  -4.629  0.00  0.00    +0.121 A 
ATOM     38  C   UNL     1       1.493  -2.958  -4.988  0.00  0.00    +0.045 A 
ATOM     39  C   UNL     1       1.673  -3.463  -6.261  0.00  0.00    +0.004 A 
ATOM     40  C   UNL     1       0.638  -3.417  -7.177  0.00  0.00    +0.000 A 
ATOM     41  C   UNL     1      -0.579  -2.864  -6.821  0.00  0.00    +0.004 A 
ATOM     42  C   UNL     1      -0.765  -2.363  -5.548  0.00  0.00    +0.045 A 
ENDBRANCH  36  37
ENDBRANCH  35  36
ENDBRANCH  33  35
ENDBRANCH  29  33
ENDBRANCH   1  30
TORSDOF 6
