REMARK  Name = ZINC09636239
REMARK  5 active torsions:
REMARK  status: ('A' for Active; 'I' for Inactive)
REMARK    1  A    between atoms: C_1  and  C_2
REMARK    2  A    between atoms: C_7  and  N_8
REMARK    3  A    between atoms: N_8  and  C_9
REMARK    4  A    between atoms: N_19  and  C_22
REMARK    5  A    between atoms: C_22  and  C_23
REMARK                            x       y       z     vdW  Elec       q    Type
REMARK                         _______ _______ _______ _____ _____    ______ ____
ROOT
ATOM      1  C   UNL     1       3.541   3.227  -0.013  0.00  0.00    +0.085 C 
ATOM      2  C   UNL     1       4.694   3.976  -0.111  0.00  0.00    +0.059 C 
ATOM      3  C   UNL     1       4.644   5.452  -0.103  0.00  0.00    +0.000 A 
ATOM      4  C   UNL     1       3.444   6.144   0.016  0.00  0.00    +0.009 A 
ATOM      5  C   UNL     1       3.451   7.524   0.024  0.00  0.00    +0.001 A 
ATOM      6  C   UNL     1       4.644   8.223  -0.078  0.00  0.00    +0.001 A 
ATOM      7  C   UNL     1       5.845   7.555  -0.191  0.00  0.00    +0.013 A 
ATOM      8  C   UNL     1       5.860   6.160  -0.201  0.00  0.00    +0.045 A 
ATOM      9  C   UNL     1       7.117   5.410  -0.319  0.00  0.00    +0.254 C 
ATOM     10  O   UNL     1       8.168   6.014  -0.410  0.00  0.00    -0.270 OA
ATOM     11  N   UNL     1       7.125   4.067  -0.329  0.00  0.00    -0.230 N 
ATOM     12  C   UNL     1       6.006   3.330  -0.233  0.00  0.00    +0.255 C 
ATOM     13  O   UNL     1       6.081   2.115  -0.248  0.00  0.00    -0.269 OA
ENDROOT
BRANCH   1  14
ATOM     14  N   UNL     1       2.455   3.732   0.630  0.00  0.00    -0.320 N 
ATOM     15  H   UNL     1       2.531   4.687   1.171  0.00  0.00    +0.152 HD
BRANCH  14  22
ATOM     16  C   UNL     1       0.233   4.860   2.003  0.00  0.00    +0.045 C 
ATOM     17  C   UNL     1       0.132   3.551   1.262  0.00  0.00    -0.029 A 
ATOM     18  C   UNL     1      -1.064   2.862   1.235  0.00  0.00    +0.005 A 
ATOM     19  C   UNL     1      -1.159   1.665   0.550  0.00  0.00    +0.000 A 
ATOM     20  C   UNL     1      -0.054   1.147  -0.100  0.00  0.00    +0.002 A 
ATOM     21  C   UNL     1       1.146   1.831  -0.078  0.00  0.00    +0.023 A 
ATOM     22  C   UNL     1       1.243   3.037   0.605  0.00  0.00    +0.034 A 
ENDBRANCH  14  22
ENDBRANCH   1  14
BRANCH  11  23
ATOM     23  C   UNL     1       8.411   3.375  -0.449  0.00  0.00    +0.152 C 
BRANCH  23  24
ATOM     24  C   UNL     1       8.724   3.147  -1.906  0.00  0.00    -0.026 A 
ATOM     25  C   UNL     1       9.431   4.099  -2.616  0.00  0.00    +0.009 A 
ATOM     26  C   UNL     1       9.722   3.895  -3.952  0.00  0.00    +0.050 A 
ATOM     27  C   UNL     1       9.303   2.735  -4.583  0.00  0.00    +0.166 A 
ATOM     28  C   UNL     1       8.590   1.776  -3.868  0.00  0.00    +0.167 A 
ATOM     29  C   UNL     1       8.308   1.985  -2.527  0.00  0.00    +0.054 A 
ATOM     30  O   UNL     1       8.296   0.737  -4.703  0.00  0.00    -0.453 OA
ATOM     31  C   UNL     1       8.479   1.252  -6.035  0.00  0.00    +0.466 C 
ATOM     32  O   UNL     1       9.456   2.297  -5.867  0.00  0.00    -0.453 OA
ENDBRANCH  23  24
ENDBRANCH  11  23
TORSDOF 4
