REMARK  Name = ZINC00667060
REMARK  9 active torsions:
REMARK  status: ('A' for Active; 'I' for Inactive)
REMARK    1  A    between atoms: C_1  and  C_2
REMARK    2  A    between atoms: C_3  and  C_32
REMARK    3  A    between atoms: C_4  and  C_23
REMARK    4  A    between atoms: C_10  and  C_15
REMARK    5  A    between atoms: C_18  and  O_21
REMARK    6  A    between atoms: O_21  and  C_22
REMARK    7  A    between atoms: C_32  and  O_34
REMARK    8  A    between atoms: O_34  and  C_35
REMARK    9  A    between atoms: C_35  and  C_36
REMARK                            x       y       z     vdW  Elec       q    Type
REMARK                         _______ _______ _______ _____ _____    ______ ____
ROOT
ATOM      1  C   UNL     1      -0.021   1.052   0.017  0.00  0.00    +0.061 C 
ATOM      2  C   UNL     1      -0.722   1.556   1.252  0.00  0.00    +0.016 C 
ATOM      3  C   UNL     1      -0.034   1.702   2.398  0.00  0.00    +0.065 C 
ATOM      4  C   UNL     1      -0.696   2.210   3.644  0.00  0.00    +0.092 C 
ATOM      5  C   UNL     1      -2.197   2.098   3.545  0.00  0.00    +0.024 C 
ATOM      6  C   UNL     1      -2.798   1.932   2.348  0.00  0.00    +0.016 C 
ATOM      7  N   UNL     1      -2.052   1.867   1.199  0.00  0.00    -0.321 N 
ATOM      8  C   UNL     1      -4.298   1.815   2.240  0.00  0.00    +0.059 C 
ATOM      9  C   UNL     1      -4.958   2.621   3.361  0.00  0.00    +0.032 C 
ATOM     10  C   UNL     1      -4.451   2.088   4.705  0.00  0.00    +0.088 C 
ATOM     11  C   UNL     1      -2.950   2.172   4.730  0.00  0.00    +0.162 C 
ATOM     12  O   UNL     1      -2.377   2.308   5.793  0.00  0.00    -0.292 OA
ATOM     13  H   UNL     1      -2.532   2.067   0.230  0.00  0.00    +0.152 HD
ENDROOT
BRANCH   4  14
ATOM     14  C   UNL     1      -0.321   3.655   3.850  0.00  0.00    -0.032 A 
ATOM     15  C   UNL     1      -0.642   4.595   2.887  0.00  0.00    +0.008 A 
ATOM     16  C   UNL     1      -0.301   5.921   3.071  0.00  0.00    +0.050 A 
ATOM     17  C   UNL     1       0.365   6.313   4.221  0.00  0.00    +0.166 A 
ATOM     18  C   UNL     1       0.689   5.367   5.191  0.00  0.00    +0.167 A 
ATOM     19  C   UNL     1       0.338   4.040   5.002  0.00  0.00    +0.054 A 
ATOM     20  O   UNL     1       1.334   5.995   6.216  0.00  0.00    -0.453 OA
ATOM     21  C   UNL     1       1.764   7.261   5.681  0.00  0.00    +0.466 C 
ATOM     22  O   UNL     1       0.808   7.535   4.639  0.00  0.00    -0.453 OA
ENDBRANCH   4  14
BRANCH   9  23
ATOM     23  C   UNL     1      -6.455   2.462   3.285  0.00  0.00    -0.043 A 
ATOM     24  C   UNL     1      -7.021   1.204   3.373  0.00  0.00    +0.007 A 
ATOM     25  C   UNL     1      -8.393   1.057   3.309  0.00  0.00    +0.046 A 
ATOM     26  C   UNL     1      -9.202   2.171   3.145  0.00  0.00    +0.120 A 
ATOM     27  C   UNL     1      -8.631   3.432   3.051  0.00  0.00    +0.046 A 
ATOM     28  C   UNL     1      -7.259   3.575   3.122  0.00  0.00    +0.007 A 
BRANCH  26  29
ATOM     29  O   UNL     1     -10.552   2.028   3.076  0.00  0.00    -0.495 OA
ATOM     30  C   UNL     1     -11.070   0.701   3.180  0.00  0.00    +0.277 C 
ENDBRANCH  26  29
ENDBRANCH   9  23
BRANCH   3  31
ATOM     31  C   UNL     1       1.341   1.370   2.429  0.00  0.00    +0.338 C 
ATOM     32  O   UNL     1       1.915   1.059   1.402  0.00  0.00    -0.245 OA
BRANCH  31  33
ATOM     33  O   UNL     1       2.016   1.398   3.597  0.00  0.00    -0.457 OA
BRANCH  33  34
ATOM     34  C   UNL     1       3.401   1.052   3.554  0.00  0.00    +0.268 C 
BRANCH  34  35
ATOM     35  C   UNL     1       3.984   1.139   4.941  0.00  0.00    -0.010 A 
ATOM     36  C   UNL     1       4.538   2.325   5.385  0.00  0.00    +0.007 A 
ATOM     37  C   UNL     1       5.067   2.407   6.659  0.00  0.00    +0.000 A 
ATOM     38  C   UNL     1       5.053   1.299   7.485  0.00  0.00    +0.000 A 
ATOM     39  C   UNL     1       4.505   0.111   7.040  0.00  0.00    +0.000 A 
ATOM     40  C   UNL     1       3.970   0.031   5.768  0.00  0.00    +0.007 A 
ENDBRANCH  34  35
ENDBRANCH  33  34
ENDBRANCH  31  33
ENDBRANCH   3  31
TORSDOF 7
