REMARK  Name = ZINC08896892
REMARK  3 active torsions:
REMARK  status: ('A' for Active; 'I' for Inactive)
REMARK    1  A    between atoms: C_14  and  C_16
REMARK    2  A    between atoms: N_21  and  S_22
REMARK    3  A    between atoms: S_22  and  C_25
REMARK                            x       y       z     vdW  Elec       q    Type
REMARK                         _______ _______ _______ _____ _____    ______ ____
ROOT
ATOM      1  C   UNL     1      -4.766   2.907  -8.193  0.00  0.00    +0.000 A 
ATOM      2  C   UNL     1      -4.336   1.804  -7.478  0.00  0.00    +0.001 A 
ATOM      3  C   UNL     1      -3.655   1.967  -6.289  0.00  0.00    +0.010 A 
ATOM      4  C   UNL     1      -3.399   3.252  -5.808  0.00  0.00    +0.005 A 
ATOM      5  C   UNL     1      -3.836   4.354  -6.534  0.00  0.00    -0.033 A 
ATOM      6  C   UNL     1      -4.516   4.184  -7.720  0.00  0.00    +0.004 A 
ATOM      7  C   UNL     1      -3.413   5.581  -5.763  0.00  0.00    +0.080 C 
ATOM      8  C   UNL     1      -2.707   5.066  -4.552  0.00  0.00    +0.023 A 
ATOM      9  C   UNL     1      -2.691   3.700  -4.565  0.00  0.00    +0.084 A 
ATOM     10  N   UNL     1      -2.077   3.097  -3.526  0.00  0.00    -0.224 NA
ATOM     11  C   UNL     1      -1.528   3.772  -2.542  0.00  0.00    +0.165 A 
ATOM     12  S   UNL     1      -1.848   5.456  -3.048  0.00  0.00    -0.056 S 
ATOM     13  N   UNL     1      -0.869   3.302  -1.413  0.00  0.00    -0.263 N 
ATOM     14  C   UNL     1      -0.733   1.976  -1.215  0.00  0.00    +0.238 C 
ATOM     15  O   UNL     1      -1.185   1.192  -2.023  0.00  0.00    -0.274 OA
ATOM     16  H   UNL     1      -0.507   3.928  -0.767  0.00  0.00    +0.157 HD
ENDROOT
BRANCH  14  17
ATOM     17  C   UNL     1      -0.018   1.466   0.010  0.00  0.00    +0.166 C 
ATOM     18  C   UNL     1       1.449   1.944  -0.001  0.00  0.00    +0.031 C 
ATOM     19  C   UNL     1       2.219   0.718   0.556  0.00  0.00    +0.019 C 
ATOM     20  C   UNL     1       1.404  -0.458  -0.040  0.00  0.00    +0.110 C 
ATOM     21  N   UNL     1       0.002  -0.004   0.002  0.00  0.00    -0.165 NA
BRANCH  21  22
ATOM     22  S   UNL     1      -1.330  -0.988   0.035  0.00  0.00    +0.062 S 
ATOM     23  O   UNL     1      -0.901  -2.233   0.568  0.00  0.00    -0.153 OA
ATOM     24  O   UNL     1      -2.380  -0.230   0.620  0.00  0.00    -0.153 OA
BRANCH  22  25
ATOM     25  C   UNL     1      -1.797  -1.288  -1.637  0.00  0.00    +0.106 A 
ATOM     26  C   UNL     1      -2.695  -0.446  -2.265  0.00  0.00    +0.031 A 
ATOM     27  C   UNL     1      -3.058  -0.678  -3.579  0.00  0.00    +0.040 A 
ATOM     28  C   UNL     1      -2.531  -1.761  -4.261  0.00  0.00    +0.124 A 
ATOM     29  C   UNL     1      -1.635  -2.607  -3.629  0.00  0.00    +0.040 A 
ATOM     30  C   UNL     1      -1.269  -2.370  -2.318  0.00  0.00    +0.031 A 
ATOM     31  F   UNL     1      -2.890  -1.992  -5.543  0.00  0.00    -0.205 F 
ENDBRANCH  22  25
ENDBRANCH  21  22
ENDBRANCH  14  17
TORSDOF 3
