REMARK  Name = ZINC39465839
REMARK  8 active torsions:
REMARK  status: ('A' for Active; 'I' for Inactive)
REMARK    1  A    between atoms: C_1  and  C_2
REMARK    2  A    between atoms: C_2  and  C_3
REMARK    3  A    between atoms: C_2  and  S_4
REMARK    4  A    between atoms: S_4  and  C_7
REMARK    5  A    between atoms: C_12  and  O_13
REMARK    6  A    between atoms: O_13  and  C_14
REMARK    7  A    between atoms: P_19  and  S_25
REMARK    8  A    between atoms: S_25  and  C_28
REMARK                            x       y       z     vdW  Elec       q    Type
REMARK                         _______ _______ _______ _____ _____    ______ ____
ROOT
ATOM      1  C   UNL     1      -1.536  -2.381   0.152  0.00  0.00    +0.130 A 
ATOM      2  C   UNL     1      -2.001  -3.034   1.275  0.00  0.00    +0.034 A 
ATOM      3  C   UNL     1      -1.875  -4.410   1.389  0.00  0.00    -0.039 A 
ATOM      4  C   UNL     1      -1.282  -5.136   0.378  0.00  0.00    -0.020 A 
ATOM      5  C   UNL     1      -0.815  -4.482  -0.752  0.00  0.00    +0.053 A 
ATOM      6  C   UNL     1      -0.944  -3.108  -0.870  0.00  0.00    +0.145 A 
ATOM      7  C   UNL     1      -1.120  -6.631   0.454  0.00  0.00    +0.130 C 
ATOM      8  C   UNL     1      -1.466  -7.241  -0.907  0.00  0.00    +0.195 C 
ATOM      9  O   UNL     1      -1.196  -8.656  -0.861  0.00  0.00    -0.298 OA
ATOM     10  P   UNL     1      -1.798  -9.516   0.381  0.00  0.00    +0.424 P 
ATOM     11  O   UNL     1      -1.006 -10.750   0.581  0.00  0.00    -0.246 OA
ATOM     12  N   UNL     1      -1.671  -8.534   1.705  0.00  0.00    -0.161 NA
ATOM     13  N   UNL     1      -1.969  -7.202   1.499  0.00  0.00    -0.224 NA
ATOM     14  C   UNL     1      -1.808  -6.471   2.765  0.00  0.00    +0.108 C 
ATOM     15  C   UNL     1      -2.400  -5.080   2.633  0.00  0.00    +0.052 C 
ATOM     16  H   UNL     1      -1.411  -8.881   2.573  0.00  0.00    +0.152 HD
ENDROOT
BRANCH   1  17
ATOM     17  S   UNL     1      -1.700  -0.632   0.015  0.00  0.00    +0.003 S 
ATOM     18  O   UNL     1      -2.359  -0.234   1.209  0.00  0.00    -0.169 OA
ATOM     19  O   UNL     1      -2.308  -0.423  -1.252  0.00  0.00    -0.169 OA
BRANCH  17  21
ATOM     20  C   UNL     1      -0.019   1.526   0.010  0.00  0.00    +0.032 C 
ATOM     21  C   UNL     1       0.002  -0.004   0.002  0.00  0.00    +0.130 C 
ATOM     22  C   UNL     1       0.742  -0.511   1.242  0.00  0.00    +0.032 C 
ENDBRANCH  17  21
ENDBRANCH   1  17
BRANCH  10  23
ATOM     23  S   UNL     1      -3.830 -10.002   0.017  0.00  0.00    +0.085 S 
ATOM     24  O   UNL     1      -4.235 -10.867   1.069  0.00  0.00    -0.159 OA
ATOM     25  O   UNL     1      -4.496  -8.779  -0.263  0.00  0.00    -0.159 OA
BRANCH  23  26
ATOM     26  C   UNL     1      -3.881 -10.954  -1.465  0.00  0.00    +0.099 A 
ATOM     27  C   UNL     1      -4.020 -10.323  -2.687  0.00  0.00    +0.027 A 
ATOM     28  C   UNL     1      -4.060 -11.069  -3.850  0.00  0.00    +0.002 A 
ATOM     29  C   UNL     1      -3.960 -12.447  -3.791  0.00  0.00    +0.000 A 
ATOM     30  C   UNL     1      -3.819 -13.078  -2.569  0.00  0.00    +0.002 A 
ATOM     31  C   UNL     1      -3.775 -12.331  -1.406  0.00  0.00    +0.027 A 
ENDBRANCH  23  26
ENDBRANCH  10  23
BRANCH   6  32
ATOM     32  O   UNL     1      -0.488  -2.473  -1.982  0.00  0.00    -0.493 OA
ATOM     33  C   UNL     1       0.110  -3.285  -2.994  0.00  0.00    +0.277 C 
ENDBRANCH   6  32
TORSDOF 5
