REMARK  Name = ZINC16154560
REMARK  5 active torsions:
REMARK  status: ('A' for Active; 'I' for Inactive)
REMARK    1  A    between atoms: C_4  and  S_8
REMARK    2  A    between atoms: S_8  and  N_11
REMARK    3  A    between atoms: N_11  and  N_12
REMARK    4  A    between atoms: C_13  and  C_15
REMARK    5  A    between atoms: C_15  and  C_16
REMARK                            x       y       z     vdW  Elec       q    Type
REMARK                         _______ _______ _______ _____ _____    ______ ____
ROOT
ATOM      1  N   UNL     1      -1.149   5.719  -2.390  0.00  0.00    -0.232 N 
ATOM      2  C   UNL     1      -1.861   6.655  -3.047  0.00  0.00    +0.228 C 
ATOM      3  O   UNL     1      -1.591   7.830  -2.911  0.00  0.00    -0.274 OA
ATOM      4  H   UNL     1      -1.365   4.779  -2.499  0.00  0.00    +0.171 HD
ENDROOT
BRANCH   1   5
ATOM      5  N   UNL     1      -0.095   6.102  -1.550  0.00  0.00    -0.108 NA
ATOM      6  H   UNL     1       0.621   6.658  -1.893  0.00  0.00    +0.172 HD
BRANCH   5   7
ATOM      7  S   UNL     1      -0.074   5.605   0.030  0.00  0.00    +0.074 S 
ATOM      8  O   UNL     1      -1.320   5.992   0.594  0.00  0.00    -0.152 OA
ATOM      9  O   UNL     1       1.171   6.026   0.571  0.00  0.00    -0.152 OA
BRANCH   7  13
ATOM     10  C   UNL     1      -0.013   1.076   0.008  0.00  0.00    +0.076 A 
ATOM     11  C   UNL     1      -1.220   1.752   0.017  0.00  0.00    +0.128 A 
ATOM     12  C   UNL     1      -1.238   3.137   0.029  0.00  0.00    +0.067 A 
ATOM     13  C   UNL     1      -0.050   3.843   0.022  0.00  0.00    +0.112 A 
ATOM     14  C   UNL     1       1.156   3.169   0.008  0.00  0.00    +0.067 A 
ATOM     15  C   UNL     1       1.176   1.785   0.000  0.00  0.00    +0.128 A 
ATOM     16  F   UNL     1       2.356   1.126  -0.014  0.00  0.00    -0.205 F 
ATOM     17  F   UNL     1      -2.381   1.062   0.019  0.00  0.00    -0.205 F 
ENDBRANCH   7  13
ENDBRANCH   5   7
ENDBRANCH   1   5
BRANCH   2  18
ATOM     18  C   UNL     1      -2.995   6.243  -3.951  0.00  0.00    +0.104 C 
BRANCH  18  19
ATOM     19  C   UNL     1      -3.632   7.489  -4.570  0.00  0.00    -0.020 C 
ATOM     20  C   UNL     1      -4.170   8.392  -3.458  0.00  0.00    +0.011 C 
ATOM     21  C   UNL     1      -4.807   9.638  -4.076  0.00  0.00    -0.010 C 
ATOM     22  C   UNL     1      -5.958   9.220  -4.994  0.00  0.00    +0.007 C 
ATOM     23  C   UNL     1      -5.421   8.316  -6.106  0.00  0.00    -0.010 C 
ATOM     24  C   UNL     1      -4.783   7.071  -5.488  0.00  0.00    +0.011 C 
ATOM     25  C   UNL     1      -4.371   9.077  -6.918  0.00  0.00    +0.007 C 
ATOM     26  C   UNL     1      -3.220   9.495  -6.001  0.00  0.00    -0.010 C 
ATOM     27  C   UNL     1      -3.758  10.399  -4.889  0.00  0.00    +0.007 C 
ATOM     28  C   UNL     1      -2.583   8.250  -5.382  0.00  0.00    +0.011 C 
ENDBRANCH  18  19
ENDBRANCH   2  18
TORSDOF 5
