REMARK  Name = ZINC44018876
REMARK  5 active torsions:
REMARK  status: ('A' for Active; 'I' for Inactive)
REMARK    1  A    between atoms: C_1  and  C_2
REMARK    2  A    between atoms: C_11  and  C_12
REMARK    3  A    between atoms: C_15  and  O_19
REMARK    4  A    between atoms: C_16  and  O_18
REMARK    5  A    between atoms: O_19  and  C_20
REMARK                            x       y       z     vdW  Elec       q    Type
REMARK                         _______ _______ _______ _____ _____    ______ ____
ROOT
ATOM      1  C   UNL     1       0.748   1.633   0.580  0.00  0.00    +0.044 C 
ATOM      2  C   UNL     1       0.523   0.150   0.431  0.00  0.00    -0.050 A 
ATOM      3  C   UNL     1       0.308  -0.395  -0.825  0.00  0.00    +0.007 A 
ATOM      4  C   UNL     1       0.095  -1.749  -0.978  0.00  0.00    +0.046 A 
ATOM      5  C   UNL     1       0.097  -2.587   0.132  0.00  0.00    +0.132 A 
ATOM      6  C   UNL     1       0.327  -2.034   1.398  0.00  0.00    +0.064 A 
ATOM      7  C   UNL     1       0.539  -0.665   1.543  0.00  0.00    +0.018 A 
ATOM      8  C   UNL     1       0.362  -2.929   2.582  0.00  0.00    +0.196 C 
ATOM      9  O   UNL     1       0.691  -2.541   3.689  0.00  0.00    -0.287 OA
ATOM     10  C   UNL     1      -0.033  -4.330   2.312  0.00  0.00    +0.038 C 
ATOM     11  C   UNL     1      -0.678  -5.094   3.223  0.00  0.00    +0.018 C 
ATOM     12  C   UNL     1       0.344  -4.842   0.932  0.00  0.00    +0.268 C 
ATOM     13  O   UNL     1      -0.132  -3.910  -0.039  0.00  0.00    -0.487 OA
ENDROOT
BRANCH  11  14
ATOM     14  C   UNL     1      -0.889  -6.524   2.963  0.00  0.00    -0.021 A 
ATOM     15  C   UNL     1       0.066  -7.257   2.249  0.00  0.00    +0.012 A 
ATOM     16  C   UNL     1      -0.135  -8.598   2.008  0.00  0.00    +0.050 A 
ATOM     17  C   UNL     1      -1.283  -9.226   2.471  0.00  0.00    +0.161 A 
ATOM     18  C   UNL     1      -2.240  -8.504   3.183  0.00  0.00    +0.159 A 
ATOM     19  C   UNL     1      -2.044  -7.160   3.435  0.00  0.00    +0.057 A 
BRANCH  18  20
ATOM     20  O   UNL     1      -3.363  -9.123   3.635  0.00  0.00    -0.503 OA
ATOM     21  H   UNL     1      -3.275  -9.501   4.521  0.00  0.00    +0.292 HD
ENDBRANCH  18  20
BRANCH  17  22
ATOM     22  O   UNL     1      -1.476 -10.549   2.229  0.00  0.00    -0.491 OA
ATOM     23  C   UNL     1      -0.457 -11.229   1.493  0.00  0.00    +0.277 C 
ENDBRANCH  17  22
ENDBRANCH  11  14
TORSDOF 3
