REMARK  Name = ZINC52649293
REMARK  7 active torsions:
REMARK  status: ('A' for Active; 'I' for Inactive)
REMARK    1  A    between atoms: C_1  and  C_2
REMARK    2  A    between atoms: C_2  and  N_3
REMARK    3  A    between atoms: N_3  and  C_4
REMARK    4  A    between atoms: C_4  and  C_5
REMARK    5  A    between atoms: C_7  and  C_10
REMARK    6  A    between atoms: C_10  and  O_11
REMARK    7  A    between atoms: O_11  and  C_12
REMARK                            x       y       z     vdW  Elec       q    Type
REMARK                         _______ _______ _______ _____ _____    ______ ____
ROOT
ATOM      1  C   UNL     1      -2.770  -2.503   0.015  0.00  0.00    -0.026 A 
ATOM      2  C   UNL     1      -3.552  -2.795   1.156  0.00  0.00    +0.050 A 
ATOM      3  C   UNL     1      -4.743  -3.232   0.711  0.00  0.00    +0.142 A 
ATOM      4  O   UNL     1      -4.725  -3.220  -0.632  0.00  0.00    -0.464 OA
ATOM      5  C   UNL     1      -3.533  -2.774  -1.059  0.00  0.00    +0.197 A 
ENDROOT
BRANCH   1   6
ATOM      6  C   UNL     1      -1.356  -1.981   0.004  0.00  0.00    -0.044 C 
BRANCH   6   7
ATOM      7  N   UNL     1      -1.376  -0.512   0.012  0.00  0.00    +0.382 N 
ATOM      8  H   UNL     1      -1.848  -0.187   0.843  0.00  0.00    -0.085 HD
ATOM      9  H   UNL     1      -1.864  -0.178  -0.805  0.00  0.00    -0.085 HD
BRANCH   7  11
ATOM     10  C   UNL     1      -0.019   1.526   0.010  0.00  0.00    -0.017 C 
ATOM     11  C   UNL     1       0.002  -0.004   0.002  0.00  0.00    -0.086 C 
ENDBRANCH   7  11
ENDBRANCH   6   7
ENDBRANCH   1   6
BRANCH   3  12
ATOM     12  C   UNL     1      -5.902  -3.663   1.573  0.00  0.00    +0.303 C 
BRANCH  12  13
ATOM     13  O   UNL     1      -6.734  -2.535   1.851  0.00  0.00    -0.483 OA
BRANCH  13  14
ATOM     14  C   UNL     1      -7.832  -2.753   2.622  0.00  0.00    +0.141 A 
ATOM     15  C   UNL     1      -8.099  -4.025   3.106  0.00  0.00    +0.068 A 
ATOM     16  C   UNL     1      -9.216  -4.245   3.891  0.00  0.00    +0.063 A 
ATOM     17  C   UNL     1     -10.068  -3.196   4.193  0.00  0.00    +0.061 A 
ATOM     18  C   UNL     1      -9.803  -1.927   3.712  0.00  0.00    +0.045 A 
ATOM     19  C   UNL     1      -8.684  -1.702   2.931  0.00  0.00    +0.084 A 
ATOM     20 CL   UNL     1      -8.349  -0.107   2.332  0.00  0.00    -0.080 Cl
ATOM     21 CL   UNL     1     -11.470  -3.474   5.178  0.00  0.00    -0.082 Cl
ATOM     22 CL   UNL     1      -9.551  -5.837   4.497  0.00  0.00    -0.082 Cl
ENDBRANCH  13  14
ENDBRANCH  12  13
ENDBRANCH   3  12
TORSDOF 6
