REMARK  Name = ZINC10129716
REMARK  11 active torsions:
REMARK  status: ('A' for Active; 'I' for Inactive)
REMARK    1  A    between atoms: C_1  and  C_2
REMARK    2  A    between atoms: C_8  and  N_10
REMARK    3  A    between atoms: C_11  and  C_13
REMARK    4  A    between atoms: C_13  and  C_15
REMARK    5  A    between atoms: C_13  and  N_26
REMARK    6  A    between atoms: C_15  and  C_16
REMARK    7  A    between atoms: C_27  and  O_29
REMARK    8  A    between atoms: O_29  and  C_30
REMARK    9  A    between atoms: C_30  and  C_31
REMARK   10  A    between atoms: C_31  and  C_32
REMARK   11  A    between atoms: C_31  and  C_33
REMARK                            x       y       z     vdW  Elec       q    Type
REMARK                         _______ _______ _______ _____ _____    ______ ____
ROOT
ATOM      1  C   UNL     1       1.875   4.725   1.446  0.00  0.00    +0.166 C 
ENDROOT
BRANCH   1   3
ATOM      2  N   UNL     1       4.204   5.555   1.379  0.00  0.00    -0.311 N 
ATOM      3  C   UNL     1       2.889   5.840   1.455  0.00  0.00    +0.234 C 
ATOM      4  O   UNL     1       2.521   6.994   1.531  0.00  0.00    -0.274 OA
ATOM      5  H   UNL     1       4.497   4.633   1.318  0.00  0.00    +0.149 HD
BRANCH   2  12
ATOM      6  C   UNL     1       6.343   5.574   3.331  0.00  0.00    +0.009 C 
ATOM      7  C   UNL     1       6.526   6.108   1.909  0.00  0.00    +0.006 C 
ATOM      8  C   UNL     1       7.556   7.240   1.919  0.00  0.00    +0.005 C 
ATOM      9  C   UNL     1       7.739   7.774   0.497  0.00  0.00    +0.000 C 
ATOM     10  C   UNL     1       6.402   8.305  -0.025  0.00  0.00    +0.002 C 
ATOM     11  C   UNL     1       5.372   7.174  -0.034  0.00  0.00    +0.022 C 
ATOM     12  C   UNL     1       5.189   6.639   1.388  0.00  0.00    +0.076 C 
ENDBRANCH   2  12
ENDBRANCH   1   3
BRANCH   1  13
ATOM     13  N   UNL     1       0.610   5.211   2.004  0.00  0.00    -0.270 N 
ATOM     14  C   UNL     1      -0.033   6.241   1.419  0.00  0.00    +0.401 C 
ATOM     15  O   UNL     1       0.436   6.767   0.428  0.00  0.00    -0.226 OA
ATOM     16  H   UNL     1       0.235   4.791   2.794  0.00  0.00    +0.153 HD
BRANCH  14  17
ATOM     17  O   UNL     1      -1.196   6.687   1.931  0.00  0.00    -0.450 OA
BRANCH  17  18
ATOM     18  C   UNL     1      -1.833   7.800   1.249  0.00  0.00    +0.236 C 
BRANCH  18  19
ATOM     19  C   UNL     1      -3.131   8.164   1.971  0.00  0.00    +0.021 C 
ATOM     20  C   UNL     1      -3.739   9.413   1.329  0.00  0.00    +0.010 C 
ATOM     21  C   UNL     1      -4.120   7.002   1.860  0.00  0.00    +0.010 C 
ENDBRANCH  18  19
ENDBRANCH  17  18
ENDBRANCH  14  17
ENDBRANCH   1  13
BRANCH   1  22
ATOM     22  C   UNL     1       1.650   4.252   0.009  0.00  0.00    +0.069 C 
BRANCH  22  23
ATOM     23  C   UNL     1       0.730   3.058   0.011  0.00  0.00    -0.020 A 
ATOM     24  C   UNL     1       1.098   1.767   0.001  0.00  0.00    +0.087 A 
ATOM     25  N   UNL     1      -0.011   0.966   0.007  0.00  0.00    -0.360 N 
ATOM     26  H   UNL     1       0.002  -0.004   0.002  0.00  0.00    +0.165 HD
ATOM     27  C   UNL     1      -1.149   1.741   0.016  0.00  0.00    +0.047 A 
ATOM     28  C   UNL     1      -0.734   3.086   0.024  0.00  0.00    +0.003 A 
ATOM     29  C   UNL     1      -1.685   4.108   0.038  0.00  0.00    +0.010 A 
ATOM     30  C   UNL     1      -3.016   3.796   0.048  0.00  0.00    +0.001 A 
ATOM     31  C   UNL     1      -3.430   2.472   0.045  0.00  0.00    +0.002 A 
ATOM     32  C   UNL     1      -2.508   1.447   0.032  0.00  0.00    +0.026 A 
ENDBRANCH  22  23
ENDBRANCH   1  22
TORSDOF 8
