REMARK  Name = ZINC39231067
REMARK  6 active torsions:
REMARK  status: ('A' for Active; 'I' for Inactive)
REMARK    1  A    between atoms: C_4  and  C_7
REMARK    2  A    between atoms: C_10  and  S_20
REMARK    3  A    between atoms: N_11  and  C_12
REMARK    4  A    between atoms: C_12  and  C_13
REMARK    5  A    between atoms: S_20  and  C_21
REMARK    6  A    between atoms: C_21  and  C_22
REMARK                            x       y       z     vdW  Elec       q    Type
REMARK                         _______ _______ _______ _____ _____    ______ ____
ROOT
ATOM      1  C   UNL     1       3.705  -0.695  -0.233  0.00  0.00    +0.070 A 
ATOM      2  C   UNL     1       4.939  -0.132  -0.156  0.00  0.00    +0.140 A 
ATOM      3  N   UNL     1       5.831  -1.107   0.062  0.00  0.00    -0.230 NA
ATOM      4  C   UNL     1       5.213  -2.264   0.126  0.00  0.00    +0.170 A 
ATOM      5  N   UNL     1       3.879  -2.056  -0.047  0.00  0.00    -0.314 N 
ENDROOT
BRANCH   1   9
ATOM      6  C   UNL     1       0.029   1.326  -0.896  0.00  0.00    +0.000 A 
ATOM      7  C   UNL     1       1.191   1.799  -1.481  0.00  0.00    +0.001 A 
ATOM      8  C   UNL     1       2.388   1.147  -1.270  0.00  0.00    +0.010 A 
ATOM      9  C   UNL     1       2.426   0.008  -0.463  0.00  0.00    +0.000 A 
ATOM     10  C   UNL     1       1.251  -0.463   0.124  0.00  0.00    +0.010 A 
ATOM     11  C   UNL     1       0.060   0.198  -0.096  0.00  0.00    +0.001 A 
ENDBRANCH   1   9
BRANCH   5  12
ATOM     12  C   UNL     1       2.828  -3.077  -0.042  0.00  0.00    +0.159 C 
BRANCH  12  13
ATOM     13  C   UNL     1       2.539  -3.509  -1.457  0.00  0.00    -0.028 A 
ATOM     14  C   UNL     1       1.579  -2.847  -2.199  0.00  0.00    +0.007 A 
ATOM     15  C   UNL     1       1.314  -3.242  -3.496  0.00  0.00    +0.020 A 
ATOM     16  C   UNL     1       2.010  -4.300  -4.053  0.00  0.00    +0.041 A 
ATOM     17  C   UNL     1       2.971  -4.962  -3.310  0.00  0.00    +0.020 A 
ATOM     18  C   UNL     1       3.240  -4.562  -2.014  0.00  0.00    +0.007 A 
ATOM     19 CL   UNL     1       1.677  -4.798  -5.682  0.00  0.00    -0.084 Cl
ENDBRANCH  12  13
ENDBRANCH   5  12
BRANCH   4  20
ATOM     20  S   UNL     1       5.982  -3.826   0.397  0.00  0.00    -0.083 S 
BRANCH  20  21
ATOM     21  C   UNL     1       7.744  -3.426   0.555  0.00  0.00    +0.113 C 
BRANCH  21  22
ATOM     22  C   UNL     1       8.527  -4.691   0.794  0.00  0.00    -0.023 A 
ATOM     23  C   UNL     1       8.740  -5.131   2.099  0.00  0.00    +0.006 A 
ATOM     24  C   UNL     1       9.443  -6.269   2.350  0.00  0.00    +0.009 A 
ATOM     25  C   UNL     1       9.963  -7.016   1.278  0.00  0.00    -0.017 A 
ATOM     26  C   UNL     1      10.693  -8.196   1.498  0.00  0.00    +0.008 A 
ATOM     27  C   UNL     1      11.181  -8.893   0.436  0.00  0.00    +0.001 A 
ATOM     28  C   UNL     1      10.969  -8.454  -0.869  0.00  0.00    +0.001 A 
ATOM     29  C   UNL     1      10.268  -7.315  -1.120  0.00  0.00    +0.009 A 
ATOM     30  C   UNL     1       9.747  -6.569  -0.049  0.00  0.00    -0.004 A 
ATOM     31  C   UNL     1       9.012  -5.391  -0.269  0.00  0.00    +0.030 A 
ATOM     32 BR   UNL     1       8.704  -4.778  -2.031  0.00  0.00    -0.049 Br
ENDBRANCH  21  22
ENDBRANCH  20  21
ENDBRANCH   4  20
TORSDOF 6
