REMARK  Name = ZINC37216332
REMARK  6 active torsions:
REMARK  status: ('A' for Active; 'I' for Inactive)
REMARK    1  A    between atoms: C_1  and  C_2
REMARK    2  A    between atoms: C_7  and  N_8
REMARK    3  A    between atoms: N_8  and  C_9
REMARK    4  A    between atoms: C_9  and  C_10
REMARK    5  A    between atoms: C_11  and  C_19
REMARK    6  A    between atoms: C_15  and  C_18
REMARK                            x       y       z     vdW  Elec       q    Type
REMARK                         _______ _______ _______ _____ _____    ______ ____
ROOT
ATOM      1  C   UNL     1       0.047  -0.758   3.678  0.00  0.00    +0.157 C 
ENDROOT
BRANCH   1   2
ATOM      2  C   UNL     1       0.045   0.213   4.831  0.00  0.00    +0.064 A 
ATOM      3  C   UNL     1       1.128   0.742   5.423  0.00  0.00    +0.062 A 
ATOM      4  N   UNL     1       0.718   1.558   6.406  0.00  0.00    -0.226 NA
ATOM      5  C   UNL     1      -0.584   1.553   6.443  0.00  0.00    +0.178 A 
ATOM      6  N   UNL     1      -1.081   0.727   5.470  0.00  0.00    -0.293 N 
ATOM      7  C   UNL     1      -2.452   0.621   5.380  0.00  0.00    +0.029 A 
ATOM      8  C   UNL     1      -3.243   1.301   6.208  0.00  0.00    +0.070 A 
ATOM      9  S   UNL     1      -2.057   2.168   7.224  0.00  0.00    -0.057 S 
ATOM     10  C   UNL     1      -3.063  -0.274   4.333  0.00  0.00    +0.064 C 
ATOM     11  C   UNL     1       2.561   0.467   5.047  0.00  0.00    +0.067 C 
ENDBRANCH   1   2
BRANCH   1  12
ATOM     12  N   UNL     1       0.025  -0.016   2.415  0.00  0.00    -0.338 N 
ATOM     13  H   UNL     1       0.012   0.954   2.422  0.00  0.00    +0.146 HD
BRANCH  12  20
ATOM     14  C   UNL     1      -0.018   1.503   0.010  0.00  0.00    +0.045 C 
ATOM     15  C   UNL     1       0.002  -0.004   0.002  0.00  0.00    -0.030 A 
ATOM     16  C   UNL     1       0.006  -0.689  -1.198  0.00  0.00    +0.005 A 
ATOM     17  C   UNL     1       0.024  -2.071  -1.206  0.00  0.00    +0.000 A 
ATOM     18  C   UNL     1       0.039  -2.773  -0.014  0.00  0.00    +0.002 A 
ATOM     19  C   UNL     1       0.036  -2.095   1.188  0.00  0.00    +0.023 A 
ATOM     20  C   UNL     1       0.023  -0.706   1.200  0.00  0.00    +0.030 A 
ENDBRANCH  12  20
ENDBRANCH   1  12
TORSDOF 3
