REMARK  Name = ZINC59459471
REMARK  2 active torsions:
REMARK  status: ('A' for Active; 'I' for Inactive)
REMARK    1  A    between atoms: C_4  and  N_7
REMARK    2  A    between atoms: C_16  and  C_19
REMARK                            x       y       z     vdW  Elec       q    Type
REMARK                         _______ _______ _______ _____ _____    ______ ____
ROOT
ATOM      1  N   UNL     1       3.549  -0.635  -0.029  0.00  0.00    -0.285 N 
ATOM      2  C   UNL     1       3.599  -1.983   0.057  0.00  0.00    +0.125 A 
ATOM      3  C   UNL     1       4.873  -2.519   0.023  0.00  0.00    +0.115 A 
ATOM      4  S   UNL     1       5.901  -1.093  -0.118  0.00  0.00    -0.055 S 
ATOM      5  C   UNL     1       4.691   0.079  -0.139  0.00  0.00    +0.132 A 
ATOM      6  S   UNL     1       4.866   1.777  -0.266  0.00  0.00    -0.024 S 
ATOM      7  C   UNL     1       5.154  -3.884   0.087  0.00  0.00    +0.256 C 
ATOM      8  O   UNL     1       6.296  -4.296   0.183  0.00  0.00    -0.269 OA
ATOM      9  N   UNL     1       4.093  -4.730   0.038  0.00  0.00    -0.289 N 
ATOM     10  C   UNL     1       2.755  -4.247  -0.298  0.00  0.00    +0.192 C 
ATOM     11  N   UNL     1       2.534  -2.876   0.181  0.00  0.00    -0.307 N 
ATOM     12  H   UNL     1       4.226  -5.672   0.230  0.00  0.00    +0.151 HD
ATOM     13  H   UNL     1       1.686  -2.604   0.566  0.00  0.00    +0.150 HD
ENDROOT
BRANCH  10  14
ATOM     14  C   UNL     1       2.585  -4.276  -1.795  0.00  0.00    +0.006 A 
ATOM     15  C   UNL     1       3.154  -5.303  -2.546  0.00  0.00    -0.011 A 
ATOM     16  C   UNL     1       3.896  -6.332  -1.929  0.00  0.00    +0.009 A 
ATOM     17  C   UNL     1       4.436  -7.318  -2.690  0.00  0.00    +0.001 A 
ATOM     18  C   UNL     1       4.279  -7.344  -4.076  0.00  0.00    +0.001 A 
ATOM     19  C   UNL     1       3.577  -6.386  -4.733  0.00  0.00    +0.008 A 
ATOM     20  C   UNL     1       2.988  -5.331  -4.003  0.00  0.00    -0.017 A 
ATOM     21  C   UNL     1       2.261  -4.330  -4.646  0.00  0.00    +0.017 A 
ATOM     22  C   UNL     1       1.693  -3.303  -3.895  0.00  0.00    -0.017 A 
ATOM     23  C   UNL     1       1.853  -3.279  -2.437  0.00  0.00    -0.011 A 
ATOM     24  C   UNL     1       1.258  -2.227  -1.707  0.00  0.00    +0.009 A 
ATOM     25  C   UNL     1       0.551  -1.272  -2.364  0.00  0.00    +0.001 A 
ATOM     26  C   UNL     1       0.394  -1.298  -3.750  0.00  0.00    +0.001 A 
ATOM     27  C   UNL     1       0.951  -2.273  -4.513  0.00  0.00    +0.008 A 
ENDBRANCH  10  14
BRANCH   1  31
ATOM     28  C   UNL     1      -0.131   1.321   0.026  0.00  0.00    +0.000 A 
ATOM     29  C   UNL     1       0.209   0.460   1.054  0.00  0.00    +0.002 A 
ATOM     30  C   UNL     1       1.427  -0.189   1.038  0.00  0.00    +0.026 A 
ATOM     31  C   UNL     1       2.312   0.022  -0.011  0.00  0.00    +0.049 A 
ATOM     32  C   UNL     1       1.968   0.886  -1.042  0.00  0.00    +0.026 A 
ATOM     33  C   UNL     1       0.748   1.534  -1.020  0.00  0.00    +0.002 A 
ENDBRANCH   1  31
TORSDOF 2
