REMARK  Name = ZINC02856156
REMARK  6 active torsions:
REMARK  status: ('A' for Active; 'I' for Inactive)
REMARK    1  A    between atoms: C_3  and  N_10
REMARK    2  A    between atoms: C_5  and  N_7
REMARK    3  A    between atoms: N_10  and  C_11
REMARK    4  A    between atoms: C_11  and  N_13
REMARK    5  A    between atoms: N_17  and  C_19
REMARK    6  A    between atoms: C_19  and  C_20
REMARK                            x       y       z     vdW  Elec       q    Type
REMARK                         _______ _______ _______ _____ _____    ______ ____
ROOT
ATOM      1  N   UNL     1       1.061   7.274   0.229  0.00  0.00    -0.279 N 
ATOM      2  C   UNL     1       2.262   7.990   0.327  0.00  0.00    +0.160 A 
ATOM      3  C   UNL     1       2.383   9.385   0.438  0.00  0.00    +0.077 A 
ATOM      4  C   UNL     1       3.701   9.682   0.511  0.00  0.00    +0.126 A 
ATOM      5  N   UNL     1       4.391   8.524   0.439  0.00  0.00    -0.264 N 
ATOM      6  N   UNL     1       3.469   7.476   0.324  0.00  0.00    -0.154 NA
ATOM      7 BR   UNL     1       0.958  10.627   0.482  0.00  0.00    -0.045 Br
ATOM      8  H   UNL     1       0.213   7.744   0.239  0.00  0.00    +0.155 HD
ENDROOT
BRANCH   1   9
ATOM      9  C   UNL     1       1.085   5.930   0.122  0.00  0.00    +0.140 C 
ATOM     10  S   UNL     1       2.582   5.099   0.104  0.00  0.00    -0.018 S 
BRANCH   9  11
ATOM     11  N   UNL     1      -0.069   5.241   0.028  0.00  0.00    -0.297 N 
ATOM     12  H   UNL     1      -0.912   5.715  -0.043  0.00  0.00    +0.154 HD
BRANCH  11  15
ATOM     13  C   UNL     1       0.799   1.779   0.911  0.00  0.00    +0.004 A 
ATOM     14  C   UNL     1       0.784   3.160   0.909  0.00  0.00    +0.023 A 
ATOM     15  C   UNL     1      -0.051   3.842   0.033  0.00  0.00    +0.035 A 
ATOM     16  C   UNL     1      -0.868   3.133  -0.838  0.00  0.00    +0.056 A 
ATOM     17  C   UNL     1      -0.843   1.752  -0.835  0.00  0.00    +0.128 A 
ATOM     18  C   UNL     1      -0.014   1.076   0.042  0.00  0.00    +0.033 A 
BRANCH  17  19
ATOM     19  N   UNL     1      -1.708   0.995  -1.767  0.00  0.00    +0.056 N 
ATOM     20  O   UNL     1      -1.690  -0.223  -1.762  0.00  0.00    -0.126 OA
ATOM     21  O   UNL     1      -2.438   1.590  -2.540  0.00  0.00    -0.126 OA
ENDBRANCH  17  19
ENDBRANCH  11  15
ENDBRANCH   9  11
ENDBRANCH   1   9
BRANCH   5  22
ATOM     22  C   UNL     1       5.849   8.387   0.476  0.00  0.00    +0.178 C 
BRANCH  22  23
ATOM     23  C   UNL     1       6.237   7.437   1.579  0.00  0.00    -0.025 A 
ATOM     24  C   UNL     1       6.348   6.084   1.319  0.00  0.00    +0.007 A 
ATOM     25  C   UNL     1       6.704   5.211   2.330  0.00  0.00    +0.022 A 
ATOM     26  C   UNL     1       6.950   5.692   3.603  0.00  0.00    +0.059 A 
ATOM     27  C   UNL     1       6.839   7.047   3.864  0.00  0.00    +0.060 A 
ATOM     28  C   UNL     1       6.488   7.920   2.850  0.00  0.00    +0.027 A 
ATOM     29 CL   UNL     1       7.147   7.652   5.462  0.00  0.00    -0.082 Cl
ATOM     30 CL   UNL     1       7.397   4.597   4.874  0.00  0.00    -0.082 Cl
ENDBRANCH  22  23
ENDBRANCH   5  22
TORSDOF 6
