REMARK  Name = ZINC28057722
REMARK  2 active torsions:
REMARK  status: ('A' for Active; 'I' for Inactive)
REMARK    1  A    between atoms: C_5  and  C_7
REMARK    2  A    between atoms: C_18  and  C_20
REMARK                            x       y       z     vdW  Elec       q    Type
REMARK                         _______ _______ _______ _____ _____    ______ ____
ROOT
ATOM      1  C   UNL     1       1.575  -2.386  -0.025  0.00  0.00    +0.177 C 
ATOM      2  C   UNL     1       2.111  -2.747  -1.389  0.00  0.00    +0.026 C 
ATOM      3  C   UNL     1       3.339  -3.238  -1.567  0.00  0.00    +0.050 C 
ATOM      4  C   UNL     1       3.787  -3.534  -2.948  0.00  0.00    +0.039 A 
ATOM      5  C   UNL     1       4.895  -4.335  -3.196  0.00  0.00    +0.033 A 
ATOM      6  C   UNL     1       5.278  -4.584  -4.501  0.00  0.00    +0.042 A 
ATOM      7  C   UNL     1       4.564  -4.039  -5.555  0.00  0.00    +0.023 A 
ATOM      8  C   UNL     1       3.460  -3.240  -5.316  0.00  0.00    +0.048 A 
ATOM      9  C   UNL     1       3.066  -2.984  -4.016  0.00  0.00    +0.131 A 
ATOM     10  O   UNL     1       1.986  -2.209  -3.741  0.00  0.00    -0.479 OA
ATOM     11  C   UNL     1       1.214  -2.553  -2.591  0.00  0.00    +0.234 C 
ATOM     12 CL   UNL     1       6.660  -5.585  -4.820  0.00  0.00    -0.084 Cl
ATOM     13  N   UNL     1       4.212  -3.472  -0.498  0.00  0.00    -0.282 N 
ATOM     14  C   UNL     1       3.678  -3.434   0.779  0.00  0.00    +0.240 A 
ATOM     15  N   UNL     1       2.440  -2.931   1.011  0.00  0.00    -0.201 N 
ATOM     16  N   UNL     1       2.241  -3.063   2.384  0.00  0.00    -0.042 NA
ATOM     17  N   UNL     1       3.317  -3.601   2.862  0.00  0.00    -0.021 NA
ATOM     18  N   UNL     1       4.163  -3.820   1.925  0.00  0.00    -0.092 NA
ATOM     19  H   UNL     1       5.276  -3.676  -0.692  0.00  0.00    +0.155 HD
ENDROOT
BRANCH   1  24
ATOM     20  C   UNL     1       2.626   1.237   0.123  0.00  0.00    +0.001 A 
ATOM     21  C   UNL     1       1.417   1.867   0.354  0.00  0.00    +0.003 A 
ATOM     22  C   UNL     1       0.259   1.122   0.463  0.00  0.00    +0.039 A 
ATOM     23  C   UNL     1       0.308  -0.256   0.340  0.00  0.00    +0.129 A 
ATOM     24  C   UNL     1       1.519  -0.886   0.108  0.00  0.00    +0.017 A 
ATOM     25  C   UNL     1       2.677  -0.139  -0.000  0.00  0.00    +0.009 A 
ATOM     26  F   UNL     1      -0.824  -0.985   0.446  0.00  0.00    -0.205 F 
ENDBRANCH   1  24
BRANCH  11  27
ATOM     27  C   UNL     1       0.462  -3.831  -2.861  0.00  0.00    -0.002 A 
ATOM     28  C   UNL     1       1.105  -4.899  -3.459  0.00  0.00    +0.007 A 
ATOM     29  C   UNL     1       0.417  -6.072  -3.703  0.00  0.00    +0.002 A 
ATOM     30  C   UNL     1      -0.918  -6.175  -3.359  0.00  0.00    +0.020 A 
ATOM     31  C   UNL     1      -1.563  -5.105  -2.766  0.00  0.00    +0.041 A 
ATOM     32  C   UNL     1      -0.873  -3.933  -2.517  0.00  0.00    +0.027 A 
ATOM     33 CL   UNL     1      -3.240  -5.234  -2.334  0.00  0.00    -0.084 Cl
ENDBRANCH  11  27
TORSDOF 2
