REMARK  Name = ZINC40568847
REMARK  8 active torsions:
REMARK  status: ('A' for Active; 'I' for Inactive)
REMARK    1  A    between atoms: C_1  and  C_2
REMARK    2  A    between atoms: C_2  and  O_3
REMARK    3  A    between atoms: O_3  and  C_4
REMARK    4  A    between atoms: C_4  and  C_6
REMARK    5  A    between atoms: C_7  and  N_33
REMARK    6  A    between atoms: C_11  and  C_15
REMARK    7  A    between atoms: N_23  and  C_26
REMARK    8  A    between atoms: C_26  and  C_27
REMARK                            x       y       z     vdW  Elec       q    Type
REMARK                         _______ _______ _______ _____ _____    ______ ____
ROOT
ATOM      1  C   UNL     1      -2.875  -2.160  -0.032  0.00  0.00    +0.117 C 
ATOM      2  C   UNL     1      -3.018  -3.510  -0.010  0.00  0.00    +0.198 C 
ATOM      3  O   UNL     1      -4.212  -4.134   0.014  0.00  0.00    -0.424 OA
ATOM      4  C   UNL     1      -5.319  -3.399  -0.254  0.00  0.00    +0.223 A 
ATOM      5  C   UNL     1      -5.306  -2.031  -0.289  0.00  0.00    +0.061 A 
ATOM      6  C   UNL     1      -6.590  -1.597  -0.589  0.00  0.00    +0.068 A 
ATOM      7  N   UNL     1      -7.355  -2.653  -0.732  0.00  0.00    -0.176 NA
ATOM      8  N   UNL     1      -6.572  -3.799  -0.524  0.00  0.00    -0.246 N 
ATOM      9  H   UNL     1      -6.881  -4.718  -0.569  0.00  0.00    +0.192 HD
ATOM     10  C   UNL     1      -7.029  -0.162  -0.727  0.00  0.00    +0.068 C 
ATOM     11  C   UNL     1      -4.059  -1.233  -0.025  0.00  0.00    +0.142 C 
ATOM     12  C   UNL     1      -4.152  -0.480   1.263  0.00  0.00    -0.002 A 
ATOM     13  C   UNL     1      -4.307  -0.907   2.564  0.00  0.00    +0.007 A 
ATOM     14  C   UNL     1      -4.358   0.074   3.549  0.00  0.00    +0.000 A 
ATOM     15  C   UNL     1      -4.257   1.414   3.234  0.00  0.00    +0.002 A 
ATOM     16  C   UNL     1      -4.099   1.851   1.928  0.00  0.00    +0.024 A 
ATOM     17  C   UNL     1      -4.047   0.877   0.930  0.00  0.00    +0.041 A 
ATOM     18  N   UNL     1      -3.897   1.027  -0.437  0.00  0.00    -0.265 N 
ATOM     19  C   UNL     1      -3.892  -0.161  -1.079  0.00  0.00    +0.240 C 
ATOM     20  O   UNL     1      -3.776  -0.335  -2.273  0.00  0.00    -0.274 OA
ENDROOT
BRANCH   2  21
ATOM     21  N   UNL     1      -1.886  -4.280  -0.012  0.00  0.00    -0.329 N 
ATOM     22  H   UNL     1      -1.014  -3.860   0.052  0.00  0.00    +0.145 HD
ATOM     23  H   UNL     1      -1.956  -5.245  -0.077  0.00  0.00    +0.145 HD
ENDBRANCH   2  21
BRANCH   1  24
ATOM     24  C   UNL     1      -1.584  -1.614  -0.057  0.00  0.00    +0.342 C 
ATOM     25  O   UNL     1      -1.106  -1.133   0.955  0.00  0.00    -0.245 OA
BRANCH  24  26
ATOM     26  O   UNL     1      -0.870  -1.621  -1.204  0.00  0.00    -0.462 OA
BRANCH  26  28
ATOM     27  C   UNL     1       1.087  -1.129  -2.534  0.00  0.00    +0.048 C 
ATOM     28  C   UNL     1       0.480  -1.156  -1.130  0.00  0.00    +0.229 C 
ENDBRANCH  26  28
ENDBRANCH  24  26
ENDBRANCH   1  24
BRANCH  18  29
ATOM     29  C   UNL     1      -3.759   2.321  -1.109  0.00  0.00    +0.148 C 
BRANCH  29  30
ATOM     30  C   UNL     1      -2.298   2.632  -1.307  0.00  0.00    -0.030 A 
ATOM     31  C   UNL     1      -1.574   3.227  -0.291  0.00  0.00    +0.005 A 
ATOM     32  C   UNL     1      -0.234   3.511  -0.472  0.00  0.00    +0.000 A 
ATOM     33  C   UNL     1       0.383   3.201  -1.670  0.00  0.00    +0.000 A 
ATOM     34  C   UNL     1      -0.341   2.605  -2.686  0.00  0.00    +0.000 A 
ATOM     35  C   UNL     1      -1.681   2.316  -2.503  0.00  0.00    +0.005 A 
ENDBRANCH  29  30
ENDBRANCH  18  29
TORSDOF 6
