REMARK  Name = ZINC05063685
REMARK  6 active torsions:
REMARK  status: ('A' for Active; 'I' for Inactive)
REMARK    1  A    between atoms: C_1  and  C_2
REMARK    2  A    between atoms: C_9  and  N_13
REMARK    3  A    between atoms: C_10  and  C_11
REMARK    4  A    between atoms: N_13  and  C_14
REMARK    5  A    between atoms: C_14  and  N_16
REMARK    6  A    between atoms: C_17  and  C_19
REMARK                            x       y       z     vdW  Elec       q    Type
REMARK                         _______ _______ _______ _____ _____    ______ ____
ROOT
ATOM      1  C   UNL     1       2.229  -6.108  -3.022  0.00  0.00    +0.141 C 
ATOM      2  S   UNL     1       2.189  -4.850  -4.183  0.00  0.00    -0.018 S 
ENDROOT
BRANCH   1   3
ATOM      3  N   UNL     1       2.558  -7.360  -3.397  0.00  0.00    -0.264 N 
ATOM      4  C   UNL     1       2.856  -7.622  -4.685  0.00  0.00    +0.250 C 
ATOM      5  O   UNL     1       2.828  -6.729  -5.509  0.00  0.00    -0.270 OA
ATOM      6  H   UNL     1       2.581  -8.073  -2.739  0.00  0.00    +0.157 HD
BRANCH   4   7
ATOM      7  C   UNL     1       3.216  -8.993  -5.094  0.00  0.00    +0.041 A 
ATOM      8  C   UNL     1       3.249 -10.021  -4.148  0.00  0.00    +0.017 A 
ATOM      9  C   UNL     1       3.586 -11.300  -4.533  0.00  0.00    +0.050 A 
ATOM     10  C   UNL     1       3.894 -11.573  -5.859  0.00  0.00    +0.166 A 
ATOM     11  C   UNL     1       3.862 -10.551  -6.809  0.00  0.00    +0.167 A 
ATOM     12  C   UNL     1       3.520  -9.268  -6.431  0.00  0.00    +0.062 A 
ATOM     13  O   UNL     1       4.200 -11.075  -8.024  0.00  0.00    -0.453 OA
ATOM     14  C   UNL     1       4.039 -12.499  -7.885  0.00  0.00    +0.466 C 
ATOM     15  O   UNL     1       4.251 -12.733  -6.481  0.00  0.00    -0.453 OA
ENDBRANCH   4   7
ENDBRANCH   1   3
BRANCH   1  16
ATOM     16  N   UNL     1       1.931  -5.846  -1.734  0.00  0.00    -0.290 N 
ATOM     17  H   UNL     1       1.954  -6.559  -1.077  0.00  0.00    +0.154 HD
BRANCH  16  25
ATOM     18  C   UNL     1      -0.019   1.526   0.010  0.00  0.00    +0.008 C 
ATOM     19  C   UNL     1       0.002  -0.004   0.002  0.00  0.00    -0.009 C 
ATOM     20  C   UNL     1       0.742  -0.514   1.242  0.00  0.00    +0.008 C 
ATOM     21  C   UNL     1       0.556  -2.027   1.373  0.00  0.00    +0.037 C 
ATOM     22  C   UNL     1       0.941  -2.684   0.053  0.00  0.00    -0.018 A 
ATOM     23  C   UNL     1       1.008  -1.965  -1.089  0.00  0.00    -0.004 A 
ATOM     24  S   UNL     1       1.485  -3.134  -2.331  0.00  0.00    -0.077 S 
ATOM     25  C   UNL     1       1.593  -4.557  -1.349  0.00  0.00    +0.089 A 
ATOM     26  C   UNL     1       1.258  -4.095  -0.085  0.00  0.00    +0.084 A 
ATOM     27  C   UNL     1       0.736  -0.502  -1.252  0.00  0.00    +0.046 C 
BRANCH  26  28
ATOM     28  C   UNL     1       1.226  -4.977   1.043  0.00  0.00    +0.102 C 
ATOM     29  N   UNL     1       1.201  -5.677   1.938  0.00  0.00    -0.191 NA
ENDBRANCH  26  28
ENDBRANCH  16  25
ENDBRANCH   1  16
TORSDOF 5
