REMARK  Name = ZINC49430743
REMARK  3 active torsions:
REMARK  status: ('A' for Active; 'I' for Inactive)
REMARK    1  A    between atoms: C_9  and  C_11
REMARK    2  A    between atoms: C_16  and  O_19
REMARK    3  A    between atoms: O_19  and  C_20
REMARK                            x       y       z     vdW  Elec       q    Type
REMARK                         _______ _______ _______ _____ _____    ______ ____
ROOT
ATOM      1  C   UNL     1       5.006  -2.551  -0.060  0.00  0.00    +0.265 C 
ATOM      2  O   UNL     1       3.925  -2.010  -0.192  0.00  0.00    -0.268 OA
ATOM      3  N   UNL     1       6.125  -1.806   0.035  0.00  0.00    -0.296 N 
ATOM      4  C   UNL     1       6.043  -0.344   0.160  0.00  0.00    +0.112 C 
ATOM      5  C   UNL     1       6.905   0.294  -0.933  0.00  0.00    +0.063 C 
ATOM      6  C   UNL     1       8.327  -0.265  -0.847  0.00  0.00    +0.179 C 
ATOM      7  C   UNL     1       8.297  -1.778  -1.077  0.00  0.00    +0.063 C 
ATOM      8  C   UNL     1       7.450  -2.440   0.020  0.00  0.00    +0.112 C 
ENDROOT
BRANCH   1  17
ATOM      9  C   UNL     1       6.589  -8.687   0.519  0.00  0.00    +0.001 A 
ATOM     10  C   UNL     1       7.683  -7.873   0.810  0.00  0.00    +0.002 A 
ATOM     11  C   UNL     1       7.585  -6.518   0.753  0.00  0.00    +0.028 A 
ATOM     12  C   UNL     1       6.360  -5.921   0.395  0.00  0.00    +0.072 A 
ATOM     13  C   UNL     1       5.249  -6.752   0.099  0.00  0.00    +0.000 A 
ATOM     14  C   UNL     1       5.389  -8.148   0.169  0.00  0.00    +0.010 A 
ATOM     15  C   UNL     1       4.024  -6.158  -0.259  0.00  0.00    +0.012 A 
ATOM     16  C   UNL     1       3.957  -4.795  -0.307  0.00  0.00    +0.033 A 
ATOM     17  C   UNL     1       5.093  -4.030  -0.003  0.00  0.00    +0.126 A 
ATOM     18  N   UNL     1       6.236  -4.596   0.331  0.00  0.00    -0.242 NA
ENDBRANCH   1  17
BRANCH   6  19
ATOM     19  O   UNL     1       9.143   0.352  -1.846  0.00  0.00    -0.468 OA
BRANCH  19  20
ATOM     20  C   UNL     1      10.459   0.488  -1.565  0.00  0.00    +0.258 A 
ATOM     21  N   UNL     1      11.113   0.123  -0.488  0.00  0.00    -0.206 NA
ATOM     22  C   UNL     1      12.441   0.324  -0.341  0.00  0.00    +0.082 A 
ATOM     23  C   UNL     1      13.260  -0.018   0.760  0.00  0.00    +0.029 A 
ATOM     24  C   UNL     1      14.602   0.259   0.747  0.00  0.00    +0.002 A 
ATOM     25  C   UNL     1      15.204   0.880  -0.337  0.00  0.00    +0.001 A 
ATOM     26  C   UNL     1      14.433   1.228  -1.431  0.00  0.00    +0.017 A 
ATOM     27  C   UNL     1      13.088   0.955  -1.428  0.00  0.00    +0.043 A 
ATOM     28  S   UNL     1      11.751   1.204  -2.571  0.00  0.00    -0.029 S 
ENDBRANCH  19  20
ENDBRANCH   6  19
TORSDOF 3
