REMARK  Name = ZINC09044138
REMARK  17 active torsions:
REMARK  status: ('A' for Active; 'I' for Inactive)
REMARK    1  A    between atoms: C_1  and  C_2
REMARK    2  A    between atoms: C_2  and  N_71
REMARK    3  A    between atoms: C_3  and  C_4
REMARK    4  A    between atoms: C_3  and  N_71
REMARK    5  A    between atoms: C_5  and  C_6
REMARK    6  A    between atoms: C_5  and  N_71
REMARK    7  A    between atoms: C_6  and  C_7
REMARK    8  A    between atoms: C_7  and  N_8
REMARK    9  A    between atoms: C_9  and  C_28
REMARK   10  A    between atoms: C_12  and  C_13
REMARK   11  A    between atoms: C_12  and  O_23
REMARK   12  A    between atoms: C_16  and  O_20
REMARK   13  A    between atoms: O_20  and  C_21
REMARK   14  A    between atoms: C_21  and  C_22
REMARK   15  A    between atoms: C_31  and  O_34
REMARK   16  A    between atoms: O_34  and  C_35
REMARK   17  A    between atoms: C_35  and  C_36
REMARK                            x       y       z     vdW  Elec       q    Type
REMARK                         _______ _______ _______ _____ _____    ______ ____
ROOT
ATOM      1  N   UNL     1      -1.143   2.130  -0.774  0.00  0.00    -0.284 N 
ATOM      2  C   UNL     1      -0.830   3.524  -0.447  0.00  0.00    +0.144 C 
ATOM      3  C   UNL     1       0.677   3.640  -0.448  0.00  0.00    +0.071 C 
ATOM      4  C   UNL     1       1.422   4.776  -0.196  0.00  0.00    +0.133 C 
ATOM      5  C   UNL     1       1.167   2.362  -0.757  0.00  0.00    +0.249 C 
ATOM      6  O   UNL     1       2.340   2.051  -0.852  0.00  0.00    -0.282 OA
ATOM      7  C   UNL     1       0.004   1.453  -0.949  0.00  0.00    +0.288 C 
ATOM      8  O   UNL     1       0.082   0.274  -1.227  0.00  0.00    -0.266 OA
ENDROOT
BRANCH   4   9
ATOM      9  C   UNL     1       2.888   4.692  -0.124  0.00  0.00    +0.019 A 
ATOM     10  C   UNL     1       3.498   3.707   0.662  0.00  0.00    +0.015 A 
ATOM     11  C   UNL     1       4.871   3.630   0.722  0.00  0.00    +0.048 A 
ATOM     12  C   UNL     1       5.653   4.535   0.013  0.00  0.00    +0.139 A 
ATOM     13  C   UNL     1       5.052   5.519  -0.766  0.00  0.00    +0.083 A 
ATOM     14  C   UNL     1       3.679   5.602  -0.837  0.00  0.00    +0.035 A 
ATOM     15 CL   UNL     1       6.035   6.646  -1.649  0.00  0.00    -0.080 Cl
BRANCH  12  16
ATOM     16  O   UNL     1       7.006   4.457   0.080  0.00  0.00    -0.491 OA
BRANCH  16  17
ATOM     17  C   UNL     1       7.557   3.423   0.897  0.00  0.00    +0.226 C 
ATOM     18  C   UNL     1       9.085   3.494   0.848  0.00  0.00    +0.048 C 
ENDBRANCH  16  17
ENDBRANCH  12  16
ENDBRANCH   4   9
BRANCH   2  19
ATOM     19  C   UNL     1      -1.419   4.439  -1.489  0.00  0.00    -0.022 A 
ATOM     20  C   UNL     1      -1.399   4.071  -2.822  0.00  0.00    +0.009 A 
ATOM     21  C   UNL     1      -1.943   4.906  -3.779  0.00  0.00    +0.046 A 
ATOM     22  C   UNL     1      -2.499   6.120  -3.403  0.00  0.00    +0.121 A 
ATOM     23  C   UNL     1      -2.513   6.489  -2.066  0.00  0.00    +0.046 A 
ATOM     24  C   UNL     1      -1.973   5.648  -1.112  0.00  0.00    +0.009 A 
BRANCH  22  25
ATOM     25  O   UNL     1      -3.030   6.946  -4.343  0.00  0.00    -0.492 OA
BRANCH  25  26
ATOM     26  C   UNL     1      -2.981   6.500  -5.700  0.00  0.00    +0.225 C 
ATOM     27  C   UNL     1      -3.620   7.555  -6.606  0.00  0.00    +0.048 C 
ENDBRANCH  25  26
ENDBRANCH  22  25
ENDBRANCH   2  19
BRANCH   4  28
ATOM     28  O   UNL     1       0.803   5.962  -0.015  0.00  0.00    -0.506 OA
ATOM     29  H   UNL     1       1.487   6.672   0.155  0.00  0.00    +0.292 HD
ENDBRANCH   4  28
BRANCH   1  30
ATOM     30  C   UNL     1      -2.490   1.564  -0.889  0.00  0.00    +0.107 C 
BRANCH  30  31
ATOM     31  C   UNL     1      -2.941   1.038   0.475  0.00  0.00    +0.000 C 
BRANCH  31  32
ATOM     32  C   UNL     1      -4.347   0.448   0.355  0.00  0.00    -0.077 C 
BRANCH  32  33
ATOM     33  N   UNL     1      -4.759  -0.075   1.675  0.00  0.00    +0.379 N 
ATOM     34  H   UNL     1      -4.025  -0.698   2.030  0.00  0.00    -0.082 HD
BRANCH  33  36
ATOM     35  C   UNL     1      -6.062   1.971   2.151  0.00  0.00    -0.017 C 
ATOM     36  C   UNL     1      -4.943   1.042   2.625  0.00  0.00    -0.082 C 
ENDBRANCH  33  36
BRANCH  33  37
ATOM     37  C   UNL     1      -6.017  -0.840   1.545  0.00  0.00    -0.082 C 
ATOM     38  C   UNL     1      -6.231  -1.655   2.821  0.00  0.00    -0.017 C 
ENDBRANCH  33  37
ENDBRANCH  32  33
ENDBRANCH  31  32
ENDBRANCH  30  31
ENDBRANCH   1  30
TORSDOF 13
