REMARK  Name = ZINC01130472
REMARK  1 active torsions:
REMARK  status: ('A' for Active; 'I' for Inactive)
REMARK    1  A    between atoms: C_10  and  C_19
REMARK                            x       y       z     vdW  Elec       q    Type
REMARK                         _______ _______ _______ _____ _____    ______ ____
ROOT
ATOM      1  C   UNL     1       7.287   3.765   0.534  0.00  0.00    +0.020 A 
ATOM      2  C   UNL     1       6.094   3.099   0.595  0.00  0.00    +0.013 A 
ATOM      3  C   UNL     1       4.918   3.820   0.329  0.00  0.00    +0.022 A 
ATOM      4  C   UNL     1       5.010   5.197   0.010  0.00  0.00    +0.073 A 
ATOM      5  C   UNL     1       3.836   5.931  -0.260  0.00  0.00    +0.029 A 
ATOM      6  C   UNL     1       2.625   5.322  -0.234  0.00  0.00    +0.012 A 
ATOM      7  C   UNL     1       2.514   3.951   0.062  0.00  0.00    +0.000 A 
ATOM      8  C   UNL     1       3.653   3.196   0.372  0.00  0.00    +0.045 A 
ATOM      9  N   UNL     1       3.534   1.868   0.713  0.00  0.00    -0.332 N 
ATOM     10  C   UNL     1       2.503   1.169  -0.056  0.00  0.00    +0.135 C 
ATOM     11  C   UNL     1       1.195   1.919   0.001  0.00  0.00    +0.023 C 
ATOM     12  C   UNL     1       1.214   3.278   0.023  0.00  0.00    -0.030 C 
ATOM     13  C   UNL     1      -0.059   4.076   0.012  0.00  0.00    +0.036 C 
ATOM     14  C   UNL     1      -1.162   3.287   0.725  0.00  0.00    +0.012 C 
ATOM     15  C   UNL     1      -1.334   1.936   0.019  0.00  0.00    +0.080 C 
ATOM     16  C   UNL     1      -0.014   1.211   0.009  0.00  0.00    +0.162 C 
ATOM     17  O   UNL     1       0.002  -0.004   0.002  0.00  0.00    -0.292 OA
ATOM     18  N   UNL     1       6.207   5.788  -0.031  0.00  0.00    -0.255 NA
ATOM     19  C   UNL     1       7.309   5.119   0.216  0.00  0.00    +0.111 A 
ATOM     20  H   UNL     1       3.381   1.762   1.704  0.00  0.00    +0.147 HD
ENDROOT
BRANCH  10  21
ATOM     21  C   UNL     1       2.309  -0.212   0.516  0.00  0.00    -0.019 A 
ATOM     22  C   UNL     1       2.304  -0.397   1.886  0.00  0.00    +0.009 A 
ATOM     23  C   UNL     1       2.122  -1.661   2.415  0.00  0.00    +0.050 A 
ATOM     24  C   UNL     1       1.953  -2.747   1.572  0.00  0.00    +0.166 A 
ATOM     25  C   UNL     1       1.964  -2.562   0.192  0.00  0.00    +0.167 A 
ATOM     26  C   UNL     1       2.142  -1.291  -0.331  0.00  0.00    +0.055 A 
ATOM     27  O   UNL     1       1.782  -3.772  -0.412  0.00  0.00    -0.453 OA
ATOM     28  C   UNL     1       1.252  -4.636   0.610  0.00  0.00    +0.466 C 
ATOM     29  O   UNL     1       1.764  -4.074   1.832  0.00  0.00    -0.453 OA
ENDBRANCH  10  21
TORSDOF 1
