REMARK  Name = ZINC32608321
REMARK  5 active torsions:
REMARK  status: ('A' for Active; 'I' for Inactive)
REMARK    1  A    between atoms: C_1  and  C_2
REMARK    2  A    between atoms: C_2  and  C_3
REMARK    3  A    between atoms: C_6  and  C_20
REMARK    4  A    between atoms: C_12  and  C_15
REMARK    5  A    between atoms: C_13  and  O_14
REMARK                            x       y       z     vdW  Elec       q    Type
REMARK                         _______ _______ _______ _____ _____    ______ ____
ROOT
ATOM      1  C   UNL     1       0.731  -0.503   1.223  0.00  0.00    -0.005 A 
ATOM      2  C   UNL     1       2.072  -0.805   1.143  0.00  0.00    +0.019 A 
ATOM      3  C   UNL     1       2.755  -1.269   2.271  0.00  0.00    +0.026 A 
ATOM      4  C   UNL     1       4.190  -1.597   2.204  0.00  0.00    -0.000 A 
ATOM      5  C   UNL     1       4.803  -2.050   3.357  0.00  0.00    +0.101 A 
ATOM      6  C   UNL     1       4.050  -2.180   4.535  0.00  0.00    +0.338 A 
ATOM      7  O   UNL     1       4.598  -2.580   5.548  0.00  0.00    -0.245 OA
ATOM      8  O   UNL     1       2.743  -1.876   4.576  0.00  0.00    -0.421 OA
ATOM      9  C   UNL     1       2.081  -1.429   3.490  0.00  0.00    +0.152 A 
ATOM     10  C   UNL     1       0.713  -1.119   3.566  0.00  0.00    +0.083 A 
ATOM     11  C   UNL     1       0.046  -0.650   2.424  0.00  0.00    +0.132 A 
ENDROOT
BRANCH   4  12
ATOM     12  C   UNL     1       4.949  -1.447   0.943  0.00  0.00    -0.017 A 
ATOM     13  C   UNL     1       5.140  -0.182   0.386  0.00  0.00    +0.008 A 
ATOM     14  C   UNL     1       5.848  -0.049  -0.790  0.00  0.00    +0.001 A 
ATOM     15  C   UNL     1       6.370  -1.167  -1.417  0.00  0.00    +0.000 A 
ATOM     16  C   UNL     1       6.184  -2.424  -0.870  0.00  0.00    +0.001 A 
ATOM     17  C   UNL     1       5.482  -2.570   0.308  0.00  0.00    +0.008 A 
ENDBRANCH   4  12
BRANCH  10  18
ATOM     18  C   UNL     1      -0.012  -1.280   4.831  0.00  0.00    +0.083 C 
ATOM     19  N   UNL     1      -0.170  -0.383   5.768  0.00  0.00    -0.153 NA
ATOM     20  N   UNL     1      -0.914  -0.869   6.838  0.00  0.00    -0.161 NA
ATOM     21  C   UNL     1      -1.284  -2.096   6.668  0.00  0.00    +0.114 C 
ATOM     22  C   UNL     1      -0.739  -2.518   5.318  0.00  0.00    +0.107 C 
ENDBRANCH  10  18
BRANCH   1  24
ATOM     23  C   UNL     1      -0.019   1.526   0.010  0.00  0.00    +0.009 C 
ATOM     24  C   UNL     1       0.002  -0.004   0.002  0.00  0.00    +0.035 C 
ENDBRANCH   1  24
BRANCH  11  25
ATOM     25  O   UNL     1      -1.273  -0.344   2.490  0.00  0.00    -0.506 OA
ATOM     26  H   UNL     1      -1.859  -1.087   2.291  0.00  0.00    +0.292 HD
ENDBRANCH  11  25
TORSDOF 4
