REMARK  Name = ZINC36585259
REMARK  9 active torsions:
REMARK  status: ('A' for Active; 'I' for Inactive)
REMARK    1  A    between atoms: C_1  and  C_2
REMARK    2  A    between atoms: C_2  and  C_3
REMARK    3  A    between atoms: C_2  and  C_4
REMARK    4  A    between atoms: C_4  and  C_5
REMARK    5  A    between atoms: C_5  and  C_7
REMARK    6  A    between atoms: C_5  and  N_11
REMARK    7  A    between atoms: C_7  and  O_9
REMARK    8  A    between atoms: O_9  and  C_10
REMARK    9  A    between atoms: C_23  and  C_25
REMARK                            x       y       z     vdW  Elec       q    Type
REMARK                         _______ _______ _______ _____ _____    ______ ____
ROOT
ATOM      1  N   UNL     1       0.001  -4.528  -0.133  0.00  0.00    -0.286 N 
ATOM      2  C   UNL     1       0.145  -4.068   1.125  0.00  0.00    +0.304 C 
ATOM      3  O   UNL     1      -0.297  -2.977   1.428  0.00  0.00    -0.253 OA
ATOM      4  N   UNL     1       0.778  -4.819   2.048  0.00  0.00    -0.273 N 
ATOM      5  C   UNL     1       0.845  -4.388   3.453  0.00  0.00    +0.116 C 
ATOM      6  C   UNL     1       0.081  -5.395   4.323  0.00  0.00    +0.074 C 
ATOM      7  C   UNL     1       0.465  -6.789   3.903  0.00  0.00    +0.040 A 
ATOM      8  C   UNL     1       1.055  -7.107   2.731  0.00  0.00    +0.062 A 
ATOM      9  N   UNL     1       1.241  -8.428   2.704  0.00  0.00    -0.348 N 
ATOM     10  C   UNL     1       0.792  -8.946   3.817  0.00  0.00    +0.171 A 
ATOM     11  N   UNL     1       0.301  -7.952   4.593  0.00  0.00    -0.349 N 
ATOM     12  H   UNL     1      -0.095  -8.049   5.473  0.00  0.00    +0.166 HD
ATOM     13  C   UNL     1       1.416  -6.094   1.675  0.00  0.00    +0.159 C 
ATOM     14  H   UNL     1       0.414  -5.366  -0.394  0.00  0.00    +0.151 HD
ATOM     15  H   UNL     1       1.645  -8.925   1.975  0.00  0.00    +0.167 HD
ENDROOT
BRANCH  13  16
ATOM     16  C   UNL     1       2.913  -5.924   1.626  0.00  0.00    +0.017 A 
ATOM     17  C   UNL     1       3.700  -6.432   2.642  0.00  0.00    +0.047 A 
ATOM     18  C   UNL     1       5.075  -6.276   2.596  0.00  0.00    +0.124 A 
ATOM     19  C   UNL     1       5.661  -5.610   1.532  0.00  0.00    +0.041 A 
ATOM     20  C   UNL     1       4.874  -5.102   0.517  0.00  0.00    +0.041 A 
ATOM     21  C   UNL     1       3.499  -5.263   0.560  0.00  0.00    +0.129 A 
ATOM     22  F   UNL     1       2.730  -4.770  -0.435  0.00  0.00    -0.205 F 
ATOM     23  F   UNL     1       5.845  -6.773   3.589  0.00  0.00    -0.205 F 
ENDBRANCH  13  16
BRANCH   1  24
ATOM     24  C   UNL     1      -0.780  -3.762  -1.108  0.00  0.00    +0.183 C 
BRANCH  24  25
ATOM     25  C   UNL     1       0.098  -2.716  -1.744  0.00  0.00    +0.327 C 
ATOM     26  O   UNL     1       1.258  -2.620  -1.418  0.00  0.00    -0.249 OA
BRANCH  25  27
ATOM     27  O   UNL     1      -0.407  -1.890  -2.675  0.00  0.00    -0.467 OA
ATOM     28  C   UNL     1       0.482  -0.923  -3.236  0.00  0.00    +0.280 C 
ENDBRANCH  25  27
ENDBRANCH  24  25
BRANCH  24  29
ATOM     29  C   UNL     1      -1.315  -4.705  -2.188  0.00  0.00    +0.036 C 
BRANCH  29  31
ATOM     30  C   UNL     1      -3.507  -4.984  -1.023  0.00  0.00    +0.007 C 
ATOM     31  C   UNL     1      -2.272  -5.715  -1.554  0.00  0.00    -0.015 C 
ATOM     32  C   UNL     1      -2.700  -6.742  -2.605  0.00  0.00    +0.007 C 
ENDBRANCH  29  31
ENDBRANCH  24  29
ENDBRANCH   1  24
TORSDOF 6
