REMARK  Name = ZINC08702679
REMARK  8 active torsions:
REMARK  status: ('A' for Active; 'I' for Inactive)
REMARK    1  A    between atoms: C_1  and  C_2
REMARK    2  A    between atoms: C_2  and  C_10
REMARK    3  A    between atoms: C_3  and  C_4
REMARK    4  A    between atoms: N_11  and  N_12
REMARK    5  A    between atoms: N_19  and  C_20
REMARK    6  A    between atoms: C_23  and  N_26
REMARK    7  A    between atoms: N_29  and  C_30
REMARK    8  A    between atoms: C_30  and  C_31
REMARK                            x       y       z     vdW  Elec       q    Type
REMARK                         _______ _______ _______ _____ _____    ______ ____
ROOT
ATOM      1  N   UNL     1       7.511  -4.366  -2.812  0.00  0.00    -0.205 N 
ATOM      2  C   UNL     1       6.880  -3.592  -3.771  0.00  0.00    +0.241 A 
ATOM      3  N   UNL     1       5.597  -3.273  -3.630  0.00  0.00    -0.180 NA
ATOM      4  C   UNL     1       4.990  -2.534  -4.554  0.00  0.00    +0.221 A 
ATOM      5  N   UNL     1       5.669  -2.104  -5.612  0.00  0.00    -0.181 NA
ATOM      6  C   UNL     1       6.954  -2.418  -5.750  0.00  0.00    +0.225 A 
ATOM      7  N   UNL     1       7.559  -3.162  -4.829  0.00  0.00    -0.179 NA
ATOM      8  N   UNL     1       7.660  -1.972  -6.851  0.00  0.00    -0.283 N 
ATOM      9  N   UNL     1       3.657  -2.209  -4.410  0.00  0.00    -0.309 N 
ATOM     10  H   UNL     1       7.015  -4.680  -2.039  0.00  0.00    +0.177 HD
ATOM     11  H   UNL     1       7.199  -1.506  -7.566  0.00  0.00    +0.155 HD
ATOM     12  H   UNL     1       3.215  -1.666  -5.082  0.00  0.00    +0.149 HD
ENDROOT
BRANCH   8  13
ATOM     13  C   UNL     1       9.038  -2.192  -6.934  0.00  0.00    +0.034 A 
ATOM     14  C   UNL     1       9.822  -2.133  -5.789  0.00  0.00    +0.025 A 
ATOM     15  C   UNL     1      11.182  -2.357  -5.874  0.00  0.00    +0.034 A 
ATOM     16  C   UNL     1      11.765  -2.629  -7.098  0.00  0.00    +0.126 A 
ATOM     17  C   UNL     1      10.988  -2.683  -8.240  0.00  0.00    +0.034 A 
ATOM     18  C   UNL     1       9.626  -2.466  -8.162  0.00  0.00    +0.025 A 
BRANCH  16  19
ATOM     19  N   UNL     1      13.224  -2.862  -7.186  0.00  0.00    +0.056 N 
ATOM     20  O   UNL     1      13.781  -3.121  -8.351  0.00  0.00    -0.126 OA
ATOM     21  O   UNL     1      13.966  -2.811  -6.099  0.00  0.00    -0.126 OA
ENDBRANCH  16  19
ENDBRANCH   8  13
BRANCH   1  23
ATOM     22  C   UNL     1       9.369  -5.422  -2.014  0.00  0.00    +0.133 C 
ATOM     23  N   UNL     1       8.757  -4.670  -2.945  0.00  0.00    -0.188 NA
BRANCH  22  25
ATOM     24  C   UNL     1      11.423  -5.370  -3.417  0.00  0.00    +0.045 C 
ATOM     25  C   UNL     1      10.688  -5.744  -2.156  0.00  0.00    -0.030 C 
ATOM     26  C   UNL     1      11.365  -6.428  -1.117  0.00  0.00    +0.012 C 
BRANCH  26  27
ATOM     27  C   UNL     1      10.733  -6.628   0.120  0.00  0.00    -0.025 A 
ATOM     28  C   UNL     1       9.919  -5.615   0.678  0.00  0.00    +0.008 A 
ATOM     29  C   UNL     1       9.307  -5.825   1.879  0.00  0.00    +0.001 A 
ATOM     30  C   UNL     1       9.489  -7.023   2.558  0.00  0.00    +0.000 A 
ATOM     31  C   UNL     1      10.289  -8.025   2.025  0.00  0.00    +0.001 A 
ATOM     32  C   UNL     1      10.909  -7.844   0.823  0.00  0.00    +0.008 A 
ENDBRANCH  26  27
ENDBRANCH  22  25
ENDBRANCH   1  23
BRANCH   9  33
ATOM     33  C   UNL     1       2.909  -2.683  -3.243  0.00  0.00    +0.139 C 
BRANCH  33  34
ATOM     34  C   UNL     1       1.486  -2.192  -3.326  0.00  0.00    -0.030 A 
ATOM     35  C   UNL     1       0.527  -2.958  -3.962  0.00  0.00    +0.005 A 
ATOM     36  C   UNL     1      -0.778  -2.509  -4.039  0.00  0.00    +0.000 A 
ATOM     37  C   UNL     1      -1.124  -1.293  -3.478  0.00  0.00    +0.000 A 
ATOM     38  C   UNL     1      -0.165  -0.528  -2.841  0.00  0.00    +0.000 A 
ATOM     39  C   UNL     1       1.140  -0.977  -2.766  0.00  0.00    +0.005 A 
ENDBRANCH  33  34
ENDBRANCH   9  33
TORSDOF 7
