REMARK  Name = ZINC08790453
REMARK  6 active torsions:
REMARK  status: ('A' for Active; 'I' for Inactive)
REMARK    1  A    between atoms: C_1  and  C_2
REMARK    2  A    between atoms: C_2  and  C_3
REMARK    3  A    between atoms: C_23  and  C_30
REMARK    4  A    between atoms: C_30  and  C_32
REMARK    5  A    between atoms: C_36  and  O_38
REMARK    6  A    between atoms: O_38  and  C_39
REMARK                            x       y       z     vdW  Elec       q    Type
REMARK                         _______ _______ _______ _____ _____    ______ ____
ROOT
ATOM      1  C   UNL     1      -0.178  -0.412   3.667  0.00  0.00    -0.047 A 
ATOM      2  C   UNL     1      -0.338   0.411   4.767  0.00  0.00    +0.005 A 
ATOM      3  C   UNL     1      -1.062   1.580   4.662  0.00  0.00    +0.024 A 
ATOM      4  C   UNL     1      -1.639   1.941   3.446  0.00  0.00    +0.036 A 
ATOM      5  C   UNL     1      -1.473   1.105   2.348  0.00  0.00    -0.026 A 
ATOM      6  C   UNL     1      -0.748  -0.061   2.456  0.00  0.00    +0.008 A 
ATOM      7  C   UNL     1      -2.205   1.763   1.209  0.00  0.00    +0.060 C 
ATOM      8  C   UNL     1      -2.774   3.029   1.801  0.00  0.00    +0.212 C 
ATOM      9  O   UNL     1      -3.438   3.862   1.222  0.00  0.00    -0.277 OA
ATOM     10  N   UNL     1      -2.404   3.055   3.094  0.00  0.00    -0.286 N 
ATOM     11  C   UNL     1      -1.267   2.074   0.047  0.00  0.00    +0.085 C 
ATOM     12  C   UNL     1      -0.750   3.481   0.093  0.00  0.00    -0.011 A 
ATOM     13  C   UNL     1      -1.357   4.717   0.109  0.00  0.00    +0.006 A 
ATOM     14  C   UNL     1      -0.587   5.866   0.156  0.00  0.00    +0.000 A 
ATOM     15  C   UNL     1       0.792   5.770   0.185  0.00  0.00    +0.002 A 
ATOM     16  C   UNL     1       1.405   4.535   0.166  0.00  0.00    +0.023 A 
ATOM     17  C   UNL     1       0.638   3.373   0.119  0.00  0.00    +0.038 A 
ATOM     18  N   UNL     1       1.019   2.029   0.093  0.00  0.00    -0.285 N 
ATOM     19  C   UNL     1      -0.044   1.201   0.054  0.00  0.00    +0.228 C 
ATOM     20  O   UNL     1      -0.018  -0.011   0.025  0.00  0.00    -0.275 OA
ATOM     21  C   UNL     1      -2.127   1.822  -1.207  0.00  0.00    +0.066 C 
ATOM     22  C   UNL     1      -3.014   0.639  -0.743  0.00  0.00    -0.055 C 
ATOM     23  C   UNL     1      -4.571   1.628   0.749  0.00  0.00    -0.076 C 
ATOM     24  C   UNL     1      -5.412   0.971  -0.372  0.00  0.00    -0.020 C 
ATOM     25  C   UNL     1      -4.363   0.701  -1.475  0.00  0.00    -0.016 C 
ATOM     26  H   UNL     1      -2.640   3.766   3.711  0.00  0.00    +0.155 HD
ATOM     27  H   UNL     1       1.941   1.727   0.103  0.00  0.00    +0.155 HD
ATOM     28  N   UNL     1      -3.284   0.914   0.666  0.00  0.00    +0.395 N 
ATOM     29  H   UNL     1      -3.335   0.035   1.195  0.00  0.00    -0.079 HD
ENDROOT
BRANCH   1  31
ATOM     30  C   UNL     1      -0.319  -2.832   4.187  0.00  0.00    +0.009 C 
ATOM     31  C   UNL     1       0.614  -1.688   3.788  0.00  0.00    +0.032 C 
ENDBRANCH   1  31
BRANCH  21  32
ATOM     32  C   UNL     1      -2.965   3.029  -1.538  0.00  0.00    +0.166 C 
ATOM     33  O   UNL     1      -4.096   3.118  -1.111  0.00  0.00    -0.292 OA
BRANCH  32  34
ATOM     34  C   UNL     1      -2.411   4.101  -2.380  0.00  0.00    +0.021 A 
ATOM     35  C   UNL     1      -1.104   4.005  -2.870  0.00  0.00    +0.011 A 
ATOM     36  C   UNL     1      -0.590   5.011  -3.662  0.00  0.00    +0.004 A 
ATOM     37  C   UNL     1      -1.359   6.119  -3.967  0.00  0.00    +0.045 A 
ATOM     38  C   UNL     1      -2.656   6.227  -3.482  0.00  0.00    +0.121 A 
ATOM     39  C   UNL     1      -3.186   5.223  -2.689  0.00  0.00    +0.057 A 
BRANCH  38  40
ATOM     40  O   UNL     1      -3.406   7.319  -3.785  0.00  0.00    -0.495 OA
ATOM     41  C   UNL     1      -2.796   8.316  -4.607  0.00  0.00    +0.277 C 
ENDBRANCH  38  40
ENDBRANCH  32  34
ENDBRANCH  21  32
TORSDOF 4
