REMARK  Name = ZINC39672222
REMARK  6 active torsions:
REMARK  status: ('A' for Active; 'I' for Inactive)
REMARK    1  A    between atoms: C_1  and  C_2
REMARK    2  A    between atoms: C_5  and  C_10
REMARK    3  A    between atoms: C_14  and  C_23
REMARK    4  A    between atoms: N_25  and  C_26
REMARK    5  A    between atoms: C_26  and  C_27
REMARK    6  A    between atoms: N_36  and  C_37
REMARK                            x       y       z     vdW  Elec       q    Type
REMARK                         _______ _______ _______ _____ _____    ______ ____
ROOT
ATOM      1  C   UNL     1      -0.528  -3.949  -0.414  0.00  0.00    +0.250 C 
ATOM      2  O   UNL     1      -0.526  -4.493   0.674  0.00  0.00    -0.270 OA
ATOM      3  N   UNL     1      -0.598  -4.689  -1.538  0.00  0.00    -0.296 N 
ATOM      4  C   UNL     1      -0.505  -4.222  -2.941  0.00  0.00    +0.121 C 
ATOM      5  C   UNL     1       0.327  -5.308  -3.660  0.00  0.00    +0.100 C 
ATOM      6  C   UNL     1       0.137  -6.575  -2.809  0.00  0.00    -0.004 C 
ATOM      7  C   UNL     1      -0.779  -6.157  -1.649  0.00  0.00    +0.115 C 
ATOM      8  C   UNL     1      -0.524  -7.673  -3.636  0.00  0.00    -0.010 C 
ATOM      9  C   UNL     1      -0.648  -8.941  -2.786  0.00  0.00    -0.082 C 
ATOM     10  N   UNL     1       0.684  -9.368  -2.344  0.00  0.00    +0.379 N 
ATOM     11  C   UNL     1       1.275  -8.345  -1.472  0.00  0.00    -0.082 C 
ATOM     12  C   UNL     1       1.481  -7.053  -2.267  0.00  0.00    -0.010 C 
ATOM     13  H   UNL     1       0.606 -10.237  -1.835  0.00  0.00    -0.086 HD
ATOM     14  H   UNL     1       1.277  -9.505  -3.149  0.00  0.00    -0.086 HD
ENDROOT
BRANCH   1  19
ATOM     15  C   UNL     1      -0.244   1.790  -0.767  0.00  0.00    +0.047 C 
ATOM     16  C   UNL     1      -0.316   0.288  -0.673  0.00  0.00    -0.012 A 
ATOM     17  C   UNL     1      -1.050  -0.426  -1.604  0.00  0.00    +0.007 A 
ATOM     18  C   UNL     1      -1.123  -1.801  -1.526  0.00  0.00    +0.016 A 
ATOM     19  C   UNL     1      -0.453  -2.476  -0.503  0.00  0.00    +0.075 A 
ATOM     20  C   UNL     1       0.287  -1.753   0.436  0.00  0.00    +0.171 A 
ATOM     21  C   UNL     1       0.355  -0.372   0.342  0.00  0.00    +0.162 A 
ATOM     22  F   UNL     1       1.074   0.331   1.244  0.00  0.00    -0.202 F 
ATOM     23  F   UNL     1       0.938  -2.397   1.429  0.00  0.00    -0.202 F 
ENDBRANCH   1  19
BRANCH   5  24
ATOM     24  C   UNL     1      -0.194  -5.528  -5.056  0.00  0.00    +0.218 C 
ATOM     25  O   UNL     1      -1.375  -5.382  -5.293  0.00  0.00    -0.275 OA
ATOM     26  N   UNL     1       0.651  -5.888  -6.042  0.00  0.00    -0.311 N 
ATOM     27  H   UNL     1       1.596  -6.004  -5.853  0.00  0.00    +0.149 HD
BRANCH  26  28
ATOM     28  C   UNL     1       0.145  -6.102  -7.400  0.00  0.00    +0.139 C 
BRANCH  28  29
ATOM     29  C   UNL     1       1.285  -6.493  -8.305  0.00  0.00    -0.030 A 
ATOM     30  C   UNL     1       2.004  -5.516  -8.970  0.00  0.00    +0.007 A 
ATOM     31  C   UNL     1       3.047  -5.875  -9.800  0.00  0.00    +0.024 A 
ATOM     32  C   UNL     1       3.374  -7.216  -9.967  0.00  0.00    +0.033 A 
ATOM     33  C   UNL     1       2.655  -8.194  -9.298  0.00  0.00    -0.026 A 
ATOM     34  C   UNL     1       1.612  -7.825  -8.465  0.00  0.00    +0.010 A 
ATOM     35  C   UNL     1       2.987  -9.655  -9.447  0.00  0.00    +0.038 C 
ATOM     36  C   UNL     1       3.783  -9.896 -10.729  0.00  0.00    +0.024 C 
ATOM     37  C   UNL     1       4.970  -8.925 -10.766  0.00  0.00    +0.105 C 
ATOM     38  N   UNL     1       4.431  -7.559 -10.817  0.00  0.00    -0.333 N 
ATOM     39  C   UNL     1       4.992  -6.572 -11.743  0.00  0.00    +0.129 C 
ENDBRANCH  28  29
ENDBRANCH  26  28
ENDBRANCH   5  24
TORSDOF 4
