REMARK  Name = ZINC04150774
REMARK  4 active torsions:
REMARK  status: ('A' for Active; 'I' for Inactive)
REMARK    1  A    between atoms: C_4  and  N_20
REMARK    2  A    between atoms: C_6  and  C_7
REMARK    3  A    between atoms: N_8  and  N_9
REMARK    4  A    between atoms: C_10  and  C_12
REMARK                            x       y       z     vdW  Elec       q    Type
REMARK                         _______ _______ _______ _____ _____    ______ ____
ROOT
ATOM      1  C   UNL     1      -1.302   2.116   0.020  0.00  0.00    +0.138 C 
ATOM      2  N   UNL     1      -1.316   3.414   0.027  0.00  0.00    -0.187 NA
ENDROOT
BRANCH   1   8
ATOM      3  C   UNL     1       1.187   2.102   0.002  0.00  0.00    +0.011 A 
ATOM      4  C   UNL     1       2.385   1.419  -0.013  0.00  0.00    +0.018 A 
ATOM      5  C   UNL     1       2.397   0.035  -0.021  0.00  0.00    +0.048 A 
ATOM      6  C   UNL     1       1.207  -0.674  -0.013  0.00  0.00    +0.141 A 
ATOM      7  C   UNL     1       0.002  -0.004   0.002  0.00  0.00    +0.043 A 
ATOM      8  C   UNL     1      -0.017   1.393   0.010  0.00  0.00    -0.003 A 
ATOM      9 BR   UNL     1       4.045  -0.893  -0.042  0.00  0.00    -0.048 Br
BRANCH   6  10
ATOM     10  N   UNL     1       1.229  -2.154  -0.021  0.00  0.00    +0.058 N 
ATOM     11  O   UNL     1       0.184  -2.779  -0.014  0.00  0.00    -0.126 OA
ATOM     12  O   UNL     1       2.293  -2.747  -0.034  0.00  0.00    -0.126 OA
ENDBRANCH   6  10
ENDBRANCH   1   8
BRANCH   2  13
ATOM     13  N   UNL     1      -2.537   4.101   0.036  0.00  0.00    -0.203 N 
ATOM     14  C   UNL     1      -2.552   5.449   0.044  0.00  0.00    +0.265 C 
ATOM     15  O   UNL     1      -1.506   6.068   0.042  0.00  0.00    -0.268 OA
ATOM     16  H   UNL     1      -3.372   3.607   0.038  0.00  0.00    +0.178 HD
BRANCH  14  17
ATOM     17  C   UNL     1      -3.839   6.173   0.054  0.00  0.00    +0.057 A 
ATOM     18  C   UNL     1      -5.043   5.464   0.056  0.00  0.00    +0.016 A 
ATOM     19  C   UNL     1      -6.240   6.146   0.065  0.00  0.00    +0.021 A 
ATOM     20  C   UNL     1      -6.253   7.531   0.073  0.00  0.00    +0.042 A 
ATOM     21  C   UNL     1      -5.065   8.241   0.071  0.00  0.00    +0.040 A 
ATOM     22  C   UNL     1      -3.858   7.570   0.067  0.00  0.00    +0.054 A 
ATOM     23 CL   UNL     1      -2.368   8.461   0.072  0.00  0.00    -0.083 Cl
ATOM     24 CL   UNL     1      -7.767   8.381   0.085  0.00  0.00    -0.083 Cl
ENDBRANCH  14  17
ENDBRANCH   2  13
TORSDOF 4
