REMARK  Name = ZINC19014960
REMARK  1 active torsions:
REMARK  status: ('A' for Active; 'I' for Inactive)
REMARK    1  A    between atoms: C_11  and  C_13
REMARK                            x       y       z     vdW  Elec       q    Type
REMARK                         _______ _______ _______ _____ _____    ______ ____
ROOT
ATOM      1  C   UNL     1      -0.759   1.596  -1.229  0.00  0.00    +0.000 C 
ATOM      2  C   UNL     1      -0.672   3.109  -1.222  0.00  0.00    +0.000 C 
ATOM      3  C   UNL     1      -1.752   3.756  -0.368  0.00  0.00    +0.005 C 
ATOM      4  C   UNL     1      -3.074   2.993  -0.496  0.00  0.00    +0.044 C 
ATOM      5  C   UNL     1      -3.089   1.751   0.347  0.00  0.00    +0.014 A 
ATOM      6  C   UNL     1      -2.199   1.174   1.163  0.00  0.00    +0.054 A 
ATOM      7  N   UNL     1      -2.628   0.101   1.847  0.00  0.00    -0.229 NA
ATOM      8  C   UNL     1      -3.814  -0.425   1.655  0.00  0.00    +0.165 A 
ATOM      9  S   UNL     1      -4.488   0.644   0.465  0.00  0.00    -0.057 S 
ATOM     10  N   UNL     1      -4.383  -1.545   2.249  0.00  0.00    -0.264 N 
ATOM     11  C   UNL     1      -3.687  -2.250   3.163  0.00  0.00    +0.222 C 
ATOM     12  O   UNL     1      -2.564  -1.907   3.467  0.00  0.00    -0.275 OA
ATOM     13  C   UNL     1      -0.734   1.582   1.262  0.00  0.00    +0.056 C 
ATOM     14  C   UNL     1      -0.013   1.086   0.008  0.00  0.00    +0.006 C 
ATOM     15  H   UNL     1      -5.281  -1.820   2.006  0.00  0.00    +0.157 HD
ENDROOT
BRANCH  11  16
ATOM     16  C   UNL     1      -4.304  -3.465   3.806  0.00  0.00    +0.083 C 
ATOM     17  C   UNL     1      -5.580  -3.075   4.596  0.00  0.00    +0.021 C 
ATOM     18  C   UNL     1      -5.237  -3.473   6.072  0.00  0.00    +0.019 C 
ATOM     19  C   UNL     1      -5.157  -5.009   6.010  0.00  0.00    -0.027 C 
ATOM     20  C   UNL     1      -4.070  -5.341   5.337  0.00  0.00    -0.026 C 
ATOM     21  C   UNL     1      -3.353  -4.048   4.907  0.00  0.00    +0.030 C 
ATOM     22  C   UNL     1      -3.727  -3.140   6.102  0.00  0.00    -0.016 C 
ATOM     23  C   UNL     1      -2.905  -2.957   7.340  0.00  0.00    +0.008 C 
ATOM     24  C   UNL     1      -3.146  -1.786   6.373  0.00  0.00    +0.008 C 
ENDBRANCH  11  16
TORSDOF 1
