REMARK  Name = ZINC44740425
REMARK  6 active torsions:
REMARK  status: ('A' for Active; 'I' for Inactive)
REMARK    1  A    between atoms: C_1  and  C_2
REMARK    2  A    between atoms: C_9  and  C_11
REMARK    3  A    between atoms: C_11  and  N_12
REMARK    4  A    between atoms: N_15  and  C_18
REMARK    5  A    between atoms: C_18  and  C_19
REMARK    6  A    between atoms: N_21  and  C_22
REMARK                            x       y       z     vdW  Elec       q    Type
REMARK                         _______ _______ _______ _____ _____    ______ ____
ROOT
ATOM      1  N   UNL     1       2.617   0.986   3.990  0.00  0.00    +0.387 N 
ATOM      2  C   UNL     1       3.401   1.959   3.219  0.00  0.00    -0.063 C 
ATOM      3  C   UNL     1       3.786   3.134   4.120  0.00  0.00    +0.066 C 
ATOM      4  N   UNL     1       4.572   2.638   5.258  0.00  0.00    -0.298 NA
ATOM      5  C   UNL     1       3.809   1.644   6.026  0.00  0.00    +0.066 C 
ATOM      6  C   UNL     1       3.424   0.481   5.109  0.00  0.00    -0.063 C 
ATOM      7  H   UNL     1       1.787   1.433   4.350  0.00  0.00    -0.081 HD
ENDROOT
BRANCH   1   8
ATOM      8  C   UNL     1       2.232  -0.133   3.120  0.00  0.00    +0.019 C 
BRANCH   8  16
ATOM      9  C   UNL     1       0.008   1.528  -0.006  0.00  0.00    +0.028 C 
ATOM     10  C   UNL     1       0.016  -0.002  -0.007  0.00  0.00    +0.073 C 
ATOM     11  C   UNL     1       0.633  -0.512  -1.313  0.00  0.00    +0.022 C 
ATOM     12  C   UNL     1       0.765  -2.035  -1.250  0.00  0.00    +0.003 C 
ATOM     13  C   UNL     1       1.692  -2.421  -0.095  0.00  0.00    +0.019 C 
ATOM     14  C   UNL     1       1.087  -1.933   1.225  0.00  0.00    +0.108 C 
ATOM     15  N   UNL     1       0.819  -0.492   1.122  0.00  0.00    -0.300 N 
ATOM     16  C   UNL     1       1.304   0.365   2.042  0.00  0.00    +0.199 C 
ATOM     17  O   UNL     1       0.994   1.537   2.003  0.00  0.00    -0.278 OA
ENDBRANCH   8  16
ENDBRANCH   1   8
BRANCH   4  18
ATOM     18  C   UNL     1       5.010   3.745   6.119  0.00  0.00    +0.180 C 
BRANCH  18  19
ATOM     19  C   UNL     1       6.008   3.234   7.126  0.00  0.00    +0.227 C 
ATOM     20  O   UNL     1       6.324   2.063   7.127  0.00  0.00    -0.274 OA
ATOM     21  N   UNL     1       6.550   4.079   8.026  0.00  0.00    -0.311 N 
ATOM     22  H   UNL     1       6.297   5.015   8.025  0.00  0.00    +0.149 HD
BRANCH  21  23
ATOM     23  C   UNL     1       7.520   3.582   9.005  0.00  0.00    +0.073 C 
ATOM     24  C   UNL     1       6.777   3.006  10.212  0.00  0.00    +0.022 C 
ATOM     25  C   UNL     1       7.735   2.144  11.037  0.00  0.00    +0.002 C 
ATOM     26  C   UNL     1       8.562   1.261  10.100  0.00  0.00    +0.000 C 
ATOM     27  C   UNL     1      10.028   1.696  10.150  0.00  0.00    +0.000 C 
ATOM     28  C   UNL     1      10.203   2.988   9.349  0.00  0.00    +0.000 C 
ATOM     29  C   UNL     1       9.658   4.167  10.157  0.00  0.00    +0.002 C 
ATOM     30  C   UNL     1       8.419   4.733   9.461  0.00  0.00    +0.022 C 
ENDBRANCH  21  23
ENDBRANCH  18  19
ENDBRANCH   4  18
TORSDOF 5
