REMARK  Name = ZINC56078793
REMARK  4 active torsions:
REMARK  status: ('A' for Active; 'I' for Inactive)
REMARK    1  A    between atoms: C_3  and  O_13
REMARK    2  A    between atoms: C_6  and  N_7
REMARK    3  A    between atoms: O_13  and  S_14
REMARK    4  A    between atoms: S_14  and  C_17
REMARK                            x       y       z     vdW  Elec       q    Type
REMARK                         _______ _______ _______ _____ _____    ______ ____
ROOT
ATOM      1  C   UNL     1      -0.017   1.384   0.010  0.00  0.00    +0.027 A 
ATOM      2  C   UNL     1       1.170   2.091   0.002  0.00  0.00    +0.050 A 
ATOM      3  C   UNL     1       2.380   1.413  -0.013  0.00  0.00    +0.157 A 
ATOM      4  C   UNL     1       2.400   0.026  -0.021  0.00  0.00    +0.050 A 
ATOM      5  C   UNL     1       1.214  -0.681  -0.013  0.00  0.00    +0.027 A 
ATOM      6  C   UNL     1       0.002  -0.004   0.002  0.00  0.00    +0.040 A 
ENDROOT
BRANCH   6   7
ATOM      7  N   UNL     1      -1.202  -0.722   0.010  0.00  0.00    -0.234 N 
ATOM      8  C   UNL     1      -1.339  -2.192   0.010  0.00  0.00    +0.158 C 
ATOM      9  C   UNL     1      -2.823  -2.382   0.403  0.00  0.00    +0.253 C 
ATOM     10  O   UNL     1      -3.405  -1.129  -0.006  0.00  0.00    -0.448 OA
ATOM     11  C   UNL     1      -2.440  -0.194   0.026  0.00  0.00    +0.407 C 
ATOM     12  O   UNL     1      -2.662   1.000   0.061  0.00  0.00    -0.226 OA
ENDBRANCH   6   7
BRANCH   3  13
ATOM     13  O   UNL     1       3.548   2.110  -0.021  0.00  0.00    -0.342 OA
BRANCH  13  14
ATOM     14  S   UNL     1       4.094   2.419   1.366  0.00  0.00    +0.157 S 
ATOM     15  O   UNL     1       5.182   3.314   1.183  0.00  0.00    -0.131 OA
ATOM     16  O   UNL     1       2.974   2.738   2.181  0.00  0.00    -0.131 OA
BRANCH  14  17
ATOM     17  C   UNL     1       4.772   0.924   2.005  0.00  0.00    +0.167 A 
ATOM     18  C   UNL     1       6.036   0.447   1.897  0.00  0.00    +0.040 A 
ATOM     19  C   UNL     1       6.347  -0.765   2.486  0.00  0.00    +0.030 A 
ATOM     20  C   UNL     1       5.378  -1.439   3.154  0.00  0.00    +0.080 A 
ATOM     21  S   UNL     1       3.976  -0.350   2.968  0.00  0.00    -0.055 S 
ATOM     22 CL   UNL     1       5.477  -2.963   3.981  0.00  0.00    -0.076 Cl
ENDBRANCH  14  17
ENDBRANCH  13  14
ENDBRANCH   3  13
TORSDOF 4
