REMARK  Name = ZINC63581860
REMARK  4 active torsions:
REMARK  status: ('A' for Active; 'I' for Inactive)
REMARK    1  A    between atoms: C_5  and  S_14
REMARK    2  A    between atoms: C_10  and  N_11
REMARK    3  A    between atoms: S_14  and  C_15
REMARK    4  A    between atoms: C_15  and  C_16
REMARK                            x       y       z     vdW  Elec       q    Type
REMARK                         _______ _______ _______ _____ _____    ______ ____
ROOT
ATOM      1  C   UNL     1      -0.017   1.402   0.010  0.00  0.00    +0.035 A 
ATOM      2  C   UNL     1       1.108   2.144   0.003  0.00  0.00    +0.029 A 
ATOM      3  C   UNL     1       2.417   1.476  -0.013  0.00  0.00    +0.061 A 
ATOM      4  N   UNL     1       3.639   1.924  -0.022  0.00  0.00    -0.355 N 
ATOM      5  C   UNL     1       4.535   0.761  -0.037  0.00  0.00    +0.235 C 
ATOM      6  N   UNL     1       3.671  -0.427  -0.035  0.00  0.00    -0.355 N 
ATOM      7  C   UNL     1       2.437  -0.012  -0.021  0.00  0.00    +0.063 A 
ATOM      8  C   UNL     1       1.147  -0.715  -0.013  0.00  0.00    +0.060 A 
ATOM      9  C   UNL     1       0.002  -0.004   0.002  0.00  0.00    +0.128 A 
ATOM     10  H   UNL     1       3.966  -1.351  -0.043  0.00  0.00    +0.162 HD
ATOM     11  H   UNL     1       3.909   2.856  -0.020  0.00  0.00    +0.162 HD
ENDROOT
BRANCH   9  12
ATOM     12  N   UNL     1      -1.286  -0.732   0.010  0.00  0.00    +0.056 N 
ATOM     13  O   UNL     1      -2.328  -0.118   0.024  0.00  0.00    -0.126 OA
ATOM     14  O   UNL     1      -1.298  -1.941   0.004  0.00  0.00    -0.126 OA
ENDBRANCH   9  12
BRANCH   5  15
ATOM     15  S   UNL     1       5.589   0.768   1.439  0.00  0.00    -0.113 S 
BRANCH  15  16
ATOM     16  C   UNL     1       4.412   0.743   2.819  0.00  0.00    +0.094 C 
BRANCH  16  17
ATOM     17  C   UNL     1       5.179   0.747   4.143  0.00  0.00    +0.097 C 
ATOM     18  C   UNL     1       4.197   0.632   5.331  0.00  0.00    +0.161 C 
ATOM     19  N   UNL     1       4.327   1.921   6.052  0.00  0.00    -0.297 N 
ATOM     20  C   UNL     1       3.630   2.879   6.760  0.00  0.00    +0.080 C 
ATOM     21  C   UNL     1       4.098   4.103   6.948  0.00  0.00    +0.058 C 
ATOM     22  S   UNL     1       5.712   4.066   6.182  0.00  0.00    -0.094 S 
ATOM     23  C   UNL     1       5.755   2.279   5.786  0.00  0.00    +0.207 C 
ATOM     24  N   UNL     1       5.877   2.049   4.332  0.00  0.00    -0.283 NA
ATOM     25 BR   UNL     1       2.358   0.391   4.678  0.00  0.00    -0.065 Br
ATOM     26  H   UNL     1       6.845   1.983   4.055  0.00  0.00    +0.125 HD
ENDBRANCH  16  17
ENDBRANCH  15  16
ENDBRANCH   5  15
TORSDOF 4
