REMARK  Name = ZINC66812768
REMARK  7 active torsions:
REMARK  status: ('A' for Active; 'I' for Inactive)
REMARK    1  A    between atoms: C_1  and  O_2
REMARK    2  A    between atoms: O_2  and  C_3
REMARK    3  A    between atoms: C_7  and  C_10
REMARK    4  A    between atoms: C_8  and  O_9
REMARK    5  A    between atoms: C_10  and  N_11
REMARK    6  A    between atoms: N_11  and  C_12
REMARK    7  A    between atoms: C_15  and  N_22
REMARK                            x       y       z     vdW  Elec       q    Type
REMARK                         _______ _______ _______ _____ _____    ______ ____
ROOT
ATOM      1  N   UNL     1      -2.335  -4.673   1.380  0.00  0.00    -0.339 N 
ATOM      2  H   UNL     1      -2.002  -4.060   2.054  0.00  0.00    +0.146 HD
ENDROOT
BRANCH   1   3
ATOM      3  C   UNL     1      -2.340  -6.045   1.627  0.00  0.00    +0.035 A 
ATOM      4  C   UNL     1      -2.807  -6.924   0.672  0.00  0.00    +0.026 A 
ATOM      5  C   UNL     1      -2.816  -8.295   0.911  0.00  0.00    +0.035 A 
ATOM      6  C   UNL     1      -2.366  -8.809   2.090  0.00  0.00    +0.135 A 
ATOM      7  C   UNL     1      -1.882  -7.948   3.087  0.00  0.00    +0.032 A 
ATOM      8  C   UNL     1      -1.863  -6.549   2.852  0.00  0.00    +0.008 A 
ATOM      9  C   UNL     1      -1.368  -5.711   3.866  0.00  0.00    +0.030 A 
ATOM     10  C   UNL     1      -0.925  -6.276   5.023  0.00  0.00    +0.111 A 
ATOM     11  N   UNL     1      -0.948  -7.588   5.215  0.00  0.00    -0.263 NA
ATOM     12  C   UNL     1      -1.408  -8.429   4.319  0.00  0.00    +0.121 A 
BRANCH   6  13
ATOM     13  N   UNL     1      -2.388 -10.272   2.318  0.00  0.00    +0.057 N 
ATOM     14  O   UNL     1      -2.132 -11.029   1.411  0.00  0.00    -0.126 OA
ATOM     15  O   UNL     1      -2.660 -10.709   3.412  0.00  0.00    -0.126 OA
ENDBRANCH   6  13
ENDBRANCH   1   3
BRANCH   1  16
ATOM     16  C   UNL     1      -2.834  -4.157   0.102  0.00  0.00    +0.140 C 
BRANCH  16  21
ATOM     17  C   UNL     1      -1.399  -0.667  -0.196  0.00  0.00    +0.162 A 
ATOM     18  C   UNL     1      -2.517   0.109   0.065  0.00  0.00    +0.049 A 
ATOM     19  C   UNL     1      -3.730  -0.496   0.336  0.00  0.00    +0.004 A 
ATOM     20  C   UNL     1      -3.831  -1.875   0.348  0.00  0.00    +0.009 A 
ATOM     21  C   UNL     1      -2.720  -2.655   0.088  0.00  0.00    +0.015 A 
ATOM     22  C   UNL     1      -1.502  -2.055  -0.190  0.00  0.00    +0.163 A 
BRANCH  17  24
ATOM     23  C   UNL     1      -0.174   1.355  -0.452  0.00  0.00    +0.277 C 
ATOM     24  O   UNL     1      -0.205  -0.074  -0.463  0.00  0.00    -0.491 OA
ENDBRANCH  17  24
BRANCH  22  25
ATOM     25  O   UNL     1      -0.409  -2.821  -0.451  0.00  0.00    -0.503 OA
ATOM     26  H   UNL     1       0.105  -3.053   0.334  0.00  0.00    +0.292 HD
ENDBRANCH  22  25
ENDBRANCH  16  21
ENDBRANCH   1  16
TORSDOF 6
