REMARK  Name = ZINC20905142
REMARK  12 active torsions:
REMARK  status: ('A' for Active; 'I' for Inactive)
REMARK    1  A    between atoms: C_1  and  C_2
REMARK    2  A    between atoms: C_3  and  C_11
REMARK    3  A    between atoms: C_4  and  C_10
REMARK    4  A    between atoms: N_5  and  C_7
REMARK    5  A    between atoms: C_7  and  C_8
REMARK    6  A    between atoms: C_7  and  C_9
REMARK    7  A    between atoms: N_12  and  N_13
REMARK    8  A    between atoms: C_16  and  S_19
REMARK    9  A    between atoms: S_19  and  C_20
REMARK   10  A    between atoms: C_20  and  C_21
REMARK   11  A    between atoms: C_21  and  C_22
REMARK   12  A    between atoms: N_24  and  C_25
REMARK                            x       y       z     vdW  Elec       q    Type
REMARK                         _______ _______ _______ _____ _____    ______ ____
ROOT
ATOM      1  N   UNL     1       0.814   0.518  -6.242  0.00  0.00    -0.205 N 
ATOM      2  C   UNL     1       0.732   0.574  -4.858  0.00  0.00    +0.232 A 
ATOM      3  N   UNL     1      -0.220   1.238  -4.136  0.00  0.00    -0.186 NA
ATOM      4  C   UNL     1       0.049   1.049  -2.809  0.00  0.00    +0.210 A 
ATOM      5  N   UNL     1       1.125   0.305  -2.715  0.00  0.00    -0.144 NA
ATOM      6  N   UNL     1       1.554   0.000  -4.013  0.00  0.00    -0.245 N 
ATOM      7  H   UNL     1       0.067   1.039  -6.858  0.00  0.00    +0.177 HD
ATOM      8  H   UNL     1       2.401  -0.595  -4.388  0.00  0.00    +0.192 HD
ENDROOT
BRANCH   1  10
ATOM      9  C   UNL     1       1.925  -0.255  -8.148  0.00  0.00    +0.141 C 
ATOM     10  N   UNL     1       1.848  -0.203  -6.853  0.00  0.00    -0.187 NA
BRANCH   9  13
ATOM     11  C   UNL     1       4.214  -1.853  -6.644  0.00  0.00    +0.068 C 
ATOM     12  C   UNL     1       4.038  -1.730  -8.135  0.00  0.00    +0.069 A 
ATOM     13  C   UNL     1       3.014  -1.014  -8.793  0.00  0.00    +0.038 A 
ATOM     14  C   UNL     1       3.217  -1.162 -10.147  0.00  0.00    +0.045 A 
ATOM     15  N   UNL     1       4.318  -1.923 -10.310  0.00  0.00    -0.265 N 
ATOM     16  N   UNL     1       4.807  -2.266  -9.044  0.00  0.00    -0.175 NA
ATOM     17  C   UNL     1       2.366  -0.577 -11.245  0.00  0.00    +0.066 C 
BRANCH  15  18
ATOM     18  C   UNL     1       4.899  -2.328 -11.593  0.00  0.00    +0.101 C 
ATOM     19  C   UNL     1       6.334  -1.806 -11.690  0.00  0.00    +0.032 C 
ATOM     20  C   UNL     1       4.903  -3.855 -11.691  0.00  0.00    +0.032 C 
ENDBRANCH  15  18
ENDBRANCH   9  13
ENDBRANCH   1  10
BRANCH   4  21
ATOM     21  S   UNL     1      -0.883   1.698  -1.462  0.00  0.00    -0.084 S 
BRANCH  21  22
ATOM     22  C   UNL     1      -0.011   1.088   0.008  0.00  0.00    +0.086 C 
BRANCH  22  23
ATOM     23  C   UNL     1      -0.725   1.585   1.267  0.00  0.00    +0.107 C 
BRANCH  23  24
ATOM     24  C   UNL     1      -0.001   1.079   2.488  0.00  0.00    +0.218 C 
ATOM     25  O   UNL     1       0.988   0.388   2.363  0.00  0.00    -0.275 OA
ATOM     26  N   UNL     1      -0.453   1.393   3.718  0.00  0.00    -0.285 N 
ATOM     27  H   UNL     1      -1.304   2.080   3.832  0.00  0.00    +0.155 HD
BRANCH  26  28
ATOM     28  C   UNL     1       0.161   0.844   4.850  0.00  0.00    +0.033 A 
ATOM     29  C   UNL     1      -0.599   0.529   5.969  0.00  0.00    +0.024 A 
ATOM     30  C   UNL     1       0.008  -0.017   7.083  0.00  0.00    +0.017 A 
ATOM     31  C   UNL     1       1.374  -0.239   7.088  0.00  0.00    +0.018 A 
ATOM     32  C   UNL     1       2.134   0.080   5.977  0.00  0.00    +0.017 A 
ATOM     33  C   UNL     1       1.531   0.620   4.859  0.00  0.00    +0.024 A 
ATOM     34 BR   UNL     1       2.203  -0.981   8.618  0.00  0.00    -0.050 Br
ENDBRANCH  26  28
ENDBRANCH  23  24
ENDBRANCH  22  23
ENDBRANCH  21  22
ENDBRANCH   4  21
TORSDOF 8
