REMARK  Name = ZINC36544374
REMARK  11 active torsions:
REMARK  status: ('A' for Active; 'I' for Inactive)
REMARK    1  A    between atoms: C_1  and  C_2
REMARK    2  A    between atoms: C_5  and  S_8
REMARK    3  A    between atoms: S_8  and  C_11
REMARK    4  A    between atoms: C_11  and  N_12
REMARK    5  A    between atoms: C_13  and  C_15
REMARK    6  A    between atoms: C_15  and  C_17
REMARK    7  A    between atoms: C_15  and  N_26
REMARK    8  A    between atoms: C_18  and  O_25
REMARK    9  A    between atoms: C_20  and  O_24
REMARK   10  A    between atoms: C_22  and  O_23
REMARK   11  A    between atoms: N_26  and  C_29
REMARK                            x       y       z     vdW  Elec       q    Type
REMARK                         _______ _______ _______ _____ _____    ______ ____
ROOT
ATOM      1  C   UNL     1       3.361  -4.674   3.327  0.00  0.00    +0.204 C 
ENDROOT
BRANCH   1   2
ATOM      2  C   UNL     1       2.238  -3.744   3.706  0.00  0.00    +0.065 A 
ATOM      3  C   UNL     1       2.406  -2.840   4.744  0.00  0.00    +0.129 A 
ATOM      4  C   UNL     1       1.372  -1.984   5.093  0.00  0.00    +0.091 A 
ATOM      5  C   UNL     1       0.170  -2.033   4.403  0.00  0.00    +0.124 A 
ATOM      6  C   UNL     1       0.002  -2.936   3.365  0.00  0.00    +0.091 A 
ATOM      7  C   UNL     1       1.037  -3.789   3.013  0.00  0.00    +0.129 A 
BRANCH   7   8
ATOM      8  O   UNL     1       0.874  -4.671   1.992  0.00  0.00    -0.506 OA
ATOM      9  H   UNL     1       0.435  -5.493   2.249  0.00  0.00    +0.292 HD
ENDBRANCH   7   8
BRANCH   5  10
ATOM     10  O   UNL     1      -0.844  -1.195   4.746  0.00  0.00    -0.507 OA
ATOM     11  H   UNL     1      -0.833  -0.351   4.274  0.00  0.00    +0.292 HD
ENDBRANCH   5  10
BRANCH   3  12
ATOM     12  O   UNL     1       3.584  -2.793   5.419  0.00  0.00    -0.506 OA
ATOM     13  H   UNL     1       4.200  -2.125   5.090  0.00  0.00    +0.292 HD
ENDBRANCH   3  12
ENDBRANCH   1   2
BRANCH   1  15
ATOM     14  N   UNL     1       4.378  -3.868   1.221  0.00  0.00    -0.294 N 
ATOM     15  C   UNL     1       3.508  -4.700   1.827  0.00  0.00    +0.240 C 
ATOM     16  O   UNL     1       2.842  -5.468   1.166  0.00  0.00    -0.273 OA
ATOM     17  H   UNL     1       4.976  -3.320   1.752  0.00  0.00    +0.150 HD
BRANCH  14  18
ATOM     18  C   UNL     1       4.422  -3.793  -0.242  0.00  0.00    +0.278 C 
BRANCH  18  19
ATOM     19  S   UNL     1       3.340  -2.452  -0.811  0.00  0.00    +0.013 S 
ATOM     20  O   UNL     1       2.105  -2.489  -0.110  0.00  0.00    -0.168 OA
ATOM     21  O   UNL     1       3.367  -2.371  -2.229  0.00  0.00    -0.168 OA
BRANCH  19  26
ATOM     22  C   UNL     1       6.024   2.613   1.070  0.00  0.00    +0.044 C 
ATOM     23  C   UNL     1       5.354   1.348   0.601  0.00  0.00    -0.050 A 
ATOM     24  C   UNL     1       5.659   0.825  -0.642  0.00  0.00    +0.005 A 
ATOM     25  C   UNL     1       5.044  -0.336  -1.073  0.00  0.00    +0.027 A 
ATOM     26  C   UNL     1       4.125  -0.974  -0.261  0.00  0.00    +0.090 A 
ATOM     27  C   UNL     1       3.820  -0.451   0.982  0.00  0.00    +0.027 A 
ATOM     28  C   UNL     1       4.438   0.708   1.414  0.00  0.00    +0.005 A 
ENDBRANCH  19  26
ENDBRANCH  18  19
ENDBRANCH  14  18
ENDBRANCH   1  15
BRANCH   1  29
ATOM     29  N   UNL     1       3.063  -6.024   3.811  0.00  0.00    -0.256 N 
ATOM     30  C   UNL     1       3.887  -6.620   4.695  0.00  0.00    +0.333 C 
ATOM     31  O   UNL     1       4.876  -6.040   5.089  0.00  0.00    -0.279 OA
BRANCH  29  32
ATOM     32  C   UNL     1       1.921  -6.694   3.356  0.00  0.00    +0.055 A 
ATOM     33  C   UNL     1       1.975  -7.450   2.192  0.00  0.00    +0.025 A 
ATOM     34  C   UNL     1       0.848  -8.111   1.746  0.00  0.00    +0.002 A 
ATOM     35  C   UNL     1      -0.336  -8.020   2.457  0.00  0.00    +0.002 A 
ATOM     36  C   UNL     1      -0.394  -7.269   3.616  0.00  0.00    +0.022 A 
ATOM     37  C   UNL     1       0.733  -6.610   4.071  0.00  0.00    +0.062 A 
ATOM     38 CL   UNL     1       0.661  -5.672   5.531  0.00  0.00    -0.082 Cl
ENDBRANCH  29  32
ENDBRANCH   1  29
TORSDOF 10
