REMARK  Name = ZINC23590671
REMARK  6 active torsions:
REMARK  status: ('A' for Active; 'I' for Inactive)
REMARK    1  A    between atoms: C_1  and  C_2
REMARK    2  A    between atoms: C_2  and  C_4
REMARK    3  A    between atoms: C_2  and  S_17
REMARK    4  A    between atoms: N_6  and  C_7
REMARK    5  A    between atoms: C_7  and  C_8
REMARK    6  A    between atoms: S_17  and  C_18
REMARK                            x       y       z     vdW  Elec       q    Type
REMARK                         _______ _______ _______ _____ _____    ______ ____
ROOT
ATOM      1  S   UNL     1       9.986  -0.854   0.795  0.00  0.00    -0.073 S 
ENDROOT
BRANCH   1   2
ATOM      2  C   UNL     1      10.884  -1.531  -0.561  0.00  0.00    +0.192 A 
ATOM      3  N   UNL     1      10.220  -2.037  -1.595  0.00  0.00    -0.207 NA
ATOM      4  C   UNL     1      10.839  -2.559  -2.640  0.00  0.00    +0.129 A 
ATOM      5  C   UNL     1      12.262  -2.582  -2.666  0.00  0.00    +0.051 A 
ATOM      6  C   UNL     1      13.150  -3.104  -3.707  0.00  0.00    -0.025 A 
ATOM      7  C   UNL     1      14.476  -3.005  -3.486  0.00  0.00    -0.004 A 
ATOM      8  S   UNL     1      14.624  -2.222  -1.903  0.00  0.00    -0.073 S 
ATOM      9  C   UNL     1      12.899  -2.029  -1.538  0.00  0.00    +0.115 A 
ATOM     10  N   UNL     1      12.210  -1.522  -0.534  0.00  0.00    -0.214 NA
ATOM     11  C   UNL     1      15.584  -3.460  -4.387  0.00  0.00    +0.043 C 
ATOM     12  C   UNL     1      14.991  -4.401  -5.446  0.00  0.00    +0.005 C 
ATOM     13  C   UNL     1      13.736  -3.748  -6.035  0.00  0.00    +0.005 C 
ATOM     14  C   UNL     1      12.619  -3.736  -4.991  0.00  0.00    +0.037 C 
ATOM     15  N   UNL     1      10.112  -3.075  -3.697  0.00  0.00    -0.343 N 
ATOM     16  H   UNL     1      10.633  -3.508  -4.564  0.00  0.00    +0.144 HD
ATOM     17  H   UNL     1       9.013  -3.054  -3.671  0.00  0.00    +0.144 HD
ENDBRANCH   1   2
BRANCH   1  19
ATOM     18  C   UNL     1       8.021  -2.629   0.124  0.00  0.00    +0.029 C 
ATOM     19  C   UNL     1       8.292  -1.127   0.218  0.00  0.00    +0.137 C 
BRANCH  19  20
ATOM     20  C   UNL     1       7.324  -0.501   1.189  0.00  0.00    +0.226 C 
ATOM     21  O   UNL     1       7.676  -0.255   2.323  0.00  0.00    -0.275 OA
ATOM     22  N   UNL     1       6.066  -0.216   0.797  0.00  0.00    -0.310 N 
ATOM     23  H   UNL     1       5.747  -0.439  -0.232  0.00  0.00    +0.149 HD
BRANCH  22  24
ATOM     24  C   UNL     1       5.125   0.392   1.740  0.00  0.00    +0.139 C 
BRANCH  24  25
ATOM     25  C   UNL     1       3.799   0.608   1.058  0.00  0.00    -0.027 A 
ATOM     26  C   UNL     1       2.836  -0.384   1.094  0.00  0.00    +0.009 A 
ATOM     27  C   UNL     1       1.618  -0.191   0.469  0.00  0.00    +0.050 A 
ATOM     28  C   UNL     1       1.359   0.998  -0.194  0.00  0.00    +0.166 A 
ATOM     29  C   UNL     1       2.329   1.997  -0.229  0.00  0.00    +0.167 A 
ATOM     30  C   UNL     1       3.547   1.797   0.399  0.00  0.00    +0.054 A 
ATOM     31  O   UNL     1       1.837   3.057  -0.935  0.00  0.00    -0.453 OA
ATOM     32  C   UNL     1       0.412   2.860  -0.982  0.00  0.00    +0.466 C 
ATOM     33  O   UNL     1       0.260   1.432  -0.878  0.00  0.00    -0.453 OA
ENDBRANCH  24  25
ENDBRANCH  22  24
ENDBRANCH  19  20
ENDBRANCH   1  19
TORSDOF 5
