REMARK  Name = ZINC44775008
REMARK  5 active torsions:
REMARK  status: ('A' for Active; 'I' for Inactive)
REMARK    1  A    between atoms: C_1  and  N_2
REMARK    2  A    between atoms: N_2  and  C_3
REMARK    3  A    between atoms: C_3  and  C_4
REMARK    4  A    between atoms: C_9  and  C_11
REMARK    5  A    between atoms: C_17  and  C_19
REMARK                            x       y       z     vdW  Elec       q    Type
REMARK                         _______ _______ _______ _____ _____    ______ ____
ROOT
ATOM      1  C   UNL     1      -0.023   0.089  -2.470  0.00  0.00    +0.089 C 
ATOM      2  C   UNL     1       1.150   1.071  -2.512  0.00  0.00    +0.040 C 
ATOM      3  C   UNL     1       2.445   0.324  -2.653  0.00  0.00    -0.030 C 
ATOM      4  C   UNL     1       2.533  -0.908  -3.040  0.00  0.00    -0.030 C 
ATOM      5  C   UNL     1       1.352  -1.765  -3.393  0.00  0.00    +0.038 C 
ATOM      6  C   UNL     1       0.116  -0.891  -3.642  0.00  0.00    +0.061 C 
ENDROOT
BRANCH   6   7
ATOM      7  C   UNL     1      -1.116  -1.755  -3.729  0.00  0.00    +0.084 A 
ATOM      8  N   UNL     1      -1.590  -2.560  -2.823  0.00  0.00    -0.244 NA
ATOM      9  C   UNL     1      -2.711  -3.284  -3.022  0.00  0.00    +0.078 A 
ATOM     10  C   UNL     1      -3.363  -4.196  -2.166  0.00  0.00    +0.029 A 
ATOM     11  C   UNL     1      -4.498  -4.831  -2.567  0.00  0.00    +0.002 A 
ATOM     12  C   UNL     1      -5.052  -4.609  -3.820  0.00  0.00    +0.001 A 
ATOM     13  C   UNL     1      -4.442  -3.722  -4.687  0.00  0.00    +0.017 A 
ATOM     14  C   UNL     1      -3.296  -3.076  -4.292  0.00  0.00    +0.039 A 
ATOM     15  S   UNL     1      -2.192  -1.891  -5.016  0.00  0.00    -0.072 S 
ENDBRANCH   6   7
BRANCH   1  18
ATOM     16  C   UNL     1      -0.424   1.426  -0.003  0.00  0.00    +0.132 C 
ATOM     17  N   UNL     1      -0.193  -0.021  -0.004  0.00  0.00    -0.300 N 
ATOM     18  C   UNL     1       0.000  -0.672  -1.169  0.00  0.00    +0.220 C 
ATOM     19  O   UNL     1       0.192  -1.869  -1.170  0.00  0.00    -0.275 OA
BRANCH  17  20
ATOM     20  C   UNL     1      -0.171  -0.760   1.260  0.00  0.00    +0.143 C 
BRANCH  20  21
ATOM     21  C   UNL     1      -1.562  -1.238   1.587  0.00  0.00    -0.023 A 
ATOM     22  C   UNL     1      -2.419  -0.447   2.330  0.00  0.00    +0.013 A 
ATOM     23  C   UNL     1      -3.664  -0.906   2.606  0.00  0.00    +0.045 A 
ATOM     24  S   UNL     1      -3.655  -2.502   1.807  0.00  0.00    -0.105 S 
ATOM     25  C   UNL     1      -1.994  -2.447   1.153  0.00  0.00    +0.050 A 
ENDBRANCH  20  21
ENDBRANCH  17  20
ENDBRANCH   1  18
TORSDOF 4
