REMARK  Name = ZINC39531439
REMARK  11 active torsions:
REMARK  status: ('A' for Active; 'I' for Inactive)
REMARK    1  A    between atoms: C_1  and  S_2
REMARK    2  A    between atoms: S_2  and  N_3
REMARK    3  A    between atoms: N_3  and  C_4
REMARK    4  A    between atoms: C_4  and  C_5
REMARK    5  A    between atoms: C_5  and  C_7
REMARK    6  A    between atoms: C_5  and  N_20
REMARK    7  A    between atoms: C_10  and  C_13
REMARK    8  A    between atoms: C_13  and  C_14
REMARK    9  A    between atoms: C_24  and  S_27
REMARK   10  A    between atoms: S_27  and  O_30
REMARK   11  A    between atoms: O_30  and  C_31
REMARK                            x       y       z     vdW  Elec       q    Type
REMARK                         _______ _______ _______ _____ _____    ______ ____
ROOT
ATOM      1  C   UNL     1       2.134  -2.216   2.580  0.00  0.00    +0.101 C 
ENDROOT
BRANCH   1   2
ATOM      2  N   UNL     1       2.010  -1.668   3.938  0.00  0.00    -0.296 NA
ATOM      3  C   UNL     1       2.622  -0.335   4.026  0.00  0.00    +0.066 C 
ATOM      4  C   UNL     1       2.419   0.224   5.436  0.00  0.00    -0.064 C 
ATOM      5  N   UNL     1       3.035  -0.682   6.415  0.00  0.00    +0.398 N 
ATOM      6  C   UNL     1       2.396  -2.002   6.332  0.00  0.00    +0.130 C 
ATOM      7  C   UNL     1       2.599  -2.580   4.929  0.00  0.00    +0.095 C 
ATOM      8  H   UNL     1       4.020  -0.772   6.217  0.00  0.00    -0.083 HD
ATOM      9  H   UNL     1       2.912  -0.307   7.344  0.00  0.00    -0.083 HD
BRANCH   6  10
ATOM     10  S   UNL     1       3.143  -3.114   7.556  0.00  0.00    +0.109 S 
ATOM     11  O   UNL     1       2.420  -4.336   7.613  0.00  0.00    -0.138 OA
ATOM     12  O   UNL     1       4.557  -3.114   7.419  0.00  0.00    -0.138 OA
BRANCH  10  13
ATOM     13  O   UNL     1       2.883  -2.446   8.899  0.00  0.00    -0.347 OA
BRANCH  13  14
ATOM     14  C   UNL     1       1.600  -2.556   9.332  0.00  0.00    +0.156 A 
ATOM     15  C   UNL     1       0.665  -1.591   8.987  0.00  0.00    +0.048 A 
ATOM     16  C   UNL     1      -0.639  -1.706   9.428  0.00  0.00    +0.004 A 
ATOM     17  C   UNL     1      -1.013  -2.780  10.214  0.00  0.00    +0.000 A 
ATOM     18  C   UNL     1      -0.083  -3.743  10.560  0.00  0.00    +0.004 A 
ATOM     19  C   UNL     1       1.221  -3.637  10.116  0.00  0.00    +0.048 A 
ENDBRANCH  13  14
ENDBRANCH  10  13
ENDBRANCH   6  10
ENDBRANCH   1   2
BRANCH   1  20
ATOM     20  C   UNL     1       1.942  -3.710   2.622  0.00  0.00    -0.029 A 
ATOM     21  C   UNL     1       0.838  -4.248   3.256  0.00  0.00    +0.005 A 
ATOM     22  C   UNL     1       0.662  -5.618   3.294  0.00  0.00    +0.004 A 
ATOM     23  C   UNL     1       1.590  -6.451   2.697  0.00  0.00    -0.043 A 
ATOM     24  C   UNL     1       2.693  -5.913   2.062  0.00  0.00    +0.004 A 
ATOM     25  C   UNL     1       2.867  -4.542   2.020  0.00  0.00    +0.005 A 
BRANCH  23  26
ATOM     26  C   UNL     1       1.399  -7.945   2.740  0.00  0.00    +0.070 C 
BRANCH  26  27
ATOM     27  C   UNL     1       0.605  -8.384   1.536  0.00  0.00    -0.043 A 
ATOM     28  C   UNL     1      -0.775  -8.433   1.599  0.00  0.00    +0.004 A 
ATOM     29  C   UNL     1      -1.504  -8.835   0.495  0.00  0.00    +0.000 A 
ATOM     30  C   UNL     1      -0.852  -9.189  -0.671  0.00  0.00    +0.000 A 
ATOM     31  C   UNL     1       0.528  -9.140  -0.734  0.00  0.00    +0.000 A 
ATOM     32  C   UNL     1       1.256  -8.733   0.368  0.00  0.00    +0.004 A 
ENDBRANCH  26  27
ENDBRANCH  23  26
ENDBRANCH   1  20
BRANCH   1  33
ATOM     33  C   UNL     1       1.068  -1.589   1.679  0.00  0.00    +0.117 C 
BRANCH  33  34
ATOM     34  N   UNL     1       1.175  -0.126   1.738  0.00  0.00    -0.262 NA
ATOM     35  H   UNL     1       0.754   0.233   2.582  0.00  0.00    +0.135 HD
BRANCH  34  37
ATOM     36  C   UNL     1       0.691   2.399   0.577  0.00  0.00    +0.102 C 
ATOM     37  S   UNL     1       0.459   0.620   0.308  0.00  0.00    -0.084 S 
ENDBRANCH  34  37
ENDBRANCH  33  34
ENDBRANCH   1  33
TORSDOF 10
