REMARK  Name = ZINC19940608
REMARK  8 active torsions:
REMARK  status: ('A' for Active; 'I' for Inactive)
REMARK    1  A    between atoms: C_1  and  C_2
REMARK    2  A    between atoms: C_7  and  C_14
REMARK    3  A    between atoms: C_14  and  C_16
REMARK    4  A    between atoms: C_14  and  N_28
REMARK    5  A    between atoms: N_20  and  C_21
REMARK    6  A    between atoms: C_21  and  C_22
REMARK    7  A    between atoms: N_31  and  C_34
REMARK    8  A    between atoms: C_34  and  C_35
REMARK                            x       y       z     vdW  Elec       q    Type
REMARK                         _______ _______ _______ _____ _____    ______ ____
ROOT
ATOM      1  C   UNL     1       3.512   0.638  -0.028  0.00  0.00    +0.162 C 
ENDROOT
BRANCH   1   8
ATOM      2  C   UNL     1       6.608  -0.439   7.244  0.00  0.00    +0.044 C 
ATOM      3  C   UNL     1       6.113  -0.020   5.883  0.00  0.00    -0.048 A 
ATOM      4  C   UNL     1       6.381   1.260   5.419  0.00  0.00    +0.004 A 
ATOM      5  C   UNL     1       5.941   1.660   4.189  0.00  0.00    +0.010 A 
ATOM      6  C   UNL     1       5.213   0.772   3.391  0.00  0.00    -0.001 A 
ATOM      7  C   UNL     1       4.731   1.165   2.065  0.00  0.00    +0.021 A 
ATOM      8  C   UNL     1       4.027   0.263   1.338  0.00  0.00    +0.042 A 
ATOM      9  C   UNL     1       3.780  -1.027   1.853  0.00  0.00    +0.254 A 
ATOM     10  O   UNL     1       3.149  -1.825   1.180  0.00  0.00    -0.268 OA
ATOM     11  N   UNL     1       4.223  -1.400   3.067  0.00  0.00    -0.322 N 
ATOM     12  H   UNL     1       4.014  -2.413   3.441  0.00  0.00    +0.169 HD
ATOM     13  C   UNL     1       4.939  -0.528   3.858  0.00  0.00    +0.049 A 
ATOM     14  C   UNL     1       5.398  -0.912   5.114  0.00  0.00    +0.029 A 
ENDBRANCH   1   8
BRANCH   1  15
ATOM     15  N   UNL     1       3.993  -0.335  -1.017  0.00  0.00    -0.286 NA
ATOM     16  C   UNL     1       5.460  -0.427  -0.995  0.00  0.00    +0.101 C 
ATOM     17  C   UNL     1       5.915  -1.506  -1.981  0.00  0.00    +0.100 C 
ATOM     18  N   UNL     1       5.431  -1.171  -3.327  0.00  0.00    -0.296 NA
ATOM     19  C   UNL     1       3.965  -1.079  -3.349  0.00  0.00    +0.100 C 
ATOM     20  C   UNL     1       3.509  -0.001  -2.364  0.00  0.00    +0.101 C 
BRANCH  18  21
ATOM     21  C   UNL     1       5.913  -2.144  -4.317  0.00  0.00    +0.119 C 
BRANCH  21  22
ATOM     22  C   UNL     1       7.411  -2.036  -4.440  0.00  0.00    -0.033 A 
ATOM     23  C   UNL     1       7.967  -1.174  -5.367  0.00  0.00    +0.005 A 
ATOM     24  C   UNL     1       9.341  -1.071  -5.477  0.00  0.00    +0.000 A 
ATOM     25  C   UNL     1      10.159  -1.837  -4.668  0.00  0.00    +0.000 A 
ATOM     26  C   UNL     1       9.603  -2.703  -3.744  0.00  0.00    +0.000 A 
ATOM     27  C   UNL     1       8.229  -2.802  -3.631  0.00  0.00    +0.005 A 
ENDBRANCH  21  22
ENDBRANCH  18  21
ENDBRANCH   1  15
BRANCH   1  28
ATOM     28  C   UNL     1       2.005   0.637  -0.014  0.00  0.00    +0.173 A 
ATOM     29  N   UNL     1       1.223  -0.415  -0.012  0.00  0.00    -0.111 NA
ATOM     30  N   UNL     1       0.002  -0.004   0.002  0.00  0.00    -0.023 NA
ATOM     31  N   UNL     1      -0.015   1.283   0.009  0.00  0.00    -0.044 NA
ATOM     32  N   UNL     1       1.200   1.716  -0.000  0.00  0.00    -0.225 N 
BRANCH  32  33
ATOM     33  C   UNL     1       1.625   3.118   0.003  0.00  0.00    +0.179 C 
BRANCH  33  34
ATOM     34  C   UNL     1       1.787   3.599   1.446  0.00  0.00    +0.140 C 
ATOM     35  C   UNL     1       2.288   5.064   1.472  0.00  0.00    +0.035 C 
ATOM     36  C   UNL     1       1.773   5.528   2.862  0.00  0.00    +0.031 C 
ATOM     37  C   UNL     1       0.447   4.749   2.996  0.00  0.00    +0.160 C 
ATOM     38  O   UNL     1       0.512   3.627   2.108  0.00  0.00    -0.375 OA
ENDBRANCH  33  34
ENDBRANCH  32  33
ENDBRANCH   1  28
TORSDOF 7
