REMARK  Name = ZINC63571828
REMARK  2 active torsions:
REMARK  status: ('A' for Active; 'I' for Inactive)
REMARK    1  A    between atoms: C_8  and  C_29
REMARK    2  A    between atoms: N_18  and  C_19
REMARK                            x       y       z     vdW  Elec       q    Type
REMARK                         _______ _______ _______ _____ _____    ______ ____
ROOT
ATOM      1  C   UNL     1       0.362   1.484  -0.581  0.00  0.00    +0.001 A 
ATOM      2  C   UNL     1       1.598   2.143  -0.565  0.00  0.00    +0.002 A 
ATOM      3  C   UNL     1       2.772   1.486  -0.449  0.00  0.00    +0.026 A 
ATOM      4  C   UNL     1       2.797   0.070  -0.337  0.00  0.00    +0.043 A 
ATOM      5  N   UNL     1       3.791  -0.778  -0.196  0.00  0.00    -0.375 N 
ATOM      6  C   UNL     1       3.250  -2.135  -0.207  0.00  0.00    +0.131 C 
ATOM      7  C   UNL     1       3.622  -2.909   1.062  0.00  0.00    +0.134 C 
ATOM      8  N   UNL     1       2.728  -4.074   1.159  0.00  0.00    -0.276 N 
ATOM      9  C   UNL     1       1.275  -3.896   1.239  0.00  0.00    +0.114 C 
ATOM     10  C   UNL     1       0.788  -3.120   0.001  0.00  0.00    +0.052 C 
ATOM     11  C   UNL     1       1.740  -1.966  -0.217  0.00  0.00    -0.035 C 
ATOM     12  C   UNL     1       1.501  -0.653  -0.344  0.00  0.00    -0.001 A 
ATOM     13  C   UNL     1       0.271   0.139  -0.477  0.00  0.00    +0.010 A 
ATOM     14  C   UNL     1       3.251  -5.316   1.173  0.00  0.00    +0.303 C 
ATOM     15  O   UNL     1       4.457  -5.469   1.205  0.00  0.00    -0.253 OA
ATOM     16  N   UNL     1       2.436  -6.390   1.152  0.00  0.00    -0.294 N 
ATOM     17  H   UNL     1       1.479  -6.271   1.050  0.00  0.00    +0.151 HD
ATOM     18  H   UNL     1       4.727  -0.542  -0.100  0.00  0.00    +0.160 HD
ENDROOT
BRANCH  16  19
ATOM     19  C   UNL     1       2.997  -7.737   1.282  0.00  0.00    +0.037 C 
ATOM     20  C   UNL     1       3.978  -7.995   0.137  0.00  0.00    +0.029 C 
ATOM     21  C   UNL     1       4.563  -9.402   0.273  0.00  0.00    -0.008 C 
ATOM     22  C   UNL     1       3.433 -10.432   0.218  0.00  0.00    +0.007 C 
ATOM     23  C   UNL     1       2.452 -10.174   1.363  0.00  0.00    -0.008 C 
ATOM     24  C   UNL     1       1.867  -8.767   1.227  0.00  0.00    +0.029 C 
ATOM     25  C   UNL     1       3.186 -10.294   2.700  0.00  0.00    +0.007 C 
ATOM     26  C   UNL     1       4.316  -9.264   2.755  0.00  0.00    -0.008 C 
ATOM     27  C   UNL     1       5.297  -9.521   1.610  0.00  0.00    +0.007 C 
ATOM     28  C   UNL     1       3.731  -7.857   2.619  0.00  0.00    +0.029 C 
ENDBRANCH  16  19
BRANCH   7  29
ATOM     29  C   UNL     1       3.441  -2.026   2.270  0.00  0.00    -0.025 A 
ATOM     30  C   UNL     1       4.525  -1.725   3.074  0.00  0.00    +0.008 A 
ATOM     31  C   UNL     1       4.361  -0.914   4.181  0.00  0.00    +0.038 A 
ATOM     32  C   UNL     1       3.110  -0.403   4.485  0.00  0.00    +0.123 A 
ATOM     33  C   UNL     1       2.026  -0.705   3.679  0.00  0.00    +0.038 A 
ATOM     34  C   UNL     1       2.193  -1.512   2.570  0.00  0.00    +0.008 A 
ATOM     35  F   UNL     1       2.949   0.389   5.568  0.00  0.00    -0.205 F 
ENDBRANCH   7  29
TORSDOF 2
