REMARK  Name = ZINC08266324
REMARK  5 active torsions:
REMARK  status: ('A' for Active; 'I' for Inactive)
REMARK    1  A    between atoms: C_1  and  C_2
REMARK    2  A    between atoms: C_2  and  C_17
REMARK    3  A    between atoms: N_5  and  C_9
REMARK    4  A    between atoms: C_9  and  C_10
REMARK    5  A    between atoms: C_17  and  C_18
REMARK                            x       y       z     vdW  Elec       q    Type
REMARK                         _______ _______ _______ _____ _____    ______ ____
ROOT
ATOM      1  C   UNL     1      -1.184   5.596  -2.138  0.00  0.00    +0.042 C 
ATOM      2  C   UNL     1      -2.352   4.944  -1.395  0.00  0.00    +0.114 C 
ATOM      3  C   UNL     1      -3.569   5.846  -1.411  0.00  0.00    +0.247 C 
ATOM      4  O   UNL     1      -3.663   6.958  -0.937  0.00  0.00    -0.273 OA
ATOM      5  N   UNL     1      -4.527   5.156  -2.061  0.00  0.00    -0.220 N 
ATOM      6  C   UNL     1      -4.088   3.954  -2.454  0.00  0.00    +0.310 C 
ATOM      7  O   UNL     1      -4.770   3.151  -3.058  0.00  0.00    -0.252 OA
ATOM      8  N   UNL     1      -2.807   3.736  -2.104  0.00  0.00    -0.285 N 
ATOM      9  H   UNL     1      -2.286   2.938  -2.284  0.00  0.00    +0.151 HD
ENDROOT
BRANCH   5  10
ATOM     10  C   UNL     1      -5.881   5.658  -2.307  0.00  0.00    +0.153 C 
BRANCH  10  11
ATOM     11  C   UNL     1      -6.777   5.269  -1.159  0.00  0.00    -0.029 A 
ATOM     12  C   UNL     1      -7.468   4.073  -1.196  0.00  0.00    +0.006 A 
ATOM     13  C   UNL     1      -8.286   3.713  -0.141  0.00  0.00    +0.020 A 
ATOM     14  C   UNL     1      -8.420   4.556   0.948  0.00  0.00    +0.041 A 
ATOM     15  C   UNL     1      -7.732   5.755   0.982  0.00  0.00    +0.020 A 
ATOM     16  C   UNL     1      -6.911   6.112  -0.071  0.00  0.00    +0.006 A 
ATOM     17 CL   UNL     1      -9.451   4.108   2.270  0.00  0.00    -0.084 Cl
ENDBRANCH  10  11
ENDBRANCH   5  10
BRANCH   2  18
ATOM     18  C   UNL     1      -1.952   4.605   0.043  0.00  0.00    +0.070 C 
BRANCH  18  19
ATOM     19  C   UNL     1      -0.808   3.623   0.028  0.00  0.00    -0.041 A 
ATOM     20  C   UNL     1       0.495   4.083   0.018  0.00  0.00    +0.007 A 
ATOM     21  C   UNL     1       1.547   3.187   0.004  0.00  0.00    +0.050 A 
ATOM     22  C   UNL     1       1.297   1.824  -0.001  0.00  0.00    +0.166 A 
ATOM     23  C   UNL     1      -0.016   1.361   0.009  0.00  0.00    +0.166 A 
ATOM     24  C   UNL     1      -1.066   2.265   0.019  0.00  0.00    +0.053 A 
ATOM     25  O   UNL     1       0.002  -0.004   0.002  0.00  0.00    -0.453 OA
ATOM     26  C   UNL     1       1.336  -0.373   0.399  0.00  0.00    +0.466 C 
ATOM     27  O   UNL     1       2.138   0.749  -0.014  0.00  0.00    -0.453 OA
ENDBRANCH  18  19
ENDBRANCH   2  18
TORSDOF 4
