REMARK  Name = ZINC29134258
REMARK  12 active torsions:
REMARK  status: ('A' for Active; 'I' for Inactive)
REMARK    1  A    between atoms: C_1  and  C_2
REMARK    2  A    between atoms: C_6  and  C_8
REMARK    3  A    between atoms: C_8  and  N_9
REMARK    4  A    between atoms: C_12  and  C_28
REMARK    5  A    between atoms: N_18  and  C_19
REMARK    6  A    between atoms: N_22  and  C_25
REMARK    7  A    between atoms: C_25  and  C_26
REMARK    8  A    between atoms: C_26  and  O_27
REMARK    9  A    between atoms: C_28  and  N_29
REMARK   10  A    between atoms: N_29  and  C_30
REMARK   11  A    between atoms: C_32  and  C_37
REMARK   12  A    between atoms: C_34  and  C_36
REMARK                            x       y       z     vdW  Elec       q    Type
REMARK                         _______ _______ _______ _____ _____    ______ ____
ROOT
ATOM      1  N   UNL     1      -4.487   3.878  -1.993  0.00  0.00    -0.307 N 
ATOM      2  C   UNL     1      -4.522   4.641  -0.838  0.00  0.00    +0.069 A 
ATOM      3  C   UNL     1      -4.333   4.360   0.506  0.00  0.00    +0.033 A 
ATOM      4  C   UNL     1      -4.439   5.369   1.441  0.00  0.00    -0.028 A 
ATOM      5  C   UNL     1      -4.734   6.665   1.044  0.00  0.00    +0.007 A 
ATOM      6  C   UNL     1      -4.925   6.963  -0.286  0.00  0.00    +0.028 A 
ATOM      7  C   UNL     1      -4.821   5.952  -1.245  0.00  0.00    +0.066 A 
ATOM      8  N   UNL     1      -4.952   5.931  -2.597  0.00  0.00    -0.327 N 
ATOM      9  C   UNL     1      -4.751   4.714  -3.040  0.00  0.00    +0.175 A 
ATOM     10  N   UNL     1      -4.801   4.335  -4.364  0.00  0.00    -0.314 N 
ATOM     11  H   UNL     1      -4.713   3.399  -4.604  0.00  0.00    +0.149 HD
ATOM     12  H   UNL     1      -5.159   6.700  -3.151  0.00  0.00    +0.169 HD
ENDROOT
BRANCH  10  13
ATOM     13  C   UNL     1      -4.986   5.345  -5.409  0.00  0.00    +0.070 C 
ATOM     14  C   UNL     1      -6.481   5.622  -5.595  0.00  0.00    +0.003 C 
ATOM     15  C   UNL     1      -6.671   6.617  -6.741  0.00  0.00    -0.077 C 
ATOM     16  N   UNL     1      -6.119   6.055  -7.979  0.00  0.00    +0.381 N 
ATOM     17  C   UNL     1      -4.673   5.854  -7.833  0.00  0.00    -0.077 C 
ATOM     18  C   UNL     1      -4.405   4.829  -6.729  0.00  0.00    +0.003 C 
ATOM     19  H   UNL     1      -6.563   5.170  -8.172  0.00  0.00    -0.082 HD
BRANCH  16  20
ATOM     20  C   UNL     1      -6.374   6.980  -9.091  0.00  0.00    -0.051 C 
BRANCH  20  21
ATOM     21  C   UNL     1      -5.911   6.342 -10.402  0.00  0.00    +0.137 C 
BRANCH  21  22
ATOM     22  O   UNL     1      -6.710   5.189 -10.679  0.00  0.00    -0.397 OA
ATOM     23  H   UNL     1      -6.471   4.733 -11.497  0.00  0.00    +0.209 HD
ENDBRANCH  21  22
ENDBRANCH  20  21
ENDBRANCH  16  20
ENDBRANCH  10  13
BRANCH   1  24
ATOM     24  C   UNL     1      -4.213   2.441  -2.077  0.00  0.00    +0.182 C 
BRANCH  24  30
ATOM     25  C   UNL     1      -7.753   0.358  -4.712  0.00  0.00    +0.063 C 
ATOM     26  C   UNL     1      -7.186   0.699  -3.357  0.00  0.00    +0.013 A 
ATOM     27  C   UNL     1      -7.865   0.311  -2.217  0.00  0.00    +0.024 A 
ATOM     28  C   UNL     1      -7.338   0.628  -0.976  0.00  0.00    +0.054 A 
ATOM     29  C   UNL     1      -6.137   1.329  -0.927  0.00  0.00    +0.200 A 
ATOM     30  C   UNL     1      -5.514   1.682  -2.115  0.00  0.00    +0.083 A 
ATOM     31  N   UNL     1      -6.047   1.357  -3.276  0.00  0.00    -0.358 N 
ATOM     32  O   UNL     1      -5.581   1.662   0.268  0.00  0.00    -0.286 OA
ATOM     33  H   UNL     1      -5.590   1.612  -4.093  0.00  0.00    +0.165 HD
ENDBRANCH  24  30
ENDBRANCH   1  24
BRANCH   4  34
ATOM     34  C   UNL     1      -4.233   5.062   2.902  0.00  0.00    +0.137 C 
BRANCH  34  35
ATOM     35  N   UNL     1      -2.818   5.228   3.241  0.00  0.00    -0.340 N 
ATOM     36  H   UNL     1      -2.184   5.498   2.559  0.00  0.00    +0.146 HD
BRANCH  35  37
ATOM     37  C   UNL     1      -2.381   4.997   4.548  0.00  0.00    +0.028 A 
ATOM     38  C   UNL     1      -3.287   4.604   5.525  0.00  0.00    +0.026 A 
ATOM     39  C   UNL     1      -2.852   4.375   6.816  0.00  0.00    -0.048 A 
ATOM     40  C   UNL     1      -1.516   4.538   7.136  0.00  0.00    +0.006 A 
ATOM     41  C   UNL     1      -0.612   4.929   6.165  0.00  0.00    -0.048 A 
ATOM     42  C   UNL     1      -1.039   5.153   4.872  0.00  0.00    +0.026 A 
ATOM     43  C   UNL     1       0.842   5.105   6.519  0.00  0.00    +0.044 C 
ATOM     44  C   UNL     1      -3.834   3.949   7.877  0.00  0.00    +0.044 C 
ENDBRANCH  35  37
ENDBRANCH  34  35
ENDBRANCH   4  34
TORSDOF 9
