REMARK  Name = ZINC44989150
REMARK  6 active torsions:
REMARK  status: ('A' for Active; 'I' for Inactive)
REMARK    1  A    between atoms: C_1  and  C_2
REMARK    2  A    between atoms: C_2  and  C_4
REMARK    3  A    between atoms: C_2  and  N_16
REMARK    4  A    between atoms: C_4  and  N_5
REMARK    5  A    between atoms: N_5  and  C_6
REMARK    6  A    between atoms: C_11  and  N_12
REMARK                            x       y       z     vdW  Elec       q    Type
REMARK                         _______ _______ _______ _____ _____    ______ ____
ROOT
ATOM      1  N   UNL     1       0.451  -1.947   1.486  0.00  0.00    -0.344 N 
ATOM      2  H   UNL     1       0.014  -2.451   0.782  0.00  0.00    +0.146 HD
ENDROOT
BRANCH   1   3
ATOM      3  C   UNL     1       0.872  -2.597   2.657  0.00  0.00    +0.050 A 
ATOM      4  C   UNL     1       1.491  -1.859   3.662  0.00  0.00    +0.026 A 
ATOM      5  C   UNL     1       1.907  -2.496   4.816  0.00  0.00    +0.019 A 
ATOM      6  C   UNL     1       1.704  -3.848   4.958  0.00  0.00    +0.041 A 
ATOM      7  C   UNL     1       1.080  -4.631   3.963  0.00  0.00    +0.100 A 
ATOM      8  C   UNL     1       0.659  -3.956   2.793  0.00  0.00    +0.073 A 
ATOM      9  N   UNL     1       0.976  -5.936   4.293  0.00  0.00    -0.246 NA
ATOM     10  C   UNL     1       1.415  -6.401   5.425  0.00  0.00    +0.157 A 
ATOM     11  S   UNL     1       2.052  -5.056   6.211  0.00  0.00    -0.075 S 
BRANCH   8  12
ATOM     12  N   UNL     1       0.028  -4.669   1.765  0.00  0.00    -0.355 N 
ATOM     13  H   UNL     1      -0.259  -4.210   0.961  0.00  0.00    +0.142 HD
ATOM     14  H   UNL     1      -0.123  -5.623   1.858  0.00  0.00    +0.142 HD
ENDBRANCH   8  12
ENDBRANCH   1   3
BRANCH   1  15
ATOM     15  C   UNL     1       0.669  -0.507   1.328  0.00  0.00    +0.086 C 
BRANCH  15  17
ATOM     16  C   UNL     1       0.136   1.491  -0.074  0.00  0.00    -0.012 C 
ATOM     17  C   UNL     1       0.007  -0.030   0.034  0.00  0.00    -0.054 C 
BRANCH  17  18
ATOM     18  N   UNL     1      -1.414  -0.401   0.045  0.00  0.00    +0.382 N 
ATOM     19  C   UNL     1      -2.014  -0.074  -1.254  0.00  0.00    -0.078 C 
ATOM     20  C   UNL     1      -3.473  -0.533  -1.277  0.00  0.00    -0.019 C 
ATOM     21  C   UNL     1      -4.244   0.181  -0.163  0.00  0.00    -0.004 C 
ATOM     22  C   UNL     1      -3.566  -0.107   1.180  0.00  0.00    -0.019 C 
ATOM     23  C   UNL     1      -2.103   0.336   1.111  0.00  0.00    -0.078 C 
ATOM     24  H   UNL     1      -1.500  -1.392   0.213  0.00  0.00    -0.081 HD
ENDBRANCH  17  18
ENDBRANCH  15  17
ENDBRANCH   1  15
TORSDOF 5
