REMARK  Name = ZINC09003858
REMARK  7 active torsions:
REMARK  status: ('A' for Active; 'I' for Inactive)
REMARK    1  A    between atoms: C_1  and  O_2
REMARK    2  A    between atoms: O_2  and  C_3
REMARK    3  A    between atoms: C_3  and  C_4
REMARK    4  A    between atoms: C_4  and  N_5
REMARK    5  A    between atoms: N_5  and  C_6
REMARK    6  A    between atoms: C_7  and  C_17
REMARK    7  A    between atoms: N_21  and  C_25
REMARK                            x       y       z     vdW  Elec       q    Type
REMARK                         _______ _______ _______ _____ _____    ______ ____
ROOT
ATOM      1  C   UNL     1      -1.713  -3.252   0.052  0.00  0.00    +0.134 A 
ATOM      2  C   UNL     1      -0.705  -2.260   0.064  0.00  0.00    +0.081 A 
ATOM      3  C   UNL     1       0.646  -2.675   0.128  0.00  0.00    +0.267 A 
ATOM      4  O   UNL     1       1.548  -1.855   0.136  0.00  0.00    -0.267 OA
ATOM      5  N   UNL     1       0.920  -3.997   0.184  0.00  0.00    -0.268 N 
ATOM      6  C   UNL     1       2.219  -4.406   0.252  0.00  0.00    +0.096 A 
ATOM      7  C   UNL     1       2.529  -5.721   0.304  0.00  0.00    +0.018 A 
ATOM      8  C   UNL     1       1.510  -6.684   0.290  0.00  0.00    +0.005 A 
ATOM      9  C   UNL     1       0.208  -6.285   0.224  0.00  0.00    +0.047 A 
ATOM     10  C   UNL     1      -0.095  -4.912   0.170  0.00  0.00    +0.142 A 
ATOM     11  N   UNL     1      -1.371  -4.532   0.105  0.00  0.00    -0.214 NA
ENDROOT
BRANCH   2  12
ATOM     12  C   UNL     1      -1.039  -0.886   0.008  0.00  0.00    +0.037 C 
ATOM     13  C   UNL     1      -1.878  -0.350   0.941  0.00  0.00    +0.077 C 
ATOM     14  C   UNL     1      -2.436   0.959   1.012  0.00  0.00    +0.259 C 
ATOM     15  O   UNL     1      -2.183   1.794   0.162  0.00  0.00    -0.269 OA
ATOM     16  N   UNL     1      -3.232   1.242   2.027  0.00  0.00    -0.251 N 
ATOM     17  C   UNL     1      -3.509   0.317   2.973  0.00  0.00    +0.121 C 
ATOM     18  S   UNL     1      -4.503   0.462   4.360  0.00  0.00    -0.027 S 
ATOM     19  S   UNL     1      -2.575  -1.097   2.407  0.00  0.00    -0.061 S 
BRANCH  16  20
ATOM     20  C   UNL     1      -3.823   2.579   2.131  0.00  0.00    +0.105 C 
ATOM     21  C   UNL     1      -5.357   2.472   2.109  0.00  0.00    +0.047 C 
ATOM     22  C   UNL     1      -5.986   3.820   2.536  0.00  0.00    +0.168 C 
ATOM     23  S   UNL     1      -4.698   4.537   3.635  0.00  0.00    -0.029 S 
ATOM     24  O   UNL     1      -4.216   5.743   3.057  0.00  0.00    -0.174 OA
ATOM     25  O   UNL     1      -5.183   4.546   4.971  0.00  0.00    -0.174 OA
ATOM     26  C   UNL     1      -3.403   3.236   3.476  0.00  0.00    +0.188 C 
ENDBRANCH  16  20
ENDBRANCH   2  12
BRANCH   1  27
ATOM     27  N   UNL     1      -3.041  -2.892  -0.014  0.00  0.00    -0.326 N 
ATOM     28  H   UNL     1      -3.288  -1.954  -0.052  0.00  0.00    +0.148 HD
BRANCH  27  29
ATOM     29  C   UNL     1      -4.081  -3.924  -0.026  0.00  0.00    +0.131 C 
BRANCH  29  30
ATOM     30  C   UNL     1      -5.457  -3.261  -0.103  0.00  0.00    +0.178 C 
BRANCH  30  32
ATOM     31  C   UNL     1      -6.844  -1.920  -1.526  0.00  0.00    +0.194 C 
ATOM     32  O   UNL     1      -5.588  -2.578  -1.352  0.00  0.00    -0.381 OA
ENDBRANCH  30  32
ENDBRANCH  29  30
ENDBRANCH  27  29
ENDBRANCH   1  27
TORSDOF 6
