REMARK  Name = ZINC09296035
REMARK  8 active torsions:
REMARK  status: ('A' for Active; 'I' for Inactive)
REMARK    1  A    between atoms: C_1  and  C_2
REMARK    2  A    between atoms: C_2  and  N_3
REMARK    3  A    between atoms: C_7  and  C_8
REMARK    4  A    between atoms: C_10  and  O_16
REMARK    5  A    between atoms: C_11  and  O_15
REMARK    6  A    between atoms: O_16  and  C_17
REMARK    7  A    between atoms: N_20  and  C_21
REMARK    8  A    between atoms: C_24  and  C_27
REMARK                            x       y       z     vdW  Elec       q    Type
REMARK                         _______ _______ _______ _____ _____    ______ ____
ROOT
ATOM      1  N   UNL     1       0.342   0.100   0.227  0.00  0.00    -0.246 N 
ATOM      2  C   UNL     1       1.087   0.133  -0.865  0.00  0.00    +0.259 C 
ATOM      3  O   UNL     1       0.950  -0.688  -1.754  0.00  0.00    -0.269 OA
ATOM      4  C   UNL     1       2.094   1.208  -0.956  0.00  0.00    +0.078 C 
ATOM      5  C   UNL     1       2.982   1.475  -1.947  0.00  0.00    +0.028 C 
ATOM      6  S   UNL     1       1.829   2.063   0.591  0.00  0.00    -0.049 S 
ATOM      7  C   UNL     1       0.511   1.036   1.221  0.00  0.00    +0.168 C 
ATOM      8  N   UNL     1      -0.143   1.151   2.358  0.00  0.00    -0.225 NA
ENDROOT
BRANCH   5   9
ATOM      9  C   UNL     1       4.011   2.504  -1.753  0.00  0.00    -0.019 A 
ATOM     10  C   UNL     1       4.692   3.033  -2.857  0.00  0.00    +0.057 A 
ATOM     11  C   UNL     1       5.655   4.005  -2.668  0.00  0.00    +0.163 A 
ATOM     12  C   UNL     1       5.956   4.449  -1.381  0.00  0.00    +0.173 A 
ATOM     13  C   UNL     1       5.286   3.921  -0.285  0.00  0.00    +0.063 A 
ATOM     14  C   UNL     1       4.319   2.955  -0.464  0.00  0.00    +0.027 A 
ATOM     15 BR   UNL     1       5.701   4.529   1.457  0.00  0.00    -0.046 Br
BRANCH  12  16
ATOM     16  O   UNL     1       6.909   5.401  -1.199  0.00  0.00    -0.503 OA
ATOM     17  H   UNL     1       7.800   5.047  -1.073  0.00  0.00    +0.292 HD
ENDBRANCH  12  16
BRANCH  11  18
ATOM     18  O   UNL     1       6.314   4.525  -3.738  0.00  0.00    -0.491 OA
ATOM     19  C   UNL     1       5.955   4.024  -5.027  0.00  0.00    +0.277 C 
ENDBRANCH  11  18
ENDBRANCH   5   9
BRANCH   8  20
ATOM     20  C   UNL     1      -0.873   0.102   2.833  0.00  0.00    +0.067 A 
ATOM     21  C   UNL     1      -2.265   0.207   2.934  0.00  0.00    +0.028 A 
ATOM     22  C   UNL     1      -2.996  -0.845   3.404  0.00  0.00    +0.017 A 
ATOM     23  C   UNL     1      -2.352  -2.025   3.795  0.00  0.00    +0.063 A 
ATOM     24  C   UNL     1      -0.959  -2.128   3.699  0.00  0.00    +0.017 A 
ATOM     25  C   UNL     1      -0.229  -1.078   3.224  0.00  0.00    +0.028 A 
BRANCH  23  26
ATOM     26  C   UNL     1      -3.140  -3.158   4.308  0.00  0.00    +0.387 C 
ATOM     27  O   UNL     1      -2.582  -4.183   4.647  0.00  0.00    -0.241 OA
ATOM     28  O   UNL     1      -4.481  -3.059   4.400  0.00  0.00    -0.241 OA
ENDBRANCH  23  26
ENDBRANCH   8  20
BRANCH   1  30
ATOM     29  C   UNL     1      -1.964  -0.504  -0.322  0.00  0.00    +0.025 C 
ATOM     30  C   UNL     1      -0.676  -0.942   0.379  0.00  0.00    +0.112 C 
ENDBRANCH   1  30
TORSDOF 6
