REMARK  Name = ZINC28114241
REMARK  9 active torsions:
REMARK  status: ('A' for Active; 'I' for Inactive)
REMARK    1  A    between atoms: C_1  and  C_2
REMARK    2  A    between atoms: C_2  and  C_3
REMARK    3  A    between atoms: C_2  and  C_4
REMARK    4  A    between atoms: C_2  and  C_5
REMARK    5  A    between atoms: N_8  and  N_14
REMARK    6  A    between atoms: C_9  and  S_12
REMARK    7  A    between atoms: S_12  and  C_13
REMARK    8  A    between atoms: C_15  and  C_16
REMARK    9  A    between atoms: C_21  and  O_22
REMARK                            x       y       z     vdW  Elec       q    Type
REMARK                         _______ _______ _______ _____ _____    ______ ____
ROOT
ATOM      1  C   UNL     1       4.634   0.745  -0.097  0.00  0.00    +0.135 A 
ATOM      2  C   UNL     1       3.491   1.568  -0.037  0.00  0.00    +0.297 A 
ATOM      3  O   UNL     1       3.595   2.781   0.032  0.00  0.00    -0.264 OA
ATOM      4  N   UNL     1       2.275   0.975  -0.057  0.00  0.00    -0.169 N 
ATOM      5  C   UNL     1       2.215  -0.387  -0.129  0.00  0.00    +0.213 A 
ATOM      6  N   UNL     1       3.325  -1.103  -0.188  0.00  0.00    -0.122 NA
ATOM      7  N   UNL     1       4.489  -0.558  -0.170  0.00  0.00    -0.146 NA
ENDROOT
BRANCH   1   9
ATOM      8  C   UNL     1       7.062   0.246  -0.154  0.00  0.00    +0.017 C 
ATOM      9  C   UNL     1       6.011   1.356  -0.079  0.00  0.00    +0.012 C 
ATOM     10  C   UNL     1       6.171   2.292  -1.278  0.00  0.00    +0.017 C 
ATOM     11  C   UNL     1       6.200   2.149   1.216  0.00  0.00    +0.017 C 
ENDBRANCH   1   9
BRANCH   5  12
ATOM     12  S   UNL     1       0.649  -1.195  -0.151  0.00  0.00    -0.088 S 
ATOM     13  C   UNL     1       1.187  -2.921  -0.251  0.00  0.00    +0.093 C 
ENDBRANCH   5  12
BRANCH   4  14
ATOM     14  N   UNL     1       1.104   1.741   0.001  0.00  0.00    -0.169 NA
ATOM     15  C   UNL     1       0.798   2.536  -0.980  0.00  0.00    +0.145 C 
BRANCH  15  16
ATOM     16  C   UNL     1      -0.367   3.429  -0.869  0.00  0.00    +0.037 A 
ATOM     17  C   UNL     1      -0.696   4.290  -1.919  0.00  0.00    +0.028 A 
ATOM     18  C   UNL     1      -1.789   5.123  -1.808  0.00  0.00    +0.019 A 
ATOM     19  C   UNL     1      -2.563   5.112  -0.659  0.00  0.00    +0.019 A 
ATOM     20  C   UNL     1      -2.248   4.265   0.387  0.00  0.00    +0.047 A 
ATOM     21  C   UNL     1      -1.157   3.416   0.290  0.00  0.00    +0.126 A 
ATOM     22 BR   UNL     1      -2.233   6.288  -3.230  0.00  0.00    -0.050 Br
BRANCH  21  23
ATOM     23  O   UNL     1      -0.851   2.580   1.314  0.00  0.00    -0.506 OA
ATOM     24  H   UNL     1      -1.472   2.572   2.222  0.00  0.00    +0.292 HD
ENDBRANCH  21  23
ENDBRANCH  15  16
ENDBRANCH   4  14
TORSDOF 5
