REMARK  Name = ZINC26748960
REMARK  8 active torsions:
REMARK  status: ('A' for Active; 'I' for Inactive)
REMARK    1  A    between atoms: C_1  and  S_2
REMARK    2  A    between atoms: S_2  and  C_3
REMARK    3  A    between atoms: C_3  and  C_4
REMARK    4  A    between atoms: C_4  and  C_5
REMARK    5  A    between atoms: C_5  and  C_7
REMARK    6  A    between atoms: C_5  and  N_17
REMARK    7  A    between atoms: C_18  and  C_20
REMARK    8  A    between atoms: C_21  and  C_22
REMARK                            x       y       z     vdW  Elec       q    Type
REMARK                         _______ _______ _______ _____ _____    ______ ____
ROOT
ATOM      1  C   UNL     1       1.198  -2.127  -0.021  0.00  0.00    +0.140 C 
ENDROOT
BRANCH   1   2
ATOM      2  C   UNL     1       2.498  -2.615   0.565  0.00  0.00    +0.129 A 
ATOM      3  N   UNL     1       3.455  -1.817   1.110  0.00  0.00    -0.340 N 
ATOM      4  H   UNL     1       3.309  -0.727   1.145  0.00  0.00    +0.167 HD
ATOM      5  C   UNL     1       4.482  -2.637   1.532  0.00  0.00    +0.066 A 
ATOM      6  C   UNL     1       5.704  -2.415   2.153  0.00  0.00    +0.028 A 
ATOM      7  C   UNL     1       6.526  -3.483   2.443  0.00  0.00    +0.002 A 
ATOM      8  C   UNL     1       6.141  -4.776   2.120  0.00  0.00    +0.002 A 
ATOM      9  C   UNL     1       4.942  -5.014   1.509  0.00  0.00    +0.030 A 
ATOM     10  C   UNL     1       4.092  -3.947   1.205  0.00  0.00    +0.089 A 
ATOM     11  N   UNL     1       2.871  -3.860   0.617  0.00  0.00    -0.231 NA
ENDBRANCH   1   2
BRANCH   1  12
ATOM     12  N   UNL     1       1.178  -0.662  -0.013  0.00  0.00    -0.302 N 
ATOM     13  C   UNL     1       0.002  -0.004   0.002  0.00  0.00    +0.237 C 
ATOM     14  O   UNL     1      -1.044  -0.627   0.009  0.00  0.00    -0.271 OA
ATOM     15  H   UNL     1       2.123  -0.099  -0.019  0.00  0.00    +0.150 HD
BRANCH  13  16
ATOM     16  C   UNL     1      -0.018   1.460   0.010  0.00  0.00    +0.068 C 
ATOM     17  C   UNL     1      -1.195   2.118   0.019  0.00  0.00    +0.014 C 
BRANCH  17  18
ATOM     18  C   UNL     1      -1.215   3.589   0.027  0.00  0.00    -0.007 A 
ATOM     19  C   UNL     1      -0.015   4.309   0.025  0.00  0.00    +0.009 A 
ATOM     20  C   UNL     1      -0.042   5.687   0.033  0.00  0.00    +0.001 A 
ATOM     21  C   UNL     1      -1.252   6.360   0.041  0.00  0.00    +0.001 A 
ATOM     22  C   UNL     1      -2.443   5.657   0.043  0.00  0.00    +0.020 A 
ATOM     23  C   UNL     1      -2.434   4.276   0.031  0.00  0.00    +0.048 A 
ATOM     24 CL   UNL     1      -3.930   3.395   0.026  0.00  0.00    -0.083 Cl
ENDBRANCH  17  18
ENDBRANCH  13  16
ENDBRANCH   1  12
BRANCH   1  25
ATOM     25  C   UNL     1       1.066  -2.631  -1.459  0.00  0.00    +0.041 C 
BRANCH  25  26
ATOM     26  C   UNL     1      -0.307  -2.241  -2.012  0.00  0.00    +0.071 C 
BRANCH  26  28
ATOM     27  C   UNL     1      -2.123  -2.304  -4.219  0.00  0.00    +0.084 C 
ATOM     28  S   UNL     1      -0.464  -2.839  -3.717  0.00  0.00    -0.164 S 
ENDBRANCH  26  28
ENDBRANCH  25  26
ENDBRANCH   1  25
TORSDOF 7
