REMARK  Name = ZINC05558064
REMARK  4 active torsions:
REMARK  status: ('A' for Active; 'I' for Inactive)
REMARK    1  A    between atoms: C_11  and  C_14
REMARK    2  A    between atoms: C_14  and  C_15
REMARK    3  A    between atoms: N_17  and  N_18
REMARK    4  A    between atoms: C_19  and  C_21
REMARK                            x       y       z     vdW  Elec       q    Type
REMARK                         _______ _______ _______ _____ _____    ______ ____
ROOT
ATOM      1  C   UNL     1       2.928   6.015  -1.409  0.00  0.00    +0.234 C 
ATOM      2  O   UNL     1       2.128   6.030  -2.320  0.00  0.00    -0.274 OA
ATOM      3  N   UNL     1       4.240   5.842  -1.668  0.00  0.00    -0.234 N 
ATOM      4  H   UNL     1       4.880   5.829  -0.940  0.00  0.00    +0.173 HD
ENDROOT
BRANCH   3   5
ATOM      5  N   UNL     1       4.678   5.680  -2.989  0.00  0.00    -0.230 N 
ATOM      6  C   UNL     1       5.989   5.507  -3.248  0.00  0.00    +0.260 C 
ATOM      7  O   UNL     1       6.792   5.491  -2.335  0.00  0.00    -0.269 OA
ATOM      8  H   UNL     1       4.037   5.693  -3.717  0.00  0.00    +0.173 HD
BRANCH   6   9
ATOM      9  C   UNL     1       6.451   5.337  -4.640  0.00  0.00    +0.038 A 
ATOM     10  C   UNL     1       5.531   5.349  -5.690  0.00  0.00    +0.016 A 
ATOM     11  C   UNL     1       5.968   5.195  -6.989  0.00  0.00    +0.039 A 
ATOM     12  C   UNL     1       7.318   5.017  -7.252  0.00  0.00    +0.123 A 
ATOM     13  C   UNL     1       8.235   4.999  -6.212  0.00  0.00    +0.039 A 
ATOM     14  C   UNL     1       7.809   5.157  -4.911  0.00  0.00    +0.016 A 
ATOM     15  F   UNL     1       7.740   4.861  -8.525  0.00  0.00    -0.205 F 
ENDBRANCH   6   9
ENDBRANCH   3   5
BRANCH   1  16
ATOM     16  C   UNL     1       2.457   6.189   0.011  0.00  0.00    +0.136 C 
BRANCH  16  27
ATOM     17  C   UNL     1      -0.013   1.076   0.008  0.00  0.00    +0.001 A 
ATOM     18  C   UNL     1       1.189   1.778   0.000  0.00  0.00    +0.001 A 
ATOM     19  C   UNL     1       1.202   3.142   0.007  0.00  0.00    +0.009 A 
ATOM     20  C   UNL     1      -0.006   3.847   0.023  0.00  0.00    -0.007 A 
ATOM     21  C   UNL     1      -1.230   3.135   0.031  0.00  0.00    -0.017 A 
ATOM     22  C   UNL     1      -1.207   1.731   0.017  0.00  0.00    +0.008 A 
ATOM     23  C   UNL     1      -2.445   3.846   0.045  0.00  0.00    +0.012 A 
ATOM     24  C   UNL     1      -2.465   5.202   0.052  0.00  0.00    +0.047 A 
ATOM     25  C   UNL     1      -1.285   5.954   0.045  0.00  0.00    +0.136 A 
ATOM     26  C   UNL     1      -0.047   5.304   0.030  0.00  0.00    +0.031 A 
ATOM     27  C   UNL     1       0.960   6.363   0.026  0.00  0.00    +0.007 A 
ATOM     28  C   UNL     1       0.282   7.522   0.038  0.00  0.00    +0.200 A 
ATOM     29  O   UNL     1      -1.039   7.280   0.050  0.00  0.00    -0.463 OA
ENDBRANCH  16  27
ENDBRANCH   1  16
TORSDOF 4
