REMARK  Name = ZINC22838240
REMARK  13 active torsions:
REMARK  status: ('A' for Active; 'I' for Inactive)
REMARK    1  A    between atoms: C_1  and  C_2
REMARK    2  A    between atoms: C_2  and  O_3
REMARK    3  A    between atoms: O_3  and  C_4
REMARK    4  A    between atoms: C_4  and  C_6
REMARK    5  A    between atoms: C_10  and  N_11
REMARK    6  A    between atoms: C_12  and  C_14
REMARK    7  A    between atoms: C_14  and  N_15
REMARK    8  A    between atoms: C_19  and  C_22
REMARK    9  A    between atoms: C_22  and  O_24
REMARK   10  A    between atoms: O_24  and  C_25
REMARK   11  A    between atoms: C_25  and  C_26
REMARK   12  A    between atoms: N_28  and  C_31
REMARK   13  A    between atoms: C_31  and  C_32
REMARK                            x       y       z     vdW  Elec       q    Type
REMARK                         _______ _______ _______ _____ _____    ______ ____
ROOT
ATOM      1  C   UNL     1       2.233   0.791  -0.015  0.00  0.00    +0.091 A 
ATOM      2  C   UNL     1       1.314  -0.332  -0.012  0.00  0.00    -0.019 A 
ATOM      3  C   UNL     1       0.002  -0.004   0.002  0.00  0.00    +0.010 A 
ATOM      4  S   UNL     1      -0.022   1.764   0.012  0.00  0.00    -0.076 S 
ATOM      5  C   UNL     1       1.684   2.068  -0.003  0.00  0.00    +0.086 A 
ATOM      6  C   UNL     1      -1.152  -0.957   0.006  0.00  0.00    +0.127 C 
ATOM      7  N   UNL     1      -0.648  -2.292  -0.368  0.00  0.00    -0.293 NA
ATOM      8  C   UNL     1       0.540  -2.641   0.424  0.00  0.00    +0.090 C 
ATOM      9  C   UNL     1       1.736  -1.796  -0.022  0.00  0.00    +0.052 C 
ENDROOT
BRANCH   5  10
ATOM     10  N   UNL     1       2.342   3.288  -0.003  0.00  0.00    -0.281 N 
ATOM     11  C   UNL     1       1.635   4.435   0.009  0.00  0.00    +0.201 C 
ATOM     12  O   UNL     1       0.422   4.399   0.021  0.00  0.00    -0.278 OA
ATOM     13  H   UNL     1       3.442   3.320  -0.014  0.00  0.00    +0.155 HD
BRANCH  11  14
ATOM     14  C   UNL     1       2.350   5.761   0.009  0.00  0.00    +0.019 C 
BRANCH  14  15
ATOM     15  N   UNL     1       1.363   6.849   0.024  0.00  0.00    +0.386 N 
ATOM     16  C   UNL     1       0.609   6.859   1.284  0.00  0.00    -0.078 C 
ATOM     17  C   UNL     1      -0.303   8.087   1.325  0.00  0.00    -0.018 C 
ATOM     18  C   UNL     1      -1.264   8.043   0.134  0.00  0.00    +0.011 C 
ATOM     19  C   UNL     1      -0.454   7.984  -1.164  0.00  0.00    +0.081 C 
ATOM     20  C   UNL     1       0.462   6.759  -1.133  0.00  0.00    -0.064 C 
ATOM     21  H   UNL     1       1.907   7.803  -0.049  0.00  0.00    -0.081 HD
BRANCH  19  22
ATOM     22  C   UNL     1      -1.393   7.881  -2.338  0.00  0.00    +0.308 C 
ATOM     23  O   UNL     1      -1.333   6.927  -3.077  0.00  0.00    -0.251 OA
BRANCH  22  24
ATOM     24  O   UNL     1      -2.296   8.848  -2.563  0.00  0.00    -0.465 OA
BRANCH  24  25
ATOM     25  C   UNL     1      -3.167   8.682  -3.713  0.00  0.00    +0.229 C 
ATOM     26  C   UNL     1      -4.121   9.875  -3.806  0.00  0.00    +0.048 C 
ENDBRANCH  24  25
ENDBRANCH  22  24
ENDBRANCH  19  22
ENDBRANCH  14  15
ENDBRANCH  11  14
ENDBRANCH   5  10
BRANCH   1  27
ATOM     27  C   UNL     1       3.683   0.587  -0.031  0.00  0.00    +0.342 C 
ATOM     28  O   UNL     1       4.275   0.507  -1.091  0.00  0.00    -0.245 OA
BRANCH  27  29
ATOM     29  O   UNL     1       4.363   0.486   1.130  0.00  0.00    -0.461 OA
BRANCH  29  31
ATOM     30  C   UNL     1       6.391   0.195   2.446  0.00  0.00    +0.048 C 
ATOM     31  C   UNL     1       5.798   0.284   1.038  0.00  0.00    +0.229 C 
ENDBRANCH  29  31
ENDBRANCH  27  29
ENDBRANCH   1  27
BRANCH   7  32
ATOM     32  C   UNL     1      -1.696  -3.311  -0.221  0.00  0.00    +0.120 C 
BRANCH  32  33
ATOM     33  C   UNL     1      -2.053  -3.458   1.236  0.00  0.00    -0.033 A 
ATOM     34  C   UNL     1      -1.382  -4.375   2.023  0.00  0.00    +0.005 A 
ATOM     35  C   UNL     1      -1.706  -4.505   3.361  0.00  0.00    +0.000 A 
ATOM     36  C   UNL     1      -2.709  -3.727   3.908  0.00  0.00    +0.000 A 
ATOM     37  C   UNL     1      -3.384  -2.814   3.120  0.00  0.00    +0.000 A 
ATOM     38  C   UNL     1      -3.056  -2.679   1.784  0.00  0.00    +0.005 A 
ENDBRANCH  32  33
ENDBRANCH   7  32
TORSDOF 11
