REMARK  Name = ZINC39969422
REMARK  7 active torsions:
REMARK  status: ('A' for Active; 'I' for Inactive)
REMARK    1  A    between atoms: C_4  and  N_7
REMARK    2  A    between atoms: C_8  and  C_28
REMARK    3  A    between atoms: C_12  and  S_14
REMARK    4  A    between atoms: S_14  and  C_15
REMARK    5  A    between atoms: C_15  and  C_16
REMARK    6  A    between atoms: C_28  and  N_29
REMARK    7  A    between atoms: C_30  and  C_32
REMARK                            x       y       z     vdW  Elec       q    Type
REMARK                         _______ _______ _______ _____ _____    ______ ____
ROOT
ATOM      1  N   UNL     1       3.838  -0.265   0.149  0.00  0.00    -0.286 N 
ATOM      2  C   UNL     1       4.176  -1.681  -0.096  0.00  0.00    +0.175 C 
ATOM      3  N   UNL     1       5.544  -1.636  -0.676  0.00  0.00    -0.233 NA
ATOM      4  N   UNL     1       6.188  -0.550   0.081  0.00  0.00    -0.226 NA
ATOM      5  C   UNL     1       5.118   0.458   0.255  0.00  0.00    +0.217 C 
ATOM      6  H   UNL     1       6.026  -2.511  -0.534  0.00  0.00    +0.143 HD
ATOM      7  H   UNL     1       6.966  -0.163  -0.433  0.00  0.00    +0.143 HD
ENDROOT
BRANCH   1  11
ATOM      8  C   UNL     1       0.021   1.369   0.460  0.00  0.00    +0.000 A 
ATOM      9  C   UNL     1       1.131   2.183   0.584  0.00  0.00    +0.002 A 
ATOM     10  C   UNL     1       2.399   1.644   0.482  0.00  0.00    +0.023 A 
ATOM     11  C   UNL     1       2.558   0.283   0.254  0.00  0.00    +0.033 A 
ATOM     12  C   UNL     1       1.440  -0.532   0.129  0.00  0.00    +0.023 A 
ATOM     13  C   UNL     1       0.175   0.013   0.233  0.00  0.00    +0.002 A 
ENDBRANCH   1  11
BRANCH   5  14
ATOM     14  S   UNL     1       5.260   1.233   1.889  0.00  0.00    -0.114 S 
BRANCH  14  15
ATOM     15  C   UNL     1       5.214  -0.165   3.044  0.00  0.00    +0.146 C 
BRANCH  15  16
ATOM     16  C   UNL     1       5.374   0.342   4.454  0.00  0.00    +0.120 A 
ATOM     17  N   UNL     1       5.261  -0.546   5.475  0.00  0.00    -0.310 N 
ATOM     18  H   UNL     1       5.082  -1.480   5.282  0.00  0.00    +0.170 HD
ATOM     19  C   UNL     1       5.396  -0.141   6.759  0.00  0.00    +0.259 A 
ATOM     20  O   UNL     1       5.298  -0.926   7.684  0.00  0.00    -0.267 OA
ATOM     21  C   UNL     1       5.667   1.285   6.994  0.00  0.00    +0.065 A 
ATOM     22  C   UNL     1       5.823   1.805   8.277  0.00  0.00    +0.015 A 
ATOM     23  C   UNL     1       6.075   3.149   8.440  0.00  0.00    +0.001 A 
ATOM     24  C   UNL     1       6.175   3.987   7.337  0.00  0.00    +0.002 A 
ATOM     25  C   UNL     1       6.024   3.494   6.060  0.00  0.00    +0.028 A 
ATOM     26  C   UNL     1       5.768   2.135   5.870  0.00  0.00    +0.078 A 
ATOM     27  N   UNL     1       5.618   1.605   4.630  0.00  0.00    -0.233 NA
ENDBRANCH  15  16
ENDBRANCH  14  15
ENDBRANCH   5  14
BRANCH   2  28
ATOM     28  C   UNL     1       4.174  -2.467   1.216  0.00  0.00    +0.144 C 
BRANCH  28  29
ATOM     29  N   UNL     1       4.374  -3.891   0.934  0.00  0.00    -0.308 N 
ATOM     30  C   UNL     1       4.312  -4.791   1.935  0.00  0.00    +0.247 C 
ATOM     31  O   UNL     1       4.000  -4.436   3.054  0.00  0.00    -0.270 OA
ATOM     32  H   UNL     1       4.550  -4.185   0.026  0.00  0.00    +0.149 HD
BRANCH  30  33
ATOM     33  C   UNL     1       4.625  -6.211   1.671  0.00  0.00    +0.072 A 
ATOM     34  C   UNL     1       5.093  -6.605   0.415  0.00  0.00    +0.016 A 
ATOM     35  C   UNL     1       5.383  -7.931   0.176  0.00  0.00    +0.001 A 
ATOM     36  C   UNL     1       5.211  -8.873   1.175  0.00  0.00    +0.003 A 
ATOM     37  C   UNL     1       4.748  -8.493   2.421  0.00  0.00    +0.039 A 
ATOM     38  C   UNL     1       4.459  -7.166   2.679  0.00  0.00    +0.135 A 
ATOM     39  F   UNL     1       4.012  -6.794   3.898  0.00  0.00    -0.205 F 
ENDBRANCH  30  33
ENDBRANCH  28  29
ENDBRANCH   2  28
TORSDOF 7
