REMARK  Name = ZINC39873722
REMARK  9 active torsions:
REMARK  status: ('A' for Active; 'I' for Inactive)
REMARK    1  A    between atoms: C_1  and  C_2
REMARK    2  A    between atoms: C_2  and  O_3
REMARK    3  A    between atoms: O_3  and  C_4
REMARK    4  A    between atoms: C_7  and  C_12
REMARK    5  A    between atoms: C_9  and  O_10
REMARK    6  A    between atoms: O_10  and  C_11
REMARK    7  A    between atoms: N_27  and  C_28
REMARK    8  A    between atoms: C_31  and  C_35
REMARK    9  A    between atoms: C_32  and  C_34
REMARK                            x       y       z     vdW  Elec       q    Type
REMARK                         _______ _______ _______ _____ _____    ______ ____
ROOT
ATOM      1  C   UNL     1      -1.996  -6.097  -0.011  0.00  0.00    +0.150 C 
ATOM      2  C   UNL     1      -1.749  -6.650   1.354  0.00  0.00    +0.072 A 
ATOM      3  C   UNL     1      -2.418  -6.399   2.634  0.00  0.00    +0.199 A 
ATOM      4  O   UNL     1      -3.458  -5.772   2.732  0.00  0.00    -0.287 OA
ATOM      5  C   UNL     1      -1.707  -6.982   3.800  0.00  0.00    +0.066 A 
ATOM      6  C   UNL     1      -2.104  -6.665   5.099  0.00  0.00    +0.035 A 
ATOM      7  C   UNL     1      -1.430  -7.211   6.170  0.00  0.00    +0.042 A 
ATOM      8  C   UNL     1      -0.362  -8.072   5.953  0.00  0.00    +0.023 A 
ATOM      9  C   UNL     1       0.037  -8.393   4.676  0.00  0.00    +0.048 A 
ATOM     10  C   UNL     1      -0.630  -7.855   3.576  0.00  0.00    +0.140 A 
ATOM     11  O   UNL     1      -0.224  -8.195   2.331  0.00  0.00    -0.450 OA
ATOM     12  C   UNL     1      -0.697  -7.518   1.267  0.00  0.00    +0.199 A 
ATOM     13  C   UNL     1      -0.236  -7.547  -0.132  0.00  0.00    +0.287 C 
ATOM     14  O   UNL     1       0.688  -8.218  -0.546  0.00  0.00    -0.266 OA
ATOM     15  N   UNL     1      -0.991  -6.721  -0.887  0.00  0.00    -0.253 N 
ATOM     16 CL   UNL     1      -1.917  -6.823   7.791  0.00  0.00    -0.084 Cl
ENDROOT
BRANCH  15  17
ATOM     17  C   UNL     1      -0.845  -6.496  -2.259  0.00  0.00    +0.038 A 
ATOM     18  C   UNL     1      -1.692  -5.610  -2.914  0.00  0.00    +0.024 A 
ATOM     19  C   UNL     1      -1.544  -5.391  -4.269  0.00  0.00    +0.005 A 
ATOM     20  C   UNL     1      -0.555  -6.052  -4.975  0.00  0.00    -0.047 A 
ATOM     21  C   UNL     1       0.289  -6.934  -4.326  0.00  0.00    -0.046 A 
ATOM     22  C   UNL     1       0.151  -7.154  -2.970  0.00  0.00    +0.027 A 
ATOM     23  C   UNL     1       1.364  -7.653  -5.099  0.00  0.00    +0.044 C 
ATOM     24  C   UNL     1      -0.398  -5.810  -6.454  0.00  0.00    +0.044 C 
ENDBRANCH  15  17
BRANCH   1  28
ATOM     25  C   UNL     1      -1.498  -1.849   0.006  0.00  0.00    +0.162 A 
ATOM     26  C   UNL     1      -0.389  -2.680  -0.003  0.00  0.00    +0.050 A 
ATOM     27  C   UNL     1      -0.553  -4.052  -0.008  0.00  0.00    +0.009 A 
ATOM     28  C   UNL     1      -1.823  -4.600  -0.005  0.00  0.00    -0.018 A 
ATOM     29  C   UNL     1      -2.934  -3.777   0.004  0.00  0.00    +0.055 A 
ATOM     30  C   UNL     1      -2.776  -2.400   0.016  0.00  0.00    +0.162 A 
BRANCH  30  31
ATOM     31  O   UNL     1      -3.868  -1.589   0.030  0.00  0.00    -0.491 OA
ATOM     32  C   UNL     1      -5.148  -2.225   0.039  0.00  0.00    +0.277 C 
ENDBRANCH  30  31
BRANCH  25  33
ATOM     33  O   UNL     1      -1.339  -0.499   0.012  0.00  0.00    -0.489 OA
BRANCH  33  35
ATOM     34  C   UNL     1      -0.019   1.526   0.010  0.00  0.00    +0.048 C 
ATOM     35  C   UNL     1       0.002  -0.004   0.002  0.00  0.00    +0.226 C 
ENDBRANCH  33  35
ENDBRANCH  25  33
ENDBRANCH   1  28
TORSDOF 5
