REMARK  Name = ZINC01514166
REMARK  6 active torsions:
REMARK  status: ('A' for Active; 'I' for Inactive)
REMARK    1  A    between atoms: C_1  and  O_2
REMARK    2  A    between atoms: O_2  and  C_3
REMARK    3  A    between atoms: C_10  and  C_25
REMARK    4  A    between atoms: N_12  and  C_13
REMARK    5  A    between atoms: C_16  and  O_19
REMARK    6  A    between atoms: O_19  and  C_20
REMARK                            x       y       z     vdW  Elec       q    Type
REMARK                         _______ _______ _______ _____ _____    ______ ____
ROOT
ATOM      1  C   UNL     1      -1.246   1.755  -0.016  0.00  0.00    +0.121 A 
ATOM      2  C   UNL     1      -0.030   1.078  -0.030  0.00  0.00    +0.049 A 
ATOM      3  C   UNL     1       1.162   1.773  -0.031  0.00  0.00    +0.050 A 
ATOM      4  C   UNL     1       1.156   3.160  -0.013  0.00  0.00    +0.138 A 
ATOM      5  C   UNL     1      -0.070   3.851   0.004  0.00  0.00    +0.022 A 
ATOM      6  C   UNL     1      -1.273   3.136   0.006  0.00  0.00    +0.057 A 
ATOM      7  C   UNL     1      -0.070   5.316   0.014  0.00  0.00    +0.030 A 
ATOM      8  C   UNL     1       1.130   5.956  -0.266  0.00  0.00    +0.099 A 
ATOM      9  C   UNL     1       2.299   5.100  -0.547  0.00  0.00    +0.233 A 
ATOM     10  N   UNL     1       3.289   5.530  -1.299  0.00  0.00    -0.213 NA
ATOM     11  O   UNL     1       2.321   3.854  -0.007  0.00  0.00    -0.437 OA
ENDROOT
BRANCH  10  12
ATOM     12  C   UNL     1       4.411   4.762  -1.459  0.00  0.00    +0.068 A 
ATOM     13  C   UNL     1       5.447   4.833  -0.525  0.00  0.00    +0.031 A 
ATOM     14  C   UNL     1       6.572   4.053  -0.686  0.00  0.00    +0.048 A 
ATOM     15  C   UNL     1       6.682   3.207  -1.782  0.00  0.00    +0.130 A 
ATOM     16  C   UNL     1       5.658   3.138  -2.716  0.00  0.00    +0.048 A 
ATOM     17  C   UNL     1       4.526   3.909  -2.559  0.00  0.00    +0.031 A 
BRANCH  15  18
ATOM     18  O   UNL     1       7.796   2.444  -1.940  0.00  0.00    -0.406 OA
BRANCH  18  19
ATOM     19  C   UNL     1       8.812   2.564  -0.942  0.00  0.00    +0.575 C 
ATOM     20  F   UNL     1       8.286   2.207   0.304  0.00  0.00    -0.133 F 
ATOM     21  F   UNL     1       9.879   1.716  -1.258  0.00  0.00    -0.133 F 
ATOM     22  F   UNL     1       9.265   3.887  -0.894  0.00  0.00    -0.133 F 
ENDBRANCH  18  19
ENDBRANCH  15  18
ENDBRANCH  10  12
BRANCH   8  23
ATOM     23  C   UNL     1       1.232   7.425  -0.280  0.00  0.00    +0.247 C 
ATOM     24  O   UNL     1       2.297   7.958  -0.528  0.00  0.00    -0.270 OA
ATOM     25  N   UNL     1       0.146   8.179  -0.018  0.00  0.00    -0.325 N 
ATOM     26  H   UNL     1      -0.703   7.754   0.181  0.00  0.00    +0.145 HD
ATOM     27  H   UNL     1       0.213   9.147  -0.027  0.00  0.00    +0.145 HD
ENDBRANCH   8  23
BRANCH   1  29
ATOM     28  C   UNL     1      -2.311  -0.371  -0.037  0.00  0.00    +0.277 C 
ATOM     29  O   UNL     1      -2.411   1.055  -0.019  0.00  0.00    -0.495 OA
ENDBRANCH   1  29
TORSDOF 5
