REMARK  Name = ZINC43527621
REMARK  9 active torsions:
REMARK  status: ('A' for Active; 'I' for Inactive)
REMARK    1  A    between atoms: C_1  and  O_2
REMARK    2  A    between atoms: O_2  and  C_3
REMARK    3  A    between atoms: C_3  and  C_4
REMARK    4  A    between atoms: N_9  and  C_10
REMARK    5  A    between atoms: C_10  and  C_11
REMARK    6  A    between atoms: C_20  and  C_22
REMARK    7  A    between atoms: C_22  and  N_23
REMARK    8  A    between atoms: N_23  and  S_24
REMARK    9  A    between atoms: S_24  and  C_27
REMARK                            x       y       z     vdW  Elec       q    Type
REMARK                         _______ _______ _______ _____ _____    ______ ____
ROOT
ATOM      1  C   UNL     1       2.495  -1.812  -2.243  0.00  0.00    -0.041 C 
ATOM      2  C   UNL     1       1.442  -2.315  -3.234  0.00  0.00    -0.077 C 
ATOM      3  N   UNL     1       1.480  -1.510  -4.457  0.00  0.00    +0.383 N 
ATOM      4  C   UNL     1       1.171  -0.109  -4.162  0.00  0.00    -0.078 C 
ATOM      5  C   UNL     1       2.214   0.467  -3.202  0.00  0.00    -0.015 C 
ATOM      6  C   UNL     1       3.241  -0.627  -2.869  0.00  0.00    -0.015 C 
ATOM      7  C   UNL     1       3.886  -1.098  -4.179  0.00  0.00    -0.011 C 
ATOM      8  C   UNL     1       2.787  -1.624  -5.109  0.00  0.00    -0.053 C 
ATOM      9  H   UNL     1       0.776  -1.859  -5.090  0.00  0.00    -0.081 HD
ENDROOT
BRANCH   1  10
ATOM     10  C   UNL     1       1.809  -1.362  -0.951  0.00  0.00    -0.076 C 
BRANCH  10  15
ATOM     11  C   UNL     1       0.972  -2.121   1.173  0.00  0.00    -0.043 C 
ATOM     12  C   UNL     1      -0.484  -2.604   1.346  0.00  0.00    -0.015 C 
ATOM     13  C   UNL     1      -0.592  -3.761   0.319  0.00  0.00    -0.020 C 
ATOM     14  C   UNL     1       0.296  -3.238  -0.838  0.00  0.00    -0.078 C 
ATOM     15  N   UNL     1       1.419  -2.541  -0.167  0.00  0.00    +0.383 N 
ATOM     16  H   UNL     1       2.206  -3.167  -0.082  0.00  0.00    -0.081 HD
BRANCH  11  17
ATOM     17  C   UNL     1       1.031  -0.596   1.287  0.00  0.00    +0.144 C 
BRANCH  17  19
ATOM     18  C   UNL     1       0.050   1.414   0.424  0.00  0.00    +0.193 C 
ATOM     19  O   UNL     1       0.076  -0.014   0.396  0.00  0.00    -0.385 OA
ENDBRANCH  17  19
ENDBRANCH  11  17
ENDBRANCH  10  15
ENDBRANCH   1  10
BRANCH   8  20
ATOM     20  C   UNL     1       2.781  -0.807  -6.403  0.00  0.00    +0.090 C 
BRANCH  20  21
ATOM     21  N   UNL     1       1.666  -1.239  -7.248  0.00  0.00    -0.191 NA
ATOM     22  H   UNL     1       1.210  -2.074  -7.060  0.00  0.00    +0.148 HD
BRANCH  21  23
ATOM     23  S   UNL     1       1.183  -0.301  -8.525  0.00  0.00    +0.058 S 
ATOM     24  O   UNL     1       0.114  -0.993  -9.156  0.00  0.00    -0.153 OA
ATOM     25  O   UNL     1       1.046   1.023  -8.028  0.00  0.00    -0.153 OA
BRANCH  23  26
ATOM     26  C   UNL     1       2.514  -0.270  -9.680  0.00  0.00    +0.105 A 
ATOM     27  C   UNL     1       3.487   0.708  -9.587  0.00  0.00    +0.030 A 
ATOM     28  C   UNL     1       4.530   0.733 -10.493  0.00  0.00    +0.022 A 
ATOM     29  C   UNL     1       4.601  -0.221 -11.493  0.00  0.00    +0.041 A 
ATOM     30  C   UNL     1       3.628  -1.199 -11.585  0.00  0.00    +0.022 A 
ATOM     31  C   UNL     1       2.587  -1.227 -10.675  0.00  0.00    +0.030 A 
ATOM     32 CL   UNL     1       5.912  -0.190 -12.631  0.00  0.00    -0.084 Cl
ENDBRANCH  23  26
ENDBRANCH  21  23
ENDBRANCH  20  21
ENDBRANCH   8  20
TORSDOF 8
