REMARK  Name = ZINC00715198
REMARK  5 active torsions:
REMARK  status: ('A' for Active; 'I' for Inactive)
REMARK    1  A    between atoms: C_1  and  C_2
REMARK    2  A    between atoms: C_2  and  O_3
REMARK    3  A    between atoms: O_3  and  C_4
REMARK    4  A    between atoms: C_7  and  N_10
REMARK    5  A    between atoms: C_11  and  C_22
REMARK                            x       y       z     vdW  Elec       q    Type
REMARK                         _______ _______ _______ _____ _____    ______ ____
ROOT
ATOM      1  N   UNL     1      -1.180  -2.127  -0.186  0.00  0.00    -0.244 N 
ATOM      2  C   UNL     1       0.055  -2.767  -0.642  0.00  0.00    +0.198 C 
ATOM      3  N   UNL     1       1.221  -2.099  -0.053  0.00  0.00    -0.321 N 
ATOM      4  C   UNL     1       1.247  -0.710  -0.012  0.00  0.00    +0.041 A 
ATOM      5  C   UNL     1       2.437  -0.002  -0.029  0.00  0.00    +0.024 A 
ATOM      6  C   UNL     1       2.414   1.378   0.038  0.00  0.00    +0.002 A 
ATOM      7  C   UNL     1       1.209   2.058   0.121  0.00  0.00    +0.001 A 
ATOM      8  C   UNL     1       0.015   1.369   0.133  0.00  0.00    +0.015 A 
ATOM      9  C   UNL     1       0.023  -0.022   0.062  0.00  0.00    +0.058 A 
ATOM     10  C   UNL     1      -1.225  -0.805   0.072  0.00  0.00    +0.254 C 
ATOM     11  O   UNL     1      -2.287  -0.263   0.312  0.00  0.00    -0.270 OA
ATOM     12  H   UNL     1       1.960  -2.618   0.303  0.00  0.00    +0.148 HD
ENDROOT
BRANCH   2  13
ATOM     13  C   UNL     1       0.137  -2.680  -2.145  0.00  0.00    -0.008 A 
ATOM     14  C   UNL     1      -1.022  -2.650  -2.899  0.00  0.00    +0.007 A 
ATOM     15  C   UNL     1      -0.947  -2.564  -4.277  0.00  0.00    +0.001 A 
ATOM     16  C   UNL     1       0.285  -2.520  -4.901  0.00  0.00    +0.015 A 
ATOM     17  C   UNL     1       1.444  -2.555  -4.147  0.00  0.00    +0.018 A 
ATOM     18  C   UNL     1       1.369  -2.635  -2.768  0.00  0.00    +0.022 A 
ATOM     19 BR   UNL     1       3.130  -2.495  -5.001  0.00  0.00    -0.050 Br
ENDBRANCH   2  13
BRANCH   1  23
ATOM     20  C   UNL     1      -4.616  -4.433   0.322  0.00  0.00    +0.121 A 
ATOM     21  C   UNL     1      -3.461  -4.746   1.023  0.00  0.00    +0.047 A 
ATOM     22  C   UNL     1      -2.322  -3.983   0.855  0.00  0.00    +0.027 A 
ATOM     23  C   UNL     1      -2.334  -2.902  -0.016  0.00  0.00    +0.039 A 
ATOM     24  C   UNL     1      -3.492  -2.586  -0.714  0.00  0.00    +0.027 A 
ATOM     25  C   UNL     1      -4.628  -3.353  -0.549  0.00  0.00    +0.047 A 
BRANCH  20  26
ATOM     26  O   UNL     1      -5.737  -5.185   0.488  0.00  0.00    -0.492 OA
BRANCH  26  28
ATOM     27  C   UNL     1      -8.043  -5.760   0.051  0.00  0.00    +0.048 C 
ATOM     28  C   UNL     1      -6.890  -4.805  -0.266  0.00  0.00    +0.225 C 
ENDBRANCH  26  28
ENDBRANCH  20  26
ENDBRANCH   1  23
TORSDOF 4
