REMARK  Name = ZINC21160272
REMARK  7 active torsions:
REMARK  status: ('A' for Active; 'I' for Inactive)
REMARK    1  A    between atoms: C_1  and  C_2
REMARK    2  A    between atoms: C_7  and  C_8
REMARK    3  A    between atoms: C_8  and  N_9
REMARK    4  A    between atoms: C_21  and  C_24
REMARK    5  A    between atoms: N_26  and  C_27
REMARK    6  A    between atoms: C_27  and  C_28
REMARK    7  A    between atoms: C_28  and  C_29
REMARK                            x       y       z     vdW  Elec       q    Type
REMARK                         _______ _______ _______ _____ _____    ______ ____
ROOT
ATOM      1  N   UNL     1      -7.310  -4.408   2.648  0.00  0.00    -0.309 N 
ATOM      2  C   UNL     1      -8.452  -5.191   2.690  0.00  0.00    +0.068 A 
ATOM      3  C   UNL     1      -9.441  -5.400   3.639  0.00  0.00    +0.028 A 
ATOM      4  C   UNL     1     -10.479  -6.268   3.371  0.00  0.00    +0.002 A 
ATOM      5  C   UNL     1     -10.541  -6.934   2.156  0.00  0.00    +0.002 A 
ATOM      6  C   UNL     1      -9.568  -6.739   1.201  0.00  0.00    +0.028 A 
ATOM      7  C   UNL     1      -8.510  -5.863   1.458  0.00  0.00    +0.065 A 
ATOM      8  N   UNL     1      -7.430  -5.467   0.735  0.00  0.00    -0.327 N 
ATOM      9  C   UNL     1      -6.721  -4.616   1.434  0.00  0.00    +0.177 A 
ATOM     10  N   UNL     1      -5.556  -4.015   1.005  0.00  0.00    -0.302 N 
ATOM     11  C   UNL     1      -4.934  -4.786  -0.078  0.00  0.00    +0.108 C 
ATOM     12  C   UNL     1      -3.576  -4.173  -0.428  0.00  0.00    +0.032 C 
ATOM     13  C   UNL     1      -3.775  -2.717  -0.861  0.00  0.00    +0.078 C 
ATOM     14  C   UNL     1      -4.470  -1.947   0.265  0.00  0.00    +0.032 C 
ATOM     15  C   UNL     1      -5.801  -2.626   0.596  0.00  0.00    +0.108 C 
ATOM     16  H   UNL     1      -7.270  -5.864  -0.278  0.00  0.00    +0.169 HD
ENDROOT
BRANCH  13  17
ATOM     17  C   UNL     1      -2.436  -2.090  -1.150  0.00  0.00    +0.216 C 
ATOM     18  O   UNL     1      -1.421  -2.742  -1.024  0.00  0.00    -0.276 OA
ATOM     19  N   UNL     1      -2.366  -0.804  -1.547  0.00  0.00    -0.315 N 
ATOM     20  H   UNL     1      -3.286  -0.213  -1.661  0.00  0.00    +0.149 HD
BRANCH  19  21
ATOM     21  C   UNL     1      -1.063  -0.194  -1.828  0.00  0.00    +0.109 C 
BRANCH  21  22
ATOM     22  C   UNL     1      -1.264   1.260  -2.257  0.00  0.00    +0.056 C 
BRANCH  22  23
ATOM     23  C   UNL     1       0.076   1.888  -2.546  0.00  0.00    -0.021 A 
ATOM     24  C   UNL     1       0.814   2.619  -1.696  0.00  0.00    +0.087 A 
ATOM     25  N   UNL     1       1.971   3.019  -2.309  0.00  0.00    -0.360 N 
ATOM     26  H   UNL     1       2.704   3.626  -1.757  0.00  0.00    +0.165 HD
ATOM     27  C   UNL     1       2.002   2.550  -3.603  0.00  0.00    +0.047 A 
ATOM     28  C   UNL     1       0.816   1.821  -3.808  0.00  0.00    +0.003 A 
ATOM     29  C   UNL     1       0.572   1.221  -5.045  0.00  0.00    +0.010 A 
ATOM     30  C   UNL     1       1.488   1.346  -6.051  0.00  0.00    +0.001 A 
ATOM     31  C   UNL     1       2.659   2.064  -5.854  0.00  0.00    +0.002 A 
ATOM     32  C   UNL     1       2.920   2.664  -4.641  0.00  0.00    +0.026 A 
ENDBRANCH  22  23
ENDBRANCH  21  22
ENDBRANCH  19  21
ENDBRANCH  13  17
BRANCH   1  33
ATOM     33  C   UNL     1      -6.825  -3.522   3.709  0.00  0.00    +0.160 C 
BRANCH  33  40
ATOM     34  C   UNL     1      -3.938  -3.505   3.591  0.00  0.00    +0.044 C 
ATOM     35  C   UNL     1      -4.645  -4.314   4.649  0.00  0.00    -0.046 A 
ATOM     36  C   UNL     1      -3.911  -5.044   5.565  0.00  0.00    +0.004 A 
ATOM     37  C   UNL     1      -4.559  -5.790   6.532  0.00  0.00    +0.000 A 
ATOM     38  C   UNL     1      -5.941  -5.802   6.585  0.00  0.00    +0.000 A 
ATOM     39  C   UNL     1      -6.674  -5.068   5.672  0.00  0.00    +0.005 A 
ATOM     40  C   UNL     1      -6.026  -4.322   4.705  0.00  0.00    -0.025 A 
ENDBRANCH  33  40
ENDBRANCH   1  33
TORSDOF 6
