REMARK  Name = ZINC64066179
REMARK  9 active torsions:
REMARK  status: ('A' for Active; 'I' for Inactive)
REMARK    1  A    between atoms: C_1  and  C_2
REMARK    2  A    between atoms: C_6  and  C_8
REMARK    3  A    between atoms: C_8  and  C_9
REMARK    4  A    between atoms: C_8  and  C_24
REMARK    5  A    between atoms: C_8  and  O_28
REMARK    6  A    between atoms: C_9  and  C_10
REMARK    7  A    between atoms: C_10  and  N_11
REMARK    8  A    between atoms: C_12  and  C_14
REMARK    9  A    between atoms: C_14  and  C_15
REMARK                            x       y       z     vdW  Elec       q    Type
REMARK                         _______ _______ _______ _____ _____    ______ ____
ROOT
ATOM      1  C   UNL     1       2.102  -4.639   2.513  0.00  0.00    +0.108 C 
ENDROOT
BRANCH   1   2
ATOM      2  N   UNL     1       3.067  -5.410   1.726  0.00  0.00    -0.315 N 
ATOM      3  C   UNL     1       3.760  -6.412   2.302  0.00  0.00    +0.217 C 
ATOM      4  O   UNL     1       3.585  -6.675   3.473  0.00  0.00    -0.275 OA
ATOM      5  H   UNL     1       3.207  -5.199   0.789  0.00  0.00    +0.149 HD
BRANCH   3   6
ATOM      6  C   UNL     1       4.754  -7.205   1.492  0.00  0.00    +0.129 C 
BRANCH   6   7
ATOM      7  C   UNL     1       5.388  -8.257   2.365  0.00  0.00    -0.033 C 
ATOM      8  C   UNL     1       5.009  -9.549   2.486  0.00  0.00    -0.001 A 
ATOM      9  C   UNL     1       3.933 -10.332   1.867  0.00  0.00    +0.010 A 
ATOM     10  C   UNL     1       3.800 -11.638   2.195  0.00  0.00    +0.001 A 
ATOM     11  C   UNL     1       4.661 -12.260   3.109  0.00  0.00    +0.002 A 
ATOM     12  C   UNL     1       5.672 -11.606   3.719  0.00  0.00    +0.026 A 
ATOM     13  C   UNL     1       5.905 -10.229   3.449  0.00  0.00    +0.043 A 
ATOM     14  N   UNL     1       6.803  -9.390   3.904  0.00  0.00    -0.380 N 
ATOM     15  C   UNL     1       6.582  -8.082   3.277  0.00  0.00    +0.145 C 
ATOM     16  H   UNL     1       7.500  -9.600   4.546  0.00  0.00    +0.160 HD
ENDBRANCH   6   7
ENDBRANCH   3   6
ENDBRANCH   1   2
BRANCH   1  17
ATOM     17  C   UNL     1       1.458  -3.571   1.627  0.00  0.00    +0.070 C 
BRANCH  17  18
ATOM     18  C   UNL     1       0.408  -2.804   2.434  0.00  0.00    +0.219 C 
BRANCH  18  23
ATOM     19  C   UNL     1       1.940  -2.126   7.053  0.00  0.00    +0.052 C 
ATOM     20  C   UNL     1       2.258  -2.082   5.558  0.00  0.00    +0.174 C 
ATOM     21  C   UNL     1       2.098  -0.647   4.998  0.00  0.00    +0.074 C 
ATOM     22  C   UNL     1       1.494  -0.916   3.630  0.00  0.00    +0.021 C 
ATOM     23  C   UNL     1       1.065  -2.160   3.628  0.00  0.00    +0.135 C 
ATOM     24  O   UNL     1       1.269  -2.806   4.799  0.00  0.00    -0.490 OA
ENDBRANCH  18  23
BRANCH  18  25
ATOM     25  C   UNL     1      -0.222  -1.723   1.554  0.00  0.00    +0.425 C 
ATOM     26  F   UNL     1       0.785  -0.918   1.011  0.00  0.00    -0.167 F 
ATOM     27  F   UNL     1      -0.945  -2.327   0.519  0.00  0.00    -0.167 F 
ATOM     28  F   UNL     1      -1.083  -0.936   2.326  0.00  0.00    -0.167 F 
ENDBRANCH  18  25
BRANCH  18  29
ATOM     29  O   UNL     1      -0.606  -3.708   2.878  0.00  0.00    -0.373 OA
ATOM     30  H   UNL     1      -0.277  -4.421   3.443  0.00  0.00    +0.211 HD
ENDBRANCH  18  29
ENDBRANCH  17  18
ENDBRANCH   1  17
TORSDOF 8
