REMARK  Name = ZINC35382188
REMARK  9 active torsions:
REMARK  status: ('A' for Active; 'I' for Inactive)
REMARK    1  A    between atoms: C_1  and  C_2
REMARK    2  A    between atoms: C_2  and  O_3
REMARK    3  A    between atoms: O_3  and  C_4
REMARK    4  A    between atoms: C_6  and  C_14
REMARK    5  A    between atoms: C_9  and  O_10
REMARK    6  A    between atoms: O_10  and  C_11
REMARK    7  A    between atoms: C_11  and  C_12
REMARK    8  A    between atoms: C_14  and  C_16
REMARK    9  A    between atoms: C_14  and  N_22
REMARK                            x       y       z     vdW  Elec       q    Type
REMARK                         _______ _______ _______ _____ _____    ______ ____
ROOT
ATOM      1  C   UNL     1      -1.498  -1.849   0.006  0.00  0.00    +0.162 A 
ATOM      2  C   UNL     1      -0.389  -2.680  -0.003  0.00  0.00    +0.052 A 
ATOM      3  C   UNL     1      -0.553  -4.052  -0.009  0.00  0.00    -0.039 A 
ATOM      4  C   UNL     1      -1.823  -4.600  -0.005  0.00  0.00    +0.023 A 
ATOM      5  C   UNL     1      -2.934  -3.777   0.004  0.00  0.00    +0.065 A 
ATOM      6  C   UNL     1      -2.776  -2.400   0.016  0.00  0.00    +0.163 A 
ATOM      7 BR   UNL     1      -2.041  -6.479  -0.013  0.00  0.00    -0.050 Br
ENDROOT
BRANCH   1   8
ATOM      8  O   UNL     1      -1.339  -0.499   0.012  0.00  0.00    -0.489 OA
BRANCH   8  10
ATOM      9  C   UNL     1      -0.019   1.526   0.010  0.00  0.00    +0.048 C 
ATOM     10  C   UNL     1       0.002  -0.004   0.002  0.00  0.00    +0.226 C 
ENDBRANCH   8  10
ENDBRANCH   1   8
BRANCH   6  11
ATOM     11  O   UNL     1      -3.868  -1.589   0.031  0.00  0.00    -0.489 OA
BRANCH  11  12
ATOM     12  C   UNL     1      -5.148  -2.224   0.040  0.00  0.00    +0.226 C 
ATOM     13  C   UNL     1      -6.246  -1.158   0.057  0.00  0.00    +0.048 C 
ENDBRANCH  11  12
ENDBRANCH   6  11
BRANCH   3  14
ATOM     14  C   UNL     1       0.655  -4.954  -0.019  0.00  0.00    -0.005 C 
BRANCH  14  15
ATOM     15  C   UNL     1       0.917  -5.459   1.376  0.00  0.00    -0.019 A 
ATOM     16  C   UNL     1       0.603  -6.658   1.922  0.00  0.00    +0.011 A 
ATOM     17  C   UNL     1       0.945  -6.906   3.239  0.00  0.00    +0.023 A 
ATOM     18  C   UNL     1       1.585  -5.941   3.944  0.00  0.00    +0.055 A 
ATOM     19  S   UNL     1       1.729  -4.634   2.736  0.00  0.00    -0.088 S 
ATOM     20 BR   UNL     1       2.179  -5.973   5.739  0.00  0.00    -0.043 Br
ENDBRANCH  14  15
BRANCH  14  21
ATOM     21  N   UNL     1       1.823  -4.201  -0.495  0.00  0.00    +0.386 N 
ATOM     22  H   UNL     1       2.632  -4.805  -0.503  0.00  0.00    -0.089 HD
ATOM     23  H   UNL     1       1.647  -3.863  -1.430  0.00  0.00    -0.089 HD
ATOM     24  H   UNL     1       1.993  -3.419   0.119  0.00  0.00    -0.089 HD
ENDBRANCH  14  21
ENDBRANCH   3  14
TORSDOF 7
