REMARK  Name = ZINC01816723
REMARK  6 active torsions:
REMARK  status: ('A' for Active; 'I' for Inactive)
REMARK    1  A    between atoms: C_2  and  C_3
REMARK    2  A    between atoms: C_2  and  N_11
REMARK    3  A    between atoms: N_11  and  N_12
REMARK    4  A    between atoms: C_13  and  C_15
REMARK    5  A    between atoms: C_15  and  S_16
REMARK    6  A    between atoms: S_16  and  C_17
REMARK                            x       y       z     vdW  Elec       q    Type
REMARK                         _______ _______ _______ _____ _____    ______ ____
ROOT
ATOM      1  N   UNL     1       0.002  -0.004   0.002  0.00  0.00    -0.236 N 
ATOM      2  C   UNL     1      -0.016   1.344   0.009  0.00  0.00    +0.239 C 
ATOM      3  O   UNL     1      -1.075   1.936   0.018  0.00  0.00    -0.273 OA
ATOM      4  H   UNL     1       0.849  -0.478  -0.009  0.00  0.00    +0.173 HD
ENDROOT
BRANCH   1   5
ATOM      5  N   UNL     1      -1.202  -0.721   0.010  0.00  0.00    -0.264 N 
ATOM      6  H   UNL     1      -2.048  -0.247   0.020  0.00  0.00    +0.170 HD
BRANCH   5   8
ATOM      7  C   UNL     1      -0.019  -2.767  -0.013  0.00  0.00    +0.035 C 
ATOM      8  C   UNL     1      -1.183  -2.116   0.002  0.00  0.00    +0.045 C 
BRANCH   8   9
ATOM      9  C   UNL     1      -2.455  -2.874   0.010  0.00  0.00    -0.002 A 
ATOM     10  C   UNL     1      -3.674  -2.196   0.031  0.00  0.00    +0.011 A 
ATOM     11  C   UNL     1      -4.856  -2.906   0.033  0.00  0.00    +0.022 A 
ATOM     12  C   UNL     1      -4.836  -4.290   0.026  0.00  0.00    +0.059 A 
ATOM     13  C   UNL     1      -3.628  -4.970   0.011  0.00  0.00    +0.060 A 
ATOM     14  C   UNL     1      -2.439  -4.268   0.002  0.00  0.00    +0.031 A 
ATOM     15 CL   UNL     1      -3.611  -6.706   0.001  0.00  0.00    -0.082 Cl
ATOM     16 CL   UNL     1      -6.328  -5.178   0.035  0.00  0.00    -0.082 Cl
ENDBRANCH   8   9
ENDBRANCH   5   8
ENDBRANCH   1   5
BRANCH   2  17
ATOM     17  C   UNL     1       1.278   2.115   0.001  0.00  0.00    +0.173 C 
BRANCH  17  18
ATOM     18  S   UNL     1       0.924   3.890   0.014  0.00  0.00    -0.089 S 
BRANCH  18  19
ATOM     19  C   UNL     1       2.565   4.530   0.002  0.00  0.00    +0.136 A 
ATOM     20  N   UNL     1       2.961   5.783   0.005  0.00  0.00    -0.233 NA
ATOM     21  C   UNL     1       4.267   6.131  -0.005  0.00  0.00    +0.079 A 
ATOM     22  C   UNL     1       4.824   7.431  -0.003  0.00  0.00    +0.029 A 
ATOM     23  C   UNL     1       6.182   7.610  -0.013  0.00  0.00    +0.002 A 
ATOM     24  C   UNL     1       7.056   6.533  -0.027  0.00  0.00    +0.001 A 
ATOM     25  C   UNL     1       6.545   5.247  -0.030  0.00  0.00    +0.017 A 
ATOM     26  C   UNL     1       5.186   5.058  -0.019  0.00  0.00    +0.040 A 
ATOM     27  S   UNL     1       4.115   3.640  -0.010  0.00  0.00    -0.061 S 
ENDBRANCH  18  19
ENDBRANCH  17  18
ENDBRANCH   2  17
TORSDOF 6
