REMARK  Name = ZINC04408824
REMARK  5 active torsions:
REMARK  status: ('A' for Active; 'I' for Inactive)
REMARK    1  A    between atoms: C_5  and  C_6
REMARK    2  A    between atoms: C_11  and  O_12
REMARK    3  A    between atoms: O_12  and  S_13
REMARK    4  A    between atoms: S_13  and  C_16
REMARK    5  A    between atoms: C_28  and  C_30
REMARK                            x       y       z     vdW  Elec       q    Type
REMARK                         _______ _______ _______ _____ _____    ______ ____
ROOT
ATOM      1  H   UNL     1       5.670   2.509   2.230  0.00  0.00    +0.188 HD
ATOM      2  N   UNL     1       5.761   1.927   1.459  0.00  0.00    -0.283 NA
ATOM      3  C   UNL     1       4.853   1.020   1.215  0.00  0.00    +0.153 C 
ATOM      4  C   UNL     1       4.981   0.010   0.127  0.00  0.00    +0.081 C 
ATOM      5  C   UNL     1       5.632   0.292  -1.053  0.00  0.00    +0.028 C 
ATOM      6  C   UNL     1       4.368  -1.317   0.384  0.00  0.00    +0.273 C 
ATOM      7  O   UNL     1       4.791  -2.323  -0.164  0.00  0.00    -0.268 OA
ATOM      8  N   UNL     1       3.331  -1.378   1.242  0.00  0.00    -0.152 NA
ATOM      9  C   UNL     1       3.006  -0.311   1.929  0.00  0.00    +0.181 C 
ATOM     10  N   UNL     1       3.658   0.902   1.956  0.00  0.00    -0.152 N 
ATOM     11  N   UNL     1       3.093   1.893   2.731  0.00  0.00    -0.160 NA
ATOM     12  C   UNL     1       2.021   1.672   3.436  0.00  0.00    +0.202 C 
ATOM     13  S   UNL     1       1.663  -0.037   3.055  0.00  0.00    -0.029 S 
ENDROOT
BRANCH   5  14
ATOM     14  C   UNL     1       6.081   1.657  -1.333  0.00  0.00    +0.020 A 
ATOM     15  C   UNL     1       5.331   2.753  -0.884  0.00  0.00    +0.011 A 
ATOM     16  C   UNL     1       5.761   4.033  -1.151  0.00  0.00    +0.001 A 
ATOM     17  C   UNL     1       6.932   4.245  -1.862  0.00  0.00    +0.004 A 
ATOM     18  C   UNL     1       7.682   3.176  -2.311  0.00  0.00    +0.049 A 
ATOM     19  C   UNL     1       7.271   1.879  -2.049  0.00  0.00    +0.164 A 
BRANCH  19  20
ATOM     20  O   UNL     1       8.010   0.828  -2.484  0.00  0.00    -0.342 OA
BRANCH  20  21
ATOM     21  S   UNL     1       7.632   0.340  -3.876  0.00  0.00    +0.151 S 
ATOM     22  O   UNL     1       8.344  -0.872  -4.088  0.00  0.00    -0.131 OA
ATOM     23  O   UNL     1       6.216   0.417  -3.962  0.00  0.00    -0.131 OA
BRANCH  21  24
ATOM     24  C   UNL     1       8.271   1.508  -5.029  0.00  0.00    +0.128 A 
ATOM     25  C   UNL     1       7.497   2.583  -5.426  0.00  0.00    +0.030 A 
ATOM     26  C   UNL     1       8.000   3.502  -6.328  0.00  0.00    +0.002 A 
ATOM     27  C   UNL     1       9.273   3.341  -6.840  0.00  0.00    +0.000 A 
ATOM     28  C   UNL     1      10.046   2.264  -6.448  0.00  0.00    +0.002 A 
ATOM     29  C   UNL     1       9.544   1.347  -5.543  0.00  0.00    +0.030 A 
ENDBRANCH  21  24
ENDBRANCH  20  21
ENDBRANCH  19  20
ENDBRANCH   5  14
BRANCH  12  30
ATOM     30  C   UNL     1       1.270   2.618   4.337  0.00  0.00    +0.442 C 
ATOM     31  F   UNL     1       1.906   3.864   4.340  0.00  0.00    -0.164 F 
ATOM     32  F   UNL     1      -0.041   2.765   3.870  0.00  0.00    -0.164 F 
ATOM     33  F   UNL     1       1.246   2.103   5.637  0.00  0.00    -0.164 F 
ENDBRANCH  12  30
TORSDOF 5
