REMARK  Name = ZINC06935033
REMARK  11 active torsions:
REMARK  status: ('A' for Active; 'I' for Inactive)
REMARK    1  A    between atoms: C_1  and  C_2
REMARK    2  A    between atoms: C_2  and  N_52
REMARK    3  A    between atoms: C_3  and  C_4
REMARK    4  A    between atoms: C_3  and  N_52
REMARK    5  A    between atoms: C_5  and  C_6
REMARK    6  A    between atoms: C_5  and  N_52
REMARK    7  A    between atoms: C_6  and  C_8
REMARK    8  A    between atoms: C_6  and  O_24
REMARK    9  A    between atoms: C_8  and  N_54
REMARK   10  A    between atoms: N_11  and  S_14
REMARK   11  A    between atoms: S_14  and  C_17
REMARK                            x       y       z     vdW  Elec       q    Type
REMARK                         _______ _______ _______ _____ _____    ______ ____
ROOT
ATOM      1  C   UNL     1      -0.826   2.195   0.199  0.00  0.00    -0.061 C 
ATOM      2  C   UNL     1      -1.109   3.667   0.518  0.00  0.00    +0.091 C 
ATOM      3  N   UNL     1       0.111   4.268   1.077  0.00  0.00    -0.180 NA
ATOM      4  C   UNL     1       0.775   3.582   2.196  0.00  0.00    +0.091 C 
ATOM      5  C   UNL     1       0.984   2.113   1.811  0.00  0.00    -0.061 C 
ATOM      6  N   UNL     1      -0.320   1.534   1.422  0.00  0.00    +0.383 N 
ATOM      7  H   UNL     1      -0.992   1.684   2.184  0.00  0.00    -0.082 HD
ENDROOT
BRANCH   3   8
ATOM      8  S   UNL     1       0.723   5.678   0.462  0.00  0.00    +0.061 S 
ATOM      9  O   UNL     1      -0.362   6.354  -0.159  0.00  0.00    -0.153 OA
ATOM     10  O   UNL     1       1.497   6.270   1.496  0.00  0.00    -0.153 OA
BRANCH   8  11
ATOM     11  C   UNL     1       1.847   5.243  -0.823  0.00  0.00    +0.106 A 
ATOM     12  C   UNL     1       3.182   5.037  -0.532  0.00  0.00    +0.030 A 
ATOM     13  C   UNL     1       4.064   4.690  -1.539  0.00  0.00    +0.022 A 
ATOM     14  C   UNL     1       3.611   4.559  -2.840  0.00  0.00    +0.041 A 
ATOM     15  C   UNL     1       2.275   4.771  -3.131  0.00  0.00    +0.022 A 
ATOM     16  C   UNL     1       1.394   5.113  -2.123  0.00  0.00    +0.030 A 
ATOM     17 CL   UNL     1       4.718   4.130  -4.106  0.00  0.00    -0.084 Cl
ENDBRANCH   8  11
ENDBRANCH   3   8
BRANCH   6  18
ATOM     18  C   UNL     1      -0.177   0.082   1.187  0.00  0.00    -0.049 C 
BRANCH  18  19
ATOM     19  C   UNL     1      -1.569  -0.527   1.005  0.00  0.00    +0.082 C 
BRANCH  19  20
ATOM     20  O   UNL     1      -2.352  -0.282   2.175  0.00  0.00    -0.395 OA
ATOM     21  H   UNL     1      -1.980  -0.658   2.984  0.00  0.00    +0.210 HD
ENDBRANCH  19  20
BRANCH  19  22
ATOM     22  C   UNL     1      -1.440  -2.036   0.784  0.00  0.00    -0.049 C 
BRANCH  22  23
ATOM     23  N   UNL     1      -2.782  -2.593   0.512  0.00  0.00    +0.381 N 
ATOM     24  H   UNL     1      -3.426  -2.287   1.250  0.00  0.00    -0.082 HD
BRANCH  23  26
ATOM     25  C   UNL     1      -2.323  -2.512  -1.916  0.00  0.00    -0.017 C 
ATOM     26  C   UNL     1      -3.277  -2.103  -0.792  0.00  0.00    -0.082 C 
ENDBRANCH  23  26
BRANCH  23  27
ATOM     27  C   UNL     1      -2.723  -4.070   0.507  0.00  0.00    -0.082 C 
ATOM     28  C   UNL     1      -4.149  -4.619   0.592  0.00  0.00    -0.017 C 
ENDBRANCH  23  27
ENDBRANCH  22  23
ENDBRANCH  19  22
ENDBRANCH  18  19
ENDBRANCH   6  18
TORSDOF 9
