REMARK  Name = ZINC13040772
REMARK  6 active torsions:
REMARK  status: ('A' for Active; 'I' for Inactive)
REMARK    1  A    between atoms: C_3  and  N_18
REMARK    2  A    between atoms: C_5  and  S_7
REMARK    3  A    between atoms: S_7  and  N_10
REMARK    4  A    between atoms: C_19  and  C_21
REMARK    5  A    between atoms: C_21  and  N_22
REMARK    6  A    between atoms: C_26  and  C_28
REMARK                            x       y       z     vdW  Elec       q    Type
REMARK                         _______ _______ _______ _____ _____    ______ ____
ROOT
ATOM      1  C   UNL     1      -0.014   1.367  -0.001  0.00  0.00    +0.004 A 
ATOM      2  C   UNL     1       1.169   2.079  -0.002  0.00  0.00    +0.023 A 
ATOM      3  C   UNL     1       2.383   1.405  -0.020  0.00  0.00    +0.035 A 
ATOM      4  C   UNL     1       2.403   0.016  -0.036  0.00  0.00    +0.052 A 
ATOM      5  C   UNL     1       1.216  -0.690  -0.035  0.00  0.00    +0.114 A 
ATOM      6  C   UNL     1       0.009  -0.015  -0.017  0.00  0.00    +0.029 A 
ENDROOT
BRANCH   3   7
ATOM      7  N   UNL     1       3.584   2.123  -0.021  0.00  0.00    -0.287 N 
ATOM      8  C   UNL     1       4.658   1.642   0.635  0.00  0.00    +0.201 C 
ATOM      9  O   UNL     1       4.610   0.548   1.157  0.00  0.00    -0.278 OA
ATOM     10  H   UNL     1       3.643   2.968  -0.495  0.00  0.00    +0.155 HD
BRANCH   8  11
ATOM     11  C   UNL     1       5.919   2.463   0.722  0.00  0.00    +0.020 C 
BRANCH  11  12
ATOM     12  N   UNL     1       6.934   1.724   1.483  0.00  0.00    +0.390 N 
ATOM     13  C   UNL     1       6.493   1.574   2.882  0.00  0.00    -0.077 C 
ATOM     14  C   UNL     1       7.563   2.241   3.772  0.00  0.00    -0.020 C 
ATOM     15  C   UNL     1       8.825   2.230   2.870  0.00  0.00    -0.012 C 
ATOM     16  C   UNL     1       8.209   2.471   1.469  0.00  0.00    -0.030 C 
ATOM     17  H   UNL     1       7.070   0.812   1.073  0.00  0.00    -0.080 HD
BRANCH  16  18
ATOM     18  C   UNL     1       9.121   1.933   0.396  0.00  0.00    -0.024 A 
ATOM     19  C   UNL     1       9.940   2.608  -0.446  0.00  0.00    +0.009 A 
ATOM     20  C   UNL     1      10.694   1.898  -1.361  0.00  0.00    +0.008 A 
ATOM     21  C   UNL     1      10.593   0.546  -1.389  0.00  0.00    +0.045 A 
ATOM     22  S   UNL     1       9.407   0.239  -0.090  0.00  0.00    -0.103 S 
ENDBRANCH  16  18
ENDBRANCH  11  12
ENDBRANCH   8  11
ENDBRANCH   3   7
BRANCH   5  23
ATOM     23  S   UNL     1       1.240  -2.451  -0.056  0.00  0.00    +0.100 S 
ATOM     24  O   UNL     1      -0.004  -2.868  -0.602  0.00  0.00    -0.146 OA
ATOM     25  O   UNL     1       2.487  -2.834  -0.622  0.00  0.00    -0.146 OA
BRANCH  23  26
ATOM     26  N   UNL     1       1.260  -2.960   1.519  0.00  0.00    -0.118 NA
ATOM     27  C   UNL     1       1.280  -4.224   1.790  0.00  0.00    +0.117 C 
ATOM     28  C   UNL     1       1.291  -5.250   0.659  0.00  0.00    +0.073 C 
ATOM     29  C   UNL     1       2.655  -5.907   0.662  0.00  0.00    +0.008 C 
ATOM     30  C   UNL     1       2.740  -7.128   1.580  0.00  0.00    +0.002 C 
ATOM     31  C   UNL     1       2.056  -6.912   2.930  0.00  0.00    +0.019 C 
ATOM     32  C   UNL     1       2.341  -5.554   3.534  0.00  0.00    +0.102 C 
ATOM     33  N   UNL     1       1.295  -4.631   3.045  0.00  0.00    -0.331 N 
ATOM     34  H   UNL     1       0.610  -4.322   3.657  0.00  0.00    +0.147 HD
ENDBRANCH  23  26
ENDBRANCH   5  23
TORSDOF 6
