REMARK  Name = ZINC12820862
REMARK  12 active torsions:
REMARK  status: ('A' for Active; 'I' for Inactive)
REMARK    1  A    between atoms: C_1  and  C_2
REMARK    2  A    between atoms: C_7  and  C_9
REMARK    3  A    between atoms: C_7  and  C_28
REMARK    4  A    between atoms: C_7  and  N_66
REMARK    5  A    between atoms: C_9  and  N_10
REMARK    6  A    between atoms: C_11  and  C_13
REMARK    7  A    between atoms: C_13  and  C_15
REMARK    8  A    between atoms: C_13  and  N_18
REMARK    9  A    between atoms: C_15  and  C_16
REMARK   10  A    between atoms: C_15  and  C_17
REMARK   11  A    between atoms: C_19  and  C_21
REMARK   12  A    between atoms: C_21  and  C_22
REMARK                            x       y       z     vdW  Elec       q    Type
REMARK                         _______ _______ _______ _____ _____    ______ ____
ROOT
ATOM      1  N   UNL     1       1.084   1.924   3.296  0.00  0.00    -0.315 N 
ATOM      2  C   UNL     1      -0.206   1.571   3.464  0.00  0.00    +0.234 C 
ATOM      3  O   UNL     1      -0.526   0.873   4.403  0.00  0.00    -0.274 OA
ATOM      4  H   UNL     1       1.352   2.422   2.508  0.00  0.00    +0.149 HD
ENDROOT
BRANCH   1   5
ATOM      5  C   UNL     1       2.081   1.557   4.305  0.00  0.00    +0.094 C 
BRANCH   5   6
ATOM      6  C   UNL     1       3.455   2.075   3.876  0.00  0.00    -0.013 C 
BRANCH   6  13
ATOM      7  C   UNL     1       3.643   7.785   3.727  0.00  0.00    +0.007 C 
ATOM      8  C   UNL     1       3.823   6.326   4.149  0.00  0.00    -0.018 C 
ATOM      9  C   UNL     1       4.595   5.570   3.064  0.00  0.00    -0.015 C 
ATOM     10  C   UNL     1       4.718   4.098   3.463  0.00  0.00    -0.078 C 
ATOM     11  C   UNL     1       2.635   4.199   4.697  0.00  0.00    -0.078 C 
ATOM     12  C   UNL     1       2.450   5.674   4.335  0.00  0.00    -0.015 C 
ATOM     13  N   UNL     1       3.363   3.523   3.602  0.00  0.00    +0.386 N 
ATOM     14  H   UNL     1       2.850   3.665   2.724  0.00  0.00    -0.081 HD
ENDBRANCH   6  13
BRANCH   6  15
ATOM     15  C   UNL     1       4.458   1.805   4.968  0.00  0.00    -0.022 A 
ATOM     16  C   UNL     1       5.461   0.894   5.000  0.00  0.00    +0.009 A 
ATOM     17  C   UNL     1       6.267   0.825   6.121  0.00  0.00    +0.008 A 
ATOM     18  C   UNL     1       6.030   1.669   7.155  0.00  0.00    +0.045 A 
ATOM     19  S   UNL     1       4.636   2.607   6.553  0.00  0.00    -0.103 S 
ENDBRANCH   6  15
ENDBRANCH   5   6
ENDBRANCH   1   5
BRANCH   2  20
ATOM     20  C   UNL     1      -1.249   2.042   2.484  0.00  0.00    +0.161 C 
BRANCH  20  21
ATOM     21  N   UNL     1      -2.581   1.875   3.071  0.00  0.00    -0.303 N 
ATOM     22  C   UNL     1      -3.604   2.646   2.652  0.00  0.00    +0.218 C 
ATOM     23  O   UNL     1      -3.422   3.478   1.789  0.00  0.00    -0.275 OA
ATOM     24  H   UNL     1      -2.727   1.209   3.761  0.00  0.00    +0.149 HD
BRANCH  22  25
ATOM     25  C   UNL     1      -4.974   2.473   3.256  0.00  0.00    +0.130 C 
BRANCH  25  26
ATOM     26  C   UNL     1      -5.930   3.448   2.619  0.00  0.00    -0.039 A 
ATOM     27  C   UNL     1      -6.105   4.704   3.169  0.00  0.00    +0.004 A 
ATOM     28  C   UNL     1      -6.979   5.600   2.581  0.00  0.00    +0.000 A 
ATOM     29  C   UNL     1      -7.685   5.236   1.450  0.00  0.00    +0.000 A 
ATOM     30  C   UNL     1      -7.514   3.978   0.903  0.00  0.00    +0.000 A 
ATOM     31  C   UNL     1      -6.637   3.084   1.488  0.00  0.00    +0.004 A 
ENDBRANCH  25  26
ENDBRANCH  22  25
ENDBRANCH  20  21
BRANCH  20  32
ATOM     32  C   UNL     1      -1.151   1.218   1.199  0.00  0.00    +0.012 C 
ATOM     33  C   UNL     1      -2.212   1.696   0.204  0.00  0.00    +0.009 C 
ATOM     34  C   UNL     1      -1.384  -0.259   1.521  0.00  0.00    +0.009 C 
ENDBRANCH  20  32
ENDBRANCH   2  20
TORSDOF 9
