REMARK  Name = ZINC19832372
REMARK  10 active torsions:
REMARK  status: ('A' for Active; 'I' for Inactive)
REMARK    1  A    between atoms: C_1  and  C_2
REMARK    2  A    between atoms: C_2  and  N_3
REMARK    3  A    between atoms: N_3  and  C_4
REMARK    4  A    between atoms: N_3  and  C_6
REMARK    5  A    between atoms: C_4  and  C_5
REMARK    6  A    between atoms: C_9  and  C_12
REMARK    7  A    between atoms: C_16  and  C_20
REMARK    8  A    between atoms: C_16  and  C_21
REMARK    9  A    between atoms: C_28  and  C_30
REMARK   10  A    between atoms: C_28  and  C_31
REMARK                            x       y       z     vdW  Elec       q    Type
REMARK                         _______ _______ _______ _____ _____    ______ ____
ROOT
ATOM      1  C   UNL     1       0.060  -4.278  -0.024  0.00  0.00    +0.089 C 
ATOM      2  C   UNL     1       0.772  -4.769   1.210  0.00  0.00    +0.024 C 
ATOM      3  C   UNL     1       2.051  -5.189   1.142  0.00  0.00    +0.016 C 
ATOM      4  C   UNL     1       2.774  -5.687   2.369  0.00  0.00    +0.058 C 
ATOM      5  C   UNL     1       2.234  -4.975   3.608  0.00  0.00    -0.023 C 
ATOM      6  C   UNL     1       0.728  -5.240   3.701  0.00  0.00    +0.086 C 
ATOM      7  C   UNL     1       0.070  -4.778   2.428  0.00  0.00    +0.162 C 
ATOM      8  O   UNL     1      -1.086  -4.407   2.455  0.00  0.00    -0.292 OA
ATOM      9  C   UNL     1       2.485  -3.470   3.489  0.00  0.00    +0.011 C 
ATOM     10  C   UNL     1       2.929  -5.514   4.859  0.00  0.00    +0.011 C 
ATOM     11  N   UNL     1       2.717  -5.173  -0.053  0.00  0.00    -0.320 N 
ATOM     12  C   UNL     1       2.029  -5.175  -1.236  0.00  0.00    +0.016 C 
ATOM     13  C   UNL     1       0.748  -4.754  -1.276  0.00  0.00    +0.024 C 
ATOM     14  C   UNL     1       0.024  -4.747  -2.481  0.00  0.00    +0.162 C 
ATOM     15  O   UNL     1      -1.132  -4.372  -2.481  0.00  0.00    -0.292 OA
ATOM     16  C   UNL     1       0.656  -5.196  -3.771  0.00  0.00    +0.086 C 
ATOM     17  C   UNL     1       2.164  -4.935  -3.704  0.00  0.00    -0.023 C 
ATOM     18  C   UNL     1       2.729  -5.660  -2.481  0.00  0.00    +0.058 C 
ATOM     19  C   UNL     1       2.421  -3.432  -3.574  0.00  0.00    +0.011 C 
ATOM     20  C   UNL     1       2.838  -5.464  -4.972  0.00  0.00    +0.011 C 
ATOM     21  H   UNL     1       3.817  -5.159  -0.070  0.00  0.00    +0.152 HD
ENDROOT
BRANCH   1  25
ATOM     22  C   UNL     1       0.002  -0.004   0.002  0.00  0.00    +0.030 A 
ATOM     23  C   UNL     1       1.213  -0.684  -0.019  0.00  0.00    +0.023 A 
ATOM     24  C   UNL     1       1.229  -2.065  -0.022  0.00  0.00    +0.006 A 
ATOM     25  C   UNL     1       0.040  -2.771  -0.014  0.00  0.00    -0.035 A 
ATOM     26  C   UNL     1      -1.168  -2.097   0.002  0.00  0.00    +0.006 A 
ATOM     27  C   UNL     1      -1.190  -0.717   0.010  0.00  0.00    +0.023 A 
BRANCH  22  28
ATOM     28  N   UNL     1      -0.017   1.393   0.010  0.00  0.00    -0.330 N 
BRANCH  28  30
ATOM     29  C   UNL     1       1.666   2.411  -1.444  0.00  0.00    +0.024 C 
ATOM     30  C   UNL     1       1.242   2.142   0.002  0.00  0.00    +0.102 C 
ENDBRANCH  28  30
BRANCH  28  31
ATOM     31  C   UNL     1      -1.295   2.108   0.020  0.00  0.00    +0.102 C 
ATOM     32  C   UNL     1      -1.734   2.349   1.466  0.00  0.00    +0.024 C 
ENDBRANCH  28  31
ENDBRANCH  22  28
ENDBRANCH   1  25
TORSDOF 4
