REMARK  Name = ZINC36828340
REMARK  8 active torsions:
REMARK  status: ('A' for Active; 'I' for Inactive)
REMARK    1  A    between atoms: C_3  and  S_27
REMARK    2  A    between atoms: C_6  and  C_7
REMARK    3  A    between atoms: C_7  and  N_8
REMARK    4  A    between atoms: C_9  and  C_11
REMARK    5  A    between atoms: C_11  and  S_12
REMARK    6  A    between atoms: S_12  and  C_13
REMARK    7  A    between atoms: C_19  and  C_23
REMARK    8  A    between atoms: S_27  and  N_30
REMARK                            x       y       z     vdW  Elec       q    Type
REMARK                         _______ _______ _______ _____ _____    ______ ____
ROOT
ATOM      1  N   UNL     1      -1.726  -1.018  -1.368  0.00  0.00    -0.311 N 
ATOM      2  C   UNL     1      -2.867  -1.694  -1.606  0.00  0.00    +0.224 C 
ATOM      3  O   UNL     1      -3.535  -2.103  -0.680  0.00  0.00    -0.275 OA
ATOM      4  H   UNL     1      -1.192  -0.691  -2.108  0.00  0.00    +0.149 HD
ENDROOT
BRANCH   1   5
ATOM      5  C   UNL     1      -1.293  -0.775   0.011  0.00  0.00    +0.139 C 
BRANCH   5  11
ATOM      6  C   UNL     1      -0.017   1.378   0.010  0.00  0.00    +0.007 A 
ATOM      7  C   UNL     1       1.171   2.086   0.002  0.00  0.00    +0.029 A 
ATOM      8  C   UNL     1       2.377   1.411  -0.013  0.00  0.00    +0.105 A 
ATOM      9  C   UNL     1       2.396   0.029  -0.020  0.00  0.00    +0.029 A 
ATOM     10  C   UNL     1       1.208  -0.679  -0.012  0.00  0.00    +0.007 A 
ATOM     11  C   UNL     1       0.002  -0.004   0.002  0.00  0.00    -0.030 A 
BRANCH   8  12
ATOM     12  S   UNL     1       3.891   2.312  -0.024  0.00  0.00    +0.056 S 
ATOM     13  O   UNL     1       4.872   1.453  -0.588  0.00  0.00    -0.153 OA
ATOM     14  O   UNL     1       3.597   3.593  -0.566  0.00  0.00    -0.153 OA
BRANCH  12  15
ATOM     15  N   UNL     1       4.327   2.556   1.555  0.00  0.00    -0.204 NA
ATOM     16  H   UNL     1       5.265   2.623   1.794  0.00  0.00    +0.144 HD
ATOM     17  H   UNL     1       3.645   2.631   2.241  0.00  0.00    +0.144 HD
ENDBRANCH  12  15
ENDBRANCH   8  12
ENDBRANCH   5  11
ENDBRANCH   1   5
BRANCH   2  18
ATOM     18  C   UNL     1      -3.312  -1.944  -3.024  0.00  0.00    +0.173 C 
BRANCH  18  19
ATOM     19  S   UNL     1      -4.871  -2.872  -3.014  0.00  0.00    -0.076 S 
BRANCH  19  20
ATOM     20  C   UNL     1      -5.254  -3.081  -4.721  0.00  0.00    +0.196 A 
ATOM     21  N   UNL     1      -4.540  -2.651  -5.737  0.00  0.00    -0.122 NA
ATOM     22  N   UNL     1      -5.106  -2.974  -6.847  0.00  0.00    -0.127 NA
ATOM     23  C   UNL     1      -6.222  -3.634  -6.602  0.00  0.00    +0.180 A 
ATOM     24  N   UNL     1      -6.342  -3.724  -5.232  0.00  0.00    -0.276 N 
ATOM     25  C   UNL     1      -7.412  -4.367  -4.671  0.00  0.00    +0.107 A 
ATOM     26  C   UNL     1      -8.360  -4.923  -5.450  0.00  0.00    +0.073 A 
ATOM     27  C   UNL     1      -8.264  -4.851  -6.853  0.00  0.00    +0.037 A 
ATOM     28  C   UNL     1      -7.212  -4.208  -7.427  0.00  0.00    +0.086 A 
ATOM     29 CL   UNL     1      -7.078  -4.113  -9.155  0.00  0.00    -0.080 Cl
BRANCH  26  30
ATOM     30  C   UNL     1      -9.531  -5.628  -4.816  0.00  0.00    +0.419 C 
ATOM     31  F   UNL     1     -10.608  -4.741  -4.712  0.00  0.00    -0.166 F 
ATOM     32  F   UNL     1      -9.902  -6.721  -5.606  0.00  0.00    -0.166 F 
ATOM     33  F   UNL     1      -9.171  -6.076  -3.541  0.00  0.00    -0.166 F 
ENDBRANCH  26  30
ENDBRANCH  19  20
ENDBRANCH  18  19
ENDBRANCH   2  18
TORSDOF 8
