REMARK  Name = ZINC28286252
REMARK  7 active torsions:
REMARK  status: ('A' for Active; 'I' for Inactive)
REMARK    1  A    between atoms: C_1  and  C_2
REMARK    2  A    between atoms: C_5  and  C_8
REMARK    3  A    between atoms: C_8  and  C_21
REMARK    4  A    between atoms: N_11  and  C_14
REMARK    5  A    between atoms: C_14  and  C_15
REMARK    6  A    between atoms: C_21  and  N_22
REMARK    7  A    between atoms: C_23  and  C_25
REMARK                            x       y       z     vdW  Elec       q    Type
REMARK                         _______ _______ _______ _____ _____    ______ ____
ROOT
ATOM      1  C   UNL     1       3.374  -5.033  -0.655  0.00  0.00    +0.008 C 
ATOM      2  C   UNL     1       3.366  -4.795  -2.167  0.00  0.00    -0.006 C 
ATOM      3  C   UNL     1       2.092  -5.396  -2.767  0.00  0.00    -0.077 C 
ATOM      4  N   UNL     1       2.046  -6.835  -2.479  0.00  0.00    +0.382 N 
ATOM      5  C   UNL     1       2.005  -7.087  -1.033  0.00  0.00    -0.077 C 
ATOM      6  C   UNL     1       3.276  -6.537  -0.382  0.00  0.00    -0.006 C 
ATOM      7  H   UNL     1       2.969  -7.285  -2.872  0.00  0.00    -0.081 HD
ENDROOT
BRANCH   1  12
ATOM      8  C   UNL     1       8.280  -2.976   1.602  0.00  0.00    +0.044 C 
ATOM      9  C   UNL     1       7.001  -3.514   1.014  0.00  0.00    -0.050 A 
ATOM     10  C   UNL     1       6.107  -4.202   1.813  0.00  0.00    +0.003 A 
ATOM     11  C   UNL     1       4.934  -4.694   1.273  0.00  0.00    +0.004 A 
ATOM     12  C   UNL     1       4.654  -4.497  -0.066  0.00  0.00    -0.040 A 
ATOM     13  C   UNL     1       5.550  -3.814  -0.867  0.00  0.00    +0.004 A 
ATOM     14  C   UNL     1       6.721  -3.318  -0.326  0.00  0.00    +0.003 A 
ENDBRANCH   1  12
BRANCH   4  15
ATOM     15  C   UNL     1       0.907  -7.471  -3.156  0.00  0.00    -0.043 C 
BRANCH  15  16
ATOM     16  C   UNL     1       0.843  -6.994  -4.584  0.00  0.00    -0.064 A 
ATOM     17  C   UNL     1       0.102  -5.871  -4.905  0.00  0.00    +0.002 A 
ATOM     18  C   UNL     1       0.047  -5.431  -6.215  0.00  0.00    +0.000 A 
ATOM     19  C   UNL     1       0.723  -6.119  -7.204  0.00  0.00    +0.000 A 
ATOM     20  C   UNL     1       1.459  -7.245  -6.884  0.00  0.00    +0.000 A 
ATOM     21  C   UNL     1       1.519  -7.682  -5.574  0.00  0.00    +0.002 A 
ENDBRANCH  15  16
ENDBRANCH   4  15
BRANCH   1  22
ATOM     22  C   UNL     1       2.180  -4.319  -0.019  0.00  0.00    +0.115 C 
BRANCH  22  23
ATOM     23  N   UNL     1       2.292  -2.877  -0.252  0.00  0.00    -0.311 N 
ATOM     24  C   UNL     1       1.298  -2.053   0.134  0.00  0.00    +0.257 C 
ATOM     25  O   UNL     1       0.311  -2.505   0.674  0.00  0.00    -0.272 OA
ATOM     26  H   UNL     1       3.187  -2.468  -0.742  0.00  0.00    +0.149 HD
BRANCH  24  27
ATOM     27  C   UNL     1       1.413  -0.570  -0.107  0.00  0.00    +0.296 C 
ATOM     28  C   UNL     1       2.554   0.005   0.744  0.00  0.00    +0.283 C 
ATOM     29  O   UNL     1       2.627   1.415   0.502  0.00  0.00    -0.484 OA
ATOM     30  C   UNL     1       1.450   2.100   0.519  0.00  0.00    +0.162 A 
ATOM     31  C   UNL     1       1.469   3.480   0.652  0.00  0.00    +0.049 A 
ATOM     32  C   UNL     1       0.283   4.190   0.667  0.00  0.00    +0.004 A 
ATOM     33  C   UNL     1      -0.924   3.526   0.551  0.00  0.00    +0.004 A 
ATOM     34  C   UNL     1      -0.950   2.150   0.426  0.00  0.00    +0.049 A 
ATOM     35  C   UNL     1       0.237   1.432   0.406  0.00  0.00    +0.163 A 
ATOM     36  O   UNL     1       0.196   0.078   0.279  0.00  0.00    -0.473 OA
ENDBRANCH  24  27
ENDBRANCH  22  23
ENDBRANCH   1  22
TORSDOF 6
