REMARK  Name = ZINC02108600
REMARK  4 active torsions:
REMARK  status: ('A' for Active; 'I' for Inactive)
REMARK    1  A    between atoms: C_1  and  C_2
REMARK    2  A    between atoms: C_5  and  N_9
REMARK    3  A    between atoms: C_27  and  C_35
REMARK    4  A    between atoms: C_29  and  C_34
REMARK                            x       y       z     vdW  Elec       q    Type
REMARK                         _______ _______ _______ _____ _____    ______ ____
ROOT
ATOM      1  N   UNL     1       0.058  -4.173  -0.023  0.00  0.00    -0.209 N 
ATOM      2  C   UNL     1      -1.058  -4.912  -0.027  0.00  0.00    +0.228 C 
ATOM      3  O   UNL     1      -2.188  -4.473  -0.027  0.00  0.00    -0.275 OA
ATOM      4  C   UNL     1      -0.689  -6.378  -0.033  0.00  0.00    +0.074 C 
ATOM      5  C   UNL     1      -1.101  -7.003  -1.379  0.00  0.00    -0.054 C 
ATOM      6  C   UNL     1      -2.246  -6.177  -1.993  0.00  0.00    -0.016 C 
ATOM      7  C   UNL     1      -1.562  -5.115  -2.875  0.00  0.00    -0.020 C 
ATOM      8  C   UNL     1      -0.049  -5.365  -2.706  0.00  0.00    -0.076 C 
ATOM      9  N   UNL     1       0.075  -6.805  -2.280  0.00  0.00    +0.395 N 
ATOM     10  C   UNL     1       1.245  -6.974  -1.402  0.00  0.00    +0.053 C 
ATOM     11  C   UNL     1       0.864  -6.357  -0.035  0.00  0.00    +0.089 C 
ATOM     12  C   UNL     1       1.193  -4.882  -0.033  0.00  0.00    +0.229 C 
ATOM     13  O   UNL     1       2.311  -4.414  -0.036  0.00  0.00    -0.275 OA
ATOM     14  C   UNL     1       1.623  -8.421  -1.259  0.00  0.00    -0.027 A 
ATOM     15  C   UNL     1       0.956  -9.533  -0.796  0.00  0.00    +0.008 A 
ATOM     16  C   UNL     1       1.587 -10.765  -0.787  0.00  0.00    -0.050 A 
ATOM     17  C   UNL     1       2.888 -10.876  -1.244  0.00  0.00    +0.008 A 
ATOM     18  C   UNL     1       3.559  -9.764  -1.709  0.00  0.00    -0.029 A 
ATOM     19  C   UNL     1       2.932  -8.521  -1.721  0.00  0.00    +0.039 A 
ATOM     20  N   UNL     1       3.395  -7.270  -2.135  0.00  0.00    -0.286 N 
ATOM     21  C   UNL     1       2.465  -6.308  -1.981  0.00  0.00    +0.212 C 
ATOM     22  O   UNL     1       2.586  -5.133  -2.256  0.00  0.00    -0.277 OA
ATOM     23  C   UNL     1       4.977  -9.896  -2.204  0.00  0.00    +0.045 C 
ATOM     24  C   UNL     1       0.858 -11.983  -0.281  0.00  0.00    +0.044 C 
ATOM     25  H   UNL     1       4.283  -7.112  -2.492  0.00  0.00    +0.155 HD
ATOM     26  H   UNL     1       0.075  -7.443  -3.062  0.00  0.00    -0.079 HD
ENDROOT
BRANCH   1  31
ATOM     27  C   UNL     1      -0.018   1.503   0.010  0.00  0.00    +0.044 C 
ATOM     28  C   UNL     1       0.002  -0.004   0.002  0.00  0.00    -0.049 A 
ATOM     29  C   UNL     1       0.006  -0.688  -1.200  0.00  0.00    +0.005 A 
ATOM     30  C   UNL     1       0.024  -2.068  -1.212  0.00  0.00    +0.025 A 
ATOM     31  C   UNL     1       0.040  -2.771  -0.014  0.00  0.00    +0.058 A 
ATOM     32  C   UNL     1       0.036  -2.082   1.192  0.00  0.00    +0.040 A 
ATOM     33  C   UNL     1       0.023  -0.700   1.196  0.00  0.00    +0.020 A 
ATOM     34 BR   UNL     1       0.056  -3.034   2.825  0.00  0.00    -0.048 Br
ENDBRANCH   1  31
TORSDOF 1
