REMARK  Name = ZINC02191782
REMARK  13 active torsions:
REMARK  status: ('A' for Active; 'I' for Inactive)
REMARK    1  A    between atoms: C_1  and  C_2
REMARK    2  A    between atoms: C_2  and  C_3
REMARK    3  A    between atoms: C_2  and  C_4
REMARK    4  A    between atoms: C_2  and  C_5
REMARK    5  A    between atoms: C_12  and  N_16
REMARK    6  A    between atoms: C_13  and  C_14
REMARK    7  A    between atoms: N_16  and  C_17
REMARK    8  A    between atoms: C_17  and  C_18
REMARK    9  A    between atoms: C_17  and  C_22
REMARK   10  A    between atoms: C_17  and  N_26
REMARK   11  A    between atoms: C_18  and  O_20
REMARK   12  A    between atoms: O_20  and  C_21
REMARK   13  A    between atoms: C_27  and  C_29
REMARK                            x       y       z     vdW  Elec       q    Type
REMARK                         _______ _______ _______ _____ _____    ______ ____
ROOT
ATOM      1  C   UNL     1       3.777   6.001  -0.065  0.00  0.00    +0.296 C 
ENDROOT
BRANCH   1   2
ATOM      2  C   UNL     1       2.337   5.526  -0.267  0.00  0.00    +0.438 C 
ATOM      3  F   UNL     1       1.577   5.847   0.863  0.00  0.00    -0.166 F 
ATOM      4  F   UNL     1       1.791   6.158  -1.390  0.00  0.00    -0.166 F 
ATOM      5  F   UNL     1       2.325   4.141  -0.459  0.00  0.00    -0.166 F 
ENDBRANCH   1   2
BRANCH   1   6
ATOM      6  N   UNL     1       4.299   5.456   1.190  0.00  0.00    -0.274 N 
ATOM      7  C   UNL     1       4.473   4.126   1.327  0.00  0.00    +0.246 C 
ATOM      8  O   UNL     1       4.111   3.372   0.446  0.00  0.00    -0.270 OA
ATOM      9  H   UNL     1       4.520   6.052   1.923  0.00  0.00    +0.152 HD
BRANCH   7  10
ATOM     10  C   UNL     1       5.103   3.585   2.550  0.00  0.00    +0.037 A 
ATOM     11  C   UNL     1       5.284   2.209   2.696  0.00  0.00    +0.013 A 
ATOM     12  C   UNL     1       5.873   1.710   3.839  0.00  0.00    +0.001 A 
ATOM     13  C   UNL     1       6.279   2.571   4.843  0.00  0.00    +0.000 A 
ATOM     14  C   UNL     1       6.108   3.937   4.703  0.00  0.00    +0.001 A 
ATOM     15  C   UNL     1       5.520   4.448   3.565  0.00  0.00    +0.013 A 
ENDBRANCH   7  10
ENDBRANCH   1   6
BRANCH   1  16
ATOM     16  N   UNL     1       3.807   7.464  -0.012  0.00  0.00    -0.301 N 
ATOM     17  H   UNL     1       2.977   7.965   0.038  0.00  0.00    +0.149 HD
BRANCH  16  24
ATOM     18  C   UNL     1       9.348  10.613  -0.476  0.00  0.00    -0.000 C 
ATOM     19  C   UNL     1       8.536  11.470   0.499  0.00  0.00    +0.009 C 
ATOM     20  C   UNL     1       7.052  11.409   0.135  0.00  0.00    +0.037 C 
ATOM     21  C   UNL     1       6.633   9.948   0.027  0.00  0.00    -0.018 A 
ATOM     22  C   UNL     1       7.551   8.970  -0.125  0.00  0.00    -0.004 A 
ATOM     23  S   UNL     1       6.611   7.471  -0.192  0.00  0.00    -0.077 S 
ATOM     24  C   UNL     1       5.018   8.133  -0.032  0.00  0.00    +0.086 A 
ATOM     25  C   UNL     1       5.252   9.497   0.078  0.00  0.00    +0.083 A 
ATOM     26  C   UNL     1       9.038   9.132  -0.210  0.00  0.00    +0.047 C 
BRANCH  18  28
ATOM     27  C   UNL     1      11.650   9.999  -1.228  0.00  0.00    +0.011 C 
ATOM     28  C   UNL     1      10.841  10.870  -0.264  0.00  0.00    -0.035 C 
ATOM     29  C   UNL     1      11.147  12.345  -0.530  0.00  0.00    +0.011 C 
ATOM     30  C   UNL     1      11.219  10.522   1.177  0.00  0.00    +0.011 C 
ENDBRANCH  18  28
BRANCH  25  31
ATOM     31  C   UNL     1       4.173  10.426   0.236  0.00  0.00    +0.102 C 
ATOM     32  N   UNL     1       3.317  11.162   0.361  0.00  0.00    -0.191 NA
ENDBRANCH  25  31
ENDBRANCH  16  24
ENDBRANCH   1  16
BRANCH   1  33
ATOM     33  C   UNL     1       4.629   5.523  -1.213  0.00  0.00    +0.359 C 
ATOM     34  O   UNL     1       5.395   4.602  -1.054  0.00  0.00    -0.246 OA
BRANCH  33  35
ATOM     35  O   UNL     1       4.537   6.120  -2.411  0.00  0.00    -0.465 OA
ATOM     36  C   UNL     1       5.388   5.608  -3.471  0.00  0.00    +0.280 C 
ENDBRANCH  33  35
ENDBRANCH   1  33
TORSDOF 9
