REMARK  Name = ZINC40744472
REMARK  10 active torsions:
REMARK  status: ('A' for Active; 'I' for Inactive)
REMARK    1  A    between atoms: C_1  and  C_2
REMARK    2  A    between atoms: C_2  and  C_3
REMARK    3  A    between atoms: C_2  and  O_4
REMARK    4  A    between atoms: O_4  and  C_5
REMARK    5  A    between atoms: C_8  and  C_12
REMARK    6  A    between atoms: C_12  and  N_13
REMARK    7  A    between atoms: N_13  and  C_14
REMARK    8  A    between atoms: C_14  and  C_15
REMARK    9  A    between atoms: C_15  and  N_16
REMARK   10  A    between atoms: C_17  and  C_19
REMARK                            x       y       z     vdW  Elec       q    Type
REMARK                         _______ _______ _______ _____ _____    ______ ____
ROOT
ATOM      1  N   UNL     1      -0.994  -5.965  -3.058  0.00  0.00    +0.383 N 
ATOM      2  H   UNL     1      -0.623  -5.309  -3.729  0.00  0.00    -0.085 HD
ATOM      3  H   UNL     1      -0.332  -6.089  -2.307  0.00  0.00    -0.085 HD
ENDROOT
BRANCH   1   4
ATOM      4  C   UNL     1      -2.258  -5.449  -2.516  0.00  0.00    -0.047 C 
BRANCH   4   8
ATOM      5  C   UNL     1      -1.560  -1.693  -0.598  0.00  0.00    +0.157 A 
ATOM      6  C   UNL     1      -1.886  -1.736  -1.946  0.00  0.00    +0.084 A 
ATOM      7  C   UNL     1      -2.111  -2.952  -2.564  0.00  0.00    +0.025 A 
ATOM      8  C   UNL     1      -2.012  -4.125  -1.840  0.00  0.00    -0.061 A 
ATOM      9  C   UNL     1      -1.688  -4.086  -0.496  0.00  0.00    +0.025 A 
ATOM     10  C   UNL     1      -1.456  -2.873   0.125  0.00  0.00    +0.084 A 
ATOM     11 CL   UNL     1      -1.041  -2.826   1.810  0.00  0.00    -0.080 Cl
ATOM     12 CL   UNL     1      -2.011  -0.263  -2.856  0.00  0.00    -0.080 Cl
BRANCH   5  13
ATOM     13  O   UNL     1      -1.339  -0.499   0.012  0.00  0.00    -0.486 OA
BRANCH  13  15
ATOM     14  C   UNL     1      -0.019   1.526   0.010  0.00  0.00    +0.051 C 
ATOM     15  C   UNL     1       0.002  -0.004   0.002  0.00  0.00    +0.167 C 
ATOM     16  C   UNL     1       0.742  -0.511   1.242  0.00  0.00    +0.051 C 
ENDBRANCH  13  15
ENDBRANCH   5  13
ENDBRANCH   4   8
ENDBRANCH   1   4
BRANCH   1  17
ATOM     17  C   UNL     1      -1.234  -7.256  -3.717  0.00  0.00    -0.063 C 
BRANCH  17  18
ATOM     18  C   UNL     1       0.082  -7.793  -4.282  0.00  0.00    +0.085 C 
BRANCH  18  19
ATOM     19  N   UNL     1      -0.157  -9.080  -4.939  0.00  0.00    -0.312 N 
ATOM     20  C   UNL     1       0.866  -9.744  -5.513  0.00  0.00    +0.269 C 
ATOM     21  O   UNL     1       1.986  -9.275  -5.485  0.00  0.00    -0.268 OA
ATOM     22  H   UNL     1      -1.052  -9.455  -4.961  0.00  0.00    +0.149 HD
BRANCH  20  23
ATOM     23  C   UNL     1       0.623 -11.046  -6.177  0.00  0.00    +0.209 A 
ATOM     24  C   UNL     1       1.638 -11.877  -6.835  0.00  0.00    +0.192 A 
ATOM     25  N   UNL     1       1.052 -12.946  -7.303  0.00  0.00    -0.033 NA
ATOM     26  O   UNL     1      -0.326 -12.863  -6.983  0.00  0.00    -0.240 OA
ATOM     27  N   UNL     1      -0.530 -11.654  -6.274  0.00  0.00    -0.042 NA
ATOM     28  N   UNL     1       2.989 -11.579  -6.940  0.00  0.00    -0.339 N 
ATOM     29  H   UNL     1       3.336 -10.757  -6.559  0.00  0.00    +0.144 HD
ATOM     30  H   UNL     1       3.587 -12.193  -7.395  0.00  0.00    +0.144 HD
ENDBRANCH  20  23
ENDBRANCH  18  19
ENDBRANCH  17  18
ENDBRANCH   1  17
TORSDOF 8
