REMARK  Name = ZINC39676594
REMARK  13 active torsions:
REMARK  status: ('A' for Active; 'I' for Inactive)
REMARK    1  A    between atoms: C_1  and  C_2
REMARK    2  A    between atoms: C_2  and  C_3
REMARK    3  A    between atoms: C_3  and  C_5
REMARK    4  A    between atoms: C_3  and  C_6
REMARK    5  A    between atoms: C_6  and  C_7
REMARK    6  A    between atoms: C_11  and  C_20
REMARK    7  A    between atoms: N_22  and  C_23
REMARK    8  A    between atoms: C_23  and  C_24
REMARK    9  A    between atoms: C_23  and  C_32
REMARK   10  A    between atoms: C_27  and  O_30
REMARK   11  A    between atoms: O_30  and  C_31
REMARK   12  A    between atoms: C_35  and  O_38
REMARK   13  A    between atoms: O_38  and  C_39
REMARK                            x       y       z     vdW  Elec       q    Type
REMARK                         _______ _______ _______ _____ _____    ______ ____
ROOT
ATOM      1  C   UNL     1      -1.944  -5.707   2.806  0.00  0.00    +0.219 C 
ATOM      2  O   UNL     1      -1.512  -4.603   3.059  0.00  0.00    -0.275 OA
ATOM      3  N   UNL     1      -1.849  -6.693   3.720  0.00  0.00    -0.304 N 
ATOM      4  H   UNL     1      -2.194  -7.577   3.518  0.00  0.00    +0.150 HD
ENDROOT
BRANCH   1   9
ATOM      5  C   UNL     1      -2.538  -2.611   0.135  0.00  0.00    +0.216 C 
ATOM      6  O   UNL     1      -3.404  -1.764   0.092  0.00  0.00    -0.276 OA
ATOM      7  N   UNL     1      -2.872  -3.907   0.298  0.00  0.00    -0.300 N 
ATOM      8  C   UNL     1      -1.964  -5.075   0.381  0.00  0.00    +0.121 C 
ATOM      9  C   UNL     1      -2.586  -5.978   1.470  0.00  0.00    +0.100 C 
ATOM     10  C   UNL     1      -4.074  -5.587   1.500  0.00  0.00    -0.004 C 
ATOM     11  C   UNL     1      -4.229  -4.485   0.442  0.00  0.00    +0.115 C 
ATOM     12  C   UNL     1      -4.451  -5.047   2.876  0.00  0.00    -0.010 C 
ATOM     13  C   UNL     1      -5.947  -4.720   2.897  0.00  0.00    -0.082 C 
ATOM     14  N   UNL     1      -6.719  -5.931   2.597  0.00  0.00    +0.379 N 
ATOM     15  C   UNL     1      -6.419  -6.391   1.236  0.00  0.00    -0.082 C 
ATOM     16  C   UNL     1      -4.943  -6.790   1.143  0.00  0.00    -0.010 C 
ATOM     17  H   UNL     1      -6.477  -6.655   3.256  0.00  0.00    -0.086 HD
ATOM     18  H   UNL     1      -7.704  -5.727   2.672  0.00  0.00    -0.086 HD
BRANCH   5  19
ATOM     19  C   UNL     1      -1.090  -2.216   0.007  0.00  0.00    +0.099 C 
BRANCH  19  20
ATOM     20  C   UNL     1      -0.988  -0.700  -0.168  0.00  0.00    -0.006 C 
ATOM     21  C   UNL     1      -1.638  -0.294  -1.492  0.00  0.00    +0.008 C 
BRANCH  20  23
ATOM     22  C   UNL     1       0.584   1.241  -0.222  0.00  0.00    +0.004 C 
ATOM     23  C   UNL     1       0.484  -0.285  -0.173  0.00  0.00    +0.000 C 
ENDBRANCH  20  23
ENDBRANCH  19  20
ENDBRANCH   5  19
ENDBRANCH   1   9
BRANCH   3  24
ATOM     24  C   UNL     1      -1.224  -6.431   5.019  0.00  0.00    +0.134 C 
BRANCH  24  25
ATOM     25  C   UNL     1      -1.757  -7.404   6.038  0.00  0.00    -0.023 A 
ATOM     26  C   UNL     1      -1.958  -8.727   5.690  0.00  0.00    +0.009 A 
ATOM     27  C   UNL     1      -2.446  -9.622   6.623  0.00  0.00    +0.046 A 
ATOM     28  C   UNL     1      -2.734  -9.192   7.910  0.00  0.00    +0.120 A 
ATOM     29  C   UNL     1      -2.531  -7.864   8.257  0.00  0.00    +0.046 A 
ATOM     30  C   UNL     1      -2.038  -6.975   7.322  0.00  0.00    +0.009 A 
BRANCH  28  31
ATOM     31  O   UNL     1      -3.215 -10.070   8.829  0.00  0.00    -0.495 OA
ATOM     32  C   UNL     1      -3.490  -9.557  10.134  0.00  0.00    +0.277 C 
ENDBRANCH  28  31
ENDBRANCH  24  25
BRANCH  24  33
ATOM     33  C   UNL     1       0.269  -6.593   4.900  0.00  0.00    -0.023 A 
ATOM     34  C   UNL     1       0.793  -7.620   4.136  0.00  0.00    +0.009 A 
ATOM     35  C   UNL     1       2.162  -7.771   4.026  0.00  0.00    +0.046 A 
ATOM     36  C   UNL     1       3.011  -6.893   4.683  0.00  0.00    +0.120 A 
ATOM     37  C   UNL     1       2.483  -5.864   5.449  0.00  0.00    +0.046 A 
ATOM     38  C   UNL     1       1.113  -5.713   5.552  0.00  0.00    +0.009 A 
BRANCH  36  39
ATOM     39  O   UNL     1       4.357  -7.040   4.577  0.00  0.00    -0.495 OA
ATOM     40  C   UNL     1       5.171  -6.100   5.281  0.00  0.00    +0.277 C 
ENDBRANCH  36  39
ENDBRANCH  24  33
ENDBRANCH   3  24
TORSDOF 9
