REMARK  Name = ZINC09679195
REMARK  4 active torsions:
REMARK  status: ('A' for Active; 'I' for Inactive)
REMARK    1  A    between atoms: C_1  and  C_2
REMARK    2  A    between atoms: C_5  and  N_8
REMARK    3  A    between atoms: C_9  and  C_26
REMARK    4  A    between atoms: C_12  and  C_19
REMARK                            x       y       z     vdW  Elec       q    Type
REMARK                         _______ _______ _______ _____ _____    ______ ____
ROOT
ATOM      1  N   UNL     1      -0.264  -4.103  -0.059  0.00  0.00    -0.253 N 
ATOM      2  C   UNL     1      -0.137  -4.931   1.148  0.00  0.00    +0.165 C 
ATOM      3  C   UNL     1       0.027  -6.346   0.666  0.00  0.00    +0.037 A 
ATOM      4  C   UNL     1       0.200  -7.693   1.001  0.00  0.00    +0.099 A 
ATOM      5  N   UNL     1       0.261  -8.375  -0.126  0.00  0.00    -0.173 NA
ATOM      6  N   UNL     1       0.143  -7.592  -1.139  0.00  0.00    -0.272 N 
ATOM      7  H   UNL     1       0.159  -7.875  -2.067  0.00  0.00    +0.189 HD
ATOM      8  C   UNL     1      -0.007  -6.303  -0.715  0.00  0.00    +0.127 A 
ATOM      9  C   UNL     1      -0.193  -4.909  -1.133  0.00  0.00    +0.270 C 
ATOM     10  O   UNL     1      -0.269  -4.535  -2.288  0.00  0.00    -0.268 OA
ENDROOT
BRANCH   1  15
ATOM     11  C   UNL     1      -0.964   1.525  -0.168  0.00  0.00    +0.044 C 
ATOM     12  C   UNL     1      -0.777   0.030  -0.139  0.00  0.00    -0.050 A 
ATOM     13  C   UNL     1      -0.719  -0.681  -1.324  0.00  0.00    +0.005 A 
ATOM     14  C   UNL     1      -0.549  -2.051  -1.300  0.00  0.00    +0.024 A 
ATOM     15  C   UNL     1      -0.436  -2.715  -0.086  0.00  0.00    +0.038 A 
ATOM     16  C   UNL     1      -0.495  -1.998   1.102  0.00  0.00    +0.024 A 
ATOM     17  C   UNL     1      -0.660  -0.627   1.072  0.00  0.00    +0.005 A 
ENDBRANCH   1  15
BRANCH   4  18
ATOM     18  C   UNL     1       0.298  -8.252   2.373  0.00  0.00    +0.003 A 
ATOM     19  C   UNL     1      -0.543  -7.784   3.380  0.00  0.00    +0.011 A 
ATOM     20  C   UNL     1      -0.449  -8.307   4.653  0.00  0.00    +0.016 A 
ATOM     21  C   UNL     1       0.480  -9.295   4.931  0.00  0.00    +0.018 A 
ATOM     22  C   UNL     1       1.318  -9.763   3.934  0.00  0.00    +0.016 A 
ATOM     23  C   UNL     1       1.227  -9.250   2.656  0.00  0.00    +0.011 A 
ATOM     24 BR   UNL     1       0.605 -10.007   6.678  0.00  0.00    -0.050 Br
ENDBRANCH   4  18
BRANCH   2  25
ATOM     25  C   UNL     1       1.071  -4.508   1.942  0.00  0.00    +0.067 A 
ATOM     26  C   UNL     1       1.855  -3.463   1.490  0.00  0.00    +0.025 A 
ATOM     27  C   UNL     1       2.965  -3.082   2.228  0.00  0.00    +0.003 A 
ATOM     28  C   UNL     1       3.247  -3.769   3.399  0.00  0.00    +0.020 A 
ATOM     29  C   UNL     1       2.417  -4.804   3.788  0.00  0.00    +0.111 A 
ATOM     30  N   UNL     1       1.367  -5.136   3.063  0.00  0.00    -0.258 NA
ENDBRANCH   2  25
TORSDOF 3
