REMARK  Name = ZINC39762159
REMARK  15 active torsions:
REMARK  status: ('A' for Active; 'I' for Inactive)
REMARK    1  A    between atoms: C_1  and  C_2
REMARK    2  A    between atoms: C_5  and  N_9
REMARK    3  A    between atoms: C_6  and  C_8
REMARK    4  A    between atoms: C_10  and  C_12
REMARK    5  A    between atoms: C_12  and  C_13
REMARK    6  A    between atoms: C_16  and  S_22
REMARK    7  A    between atoms: N_17  and  C_18
REMARK    8  A    between atoms: C_18  and  C_19
REMARK    9  A    between atoms: C_19  and  C_20
REMARK   10  A    between atoms: C_19  and  C_21
REMARK   11  A    between atoms: S_22  and  C_23
REMARK   12  A    between atoms: C_23  and  C_25
REMARK   13  A    between atoms: C_23  and  C_26
REMARK   14  A    between atoms: N_28  and  C_29
REMARK   15  A    between atoms: C_34  and  O_35
REMARK                            x       y       z     vdW  Elec       q    Type
REMARK                         _______ _______ _______ _____ _____    ______ ____
ROOT
ATOM      1  C   UNL     1      -0.262  -6.886  -2.594  0.00  0.00    +0.143 A 
ATOM      2  N   UNL     1      -1.357  -7.071  -3.276  0.00  0.00    -0.133 NA
ATOM      3  N   UNL     1      -1.075  -7.492  -4.457  0.00  0.00    -0.122 NA
ATOM      4  C   UNL     1       0.226  -7.599  -4.594  0.00  0.00    +0.192 A 
ATOM      5  N   UNL     1       0.786  -7.210  -3.411  0.00  0.00    -0.305 N 
ENDROOT
BRANCH   1   6
ATOM      6  C   UNL     1      -0.167  -6.398  -1.172  0.00  0.00    +0.172 C 
BRANCH   6   8
ATOM      7  N   UNL     1       0.011  -4.231   0.009  0.00  0.00    -0.285 N 
ATOM      8  C   UNL     1      -0.082  -4.893  -1.161  0.00  0.00    +0.225 C 
ATOM      9  O   UNL     1      -0.096  -4.278  -2.206  0.00  0.00    -0.275 OA
ATOM     10  H   UNL     1       0.092  -4.725   0.840  0.00  0.00    +0.155 HD
BRANCH   7  15
ATOM     11  C   UNL     1      -0.075   1.441   0.075  0.00  0.00    +0.044 C 
ATOM     12  C   UNL     1      -0.052  -0.066   0.057  0.00  0.00    -0.050 A 
ATOM     13  C   UNL     1       0.555  -0.735  -0.990  0.00  0.00    +0.005 A 
ATOM     14  C   UNL     1       0.577  -2.116  -1.009  0.00  0.00    +0.024 A 
ATOM     15  C   UNL     1      -0.010  -2.833   0.026  0.00  0.00    +0.036 A 
ATOM     16  C   UNL     1      -0.618  -2.158   1.076  0.00  0.00    -0.029 A 
ATOM     17  C   UNL     1      -0.633  -0.777   1.091  0.00  0.00    +0.008 A 
ATOM     18  C   UNL     1      -1.256  -2.932   2.200  0.00  0.00    +0.045 C 
ENDBRANCH   7  15
ENDBRANCH   6   8
ENDBRANCH   1   6
BRANCH   5  19
ATOM     19  C   UNL     1       2.213  -7.155  -3.083  0.00  0.00    +0.128 C 
BRANCH  19  20
ATOM     20  C   UNL     1       2.654  -8.499  -2.499  0.00  0.00    +0.003 C 
ATOM     21  C   UNL     1       2.525  -9.587  -3.568  0.00  0.00    +0.009 C 
ATOM     22  C   UNL     1       4.111  -8.403  -2.042  0.00  0.00    +0.009 C 
ENDBRANCH  19  20
ENDBRANCH   5  19
BRANCH   4  23
ATOM     23  S   UNL     1       1.087  -8.136  -6.034  0.00  0.00    -0.074 S 
BRANCH  23  24
ATOM     24  C   UNL     1      -0.232  -8.488  -7.229  0.00  0.00    +0.137 C 
ATOM     25  C   UNL     1      -1.077  -9.659  -6.725  0.00  0.00    +0.029 C 
BRANCH  24  26
ATOM     26  C   UNL     1       0.378  -8.844  -8.560  0.00  0.00    +0.230 C 
ATOM     27  O   UNL     1       1.501  -9.300  -8.610  0.00  0.00    -0.274 OA
ATOM     28  N   UNL     1      -0.325  -8.657  -9.695  0.00  0.00    -0.282 N 
ATOM     29  H   UNL     1      -1.190  -8.219  -9.663  0.00  0.00    +0.155 HD
BRANCH  28  30
ATOM     30  C   UNL     1       0.194  -9.096 -10.921  0.00  0.00    +0.075 A 
ATOM     31  C   UNL     1       1.116 -10.131 -10.955  0.00  0.00    +0.027 A 
ATOM     32  C   UNL     1       1.626 -10.562 -12.165  0.00  0.00    +0.002 A 
ATOM     33  C   UNL     1       1.219  -9.964 -13.343  0.00  0.00    +0.004 A 
ATOM     34  C   UNL     1       0.300  -8.931 -13.317  0.00  0.00    +0.047 A 
ATOM     35  C   UNL     1      -0.220  -8.497 -12.108  0.00  0.00    +0.138 A 
BRANCH  35  36
ATOM     36  O   UNL     1      -1.128  -7.485 -12.081  0.00  0.00    -0.505 OA
ATOM     37  H   UNL     1      -0.735  -6.605 -12.006  0.00  0.00    +0.292 HD
ENDBRANCH  35  36
ENDBRANCH  28  30
ENDBRANCH  24  26
ENDBRANCH  23  24
ENDBRANCH   4  23
TORSDOF 10
