REMARK  Name = ZINC08952249
REMARK  6 active torsions:
REMARK  status: ('A' for Active; 'I' for Inactive)
REMARK    1  A    between atoms: C_4  and  C_7
REMARK    2  A    between atoms: N_16  and  N_17
REMARK    3  A    between atoms: N_17  and  C_18
REMARK    4  A    between atoms: C_21  and  S_24
REMARK    5  A    between atoms: S_24  and  N_27
REMARK    6  A    between atoms: C_28  and  C_30
REMARK                            x       y       z     vdW  Elec       q    Type
REMARK                         _______ _______ _______ _____ _____    ______ ____
ROOT
ATOM      1  C   UNL     1       3.698  -0.688  -0.037  0.00  0.00    +0.080 A 
ATOM      2  C   UNL     1       3.727  -2.055  -0.050  0.00  0.00    +0.077 A 
ATOM      3  S   UNL     1       5.491  -2.349  -0.067  0.00  0.00    -0.058 S 
ATOM      4  C   UNL     1       6.002  -0.636  -0.056  0.00  0.00    +0.189 A 
ATOM      5  N   UNL     1       4.838  -0.014  -0.045  0.00  0.00    -0.223 NA
ATOM      6  N   UNL     1       7.286  -0.101  -0.061  0.00  0.00    -0.130 N 
ATOM      7  C   UNL     1       8.422  -0.826  -0.083  0.00  0.00    +0.294 C 
ATOM      8  O   UNL     1       8.515  -2.041  -0.100  0.00  0.00    -0.266 OA
ATOM      9  C   UNL     1       9.528   0.145  -0.082  0.00  0.00    +0.173 C 
ATOM     10  N   UNL     1      10.822  -0.110  -0.099  0.00  0.00    -0.175 NA
ATOM     11  C   UNL     1       8.870   1.469  -0.057  0.00  0.00    +0.122 C 
ATOM     12  N   UNL     1       7.580   1.262  -0.051  0.00  0.00    -0.168 NA
ENDROOT
BRANCH   1  16
ATOM     13  C   UNL     1      -0.017   1.379   0.010  0.00  0.00    +0.000 A 
ATOM     14  C   UNL     1       1.169   2.092   0.002  0.00  0.00    +0.001 A 
ATOM     15  C   UNL     1       2.377   1.427  -0.013  0.00  0.00    +0.010 A 
ATOM     16  C   UNL     1       2.402   0.033  -0.021  0.00  0.00    +0.001 A 
ATOM     17  C   UNL     1       1.205  -0.680  -0.013  0.00  0.00    +0.010 A 
ATOM     18  C   UNL     1       0.002  -0.004   0.002  0.00  0.00    +0.001 A 
ENDBRANCH   1  16
BRANCH  11  19
ATOM     19  C   UNL     1       9.548   2.786  -0.045  0.00  0.00    +0.004 A 
ATOM     20  C   UNL     1      10.941   2.857  -0.064  0.00  0.00    +0.010 A 
ATOM     21  C   UNL     1      11.567   4.086  -0.054  0.00  0.00    +0.001 A 
ATOM     22  C   UNL     1      10.815   5.248  -0.025  0.00  0.00    +0.000 A 
ATOM     23  C   UNL     1       9.434   5.184  -0.006  0.00  0.00    +0.001 A 
ATOM     24  C   UNL     1       8.796   3.960  -0.021  0.00  0.00    +0.010 A 
ENDBRANCH  11  19
BRANCH  10  25
ATOM     25  N   UNL     1      11.239  -1.330  -0.120  0.00  0.00    -0.237 N 
ATOM     26  H   UNL     1      10.601  -2.061  -0.123  0.00  0.00    +0.174 HD
BRANCH  25  27
ATOM     27  C   UNL     1      12.608  -1.600  -0.139  0.00  0.00    +0.048 A 
ATOM     28  C   UNL     1      13.524  -0.554  -0.129  0.00  0.00    +0.026 A 
ATOM     29  C   UNL     1      14.878  -0.825  -0.148  0.00  0.00    +0.030 A 
ATOM     30  C   UNL     1      15.323  -2.134  -0.176  0.00  0.00    +0.105 A 
ATOM     31  C   UNL     1      14.414  -3.177  -0.187  0.00  0.00    +0.030 A 
ATOM     32  C   UNL     1      13.059  -2.914  -0.162  0.00  0.00    +0.026 A 
BRANCH  30  33
ATOM     33  S   UNL     1      17.051  -2.475  -0.200  0.00  0.00    +0.056 S 
ATOM     34  O   UNL     1      17.203  -3.765  -0.776  0.00  0.00    -0.153 OA
ATOM     35  O   UNL     1      17.685  -1.321  -0.737  0.00  0.00    -0.153 OA
BRANCH  33  36
ATOM     36  N   UNL     1      17.548  -2.598   1.375  0.00  0.00    -0.204 NA
ATOM     37  H   UNL     1      18.291  -3.177   1.605  0.00  0.00    +0.144 HD
ATOM     38  H   UNL     1      17.095  -2.092   2.067  0.00  0.00    +0.144 HD
ENDBRANCH  33  36
ENDBRANCH  30  33
ENDBRANCH  25  27
ENDBRANCH  10  25
TORSDOF 6
