REMARK  Name = ZINC09128877
REMARK  5 active torsions:
REMARK  status: ('A' for Active; 'I' for Inactive)
REMARK    1  A    between atoms: C_1  and  O_2
REMARK    2  A    between atoms: O_2  and  C_3
REMARK    3  A    between atoms: C_8  and  N_9
REMARK    4  A    between atoms: C_10  and  C_12
REMARK    5  A    between atoms: C_23  and  C_26
REMARK                            x       y       z     vdW  Elec       q    Type
REMARK                         _______ _______ _______ _____ _____    ______ ____
ROOT
ATOM      1  C   UNL     1      -0.293  -4.935  -1.062  0.00  0.00    +0.119 C 
ATOM      2  C   UNL     1      -1.803  -4.722  -1.181  0.00  0.00    +0.113 C 
ATOM      3  C   UNL     1      -2.490  -5.427  -0.039  0.00  0.00    +0.218 C 
ATOM      4  O   UNL     1      -3.471  -4.934   0.474  0.00  0.00    -0.275 OA
ATOM      5  N   UNL     1      -2.015  -6.600   0.410  0.00  0.00    -0.289 N 
ATOM      6  C   UNL     1      -0.858  -7.143  -0.084  0.00  0.00    +0.018 C 
ATOM      7  C   UNL     1      -0.006  -6.397  -0.816  0.00  0.00    +0.024 C 
ATOM      8  C   UNL     1       1.161  -6.954  -1.367  0.00  0.00    +0.162 C 
ATOM      9  O   UNL     1       1.894  -6.255  -2.039  0.00  0.00    -0.292 OA
ATOM     10  C   UNL     1       1.520  -8.397  -1.141  0.00  0.00    +0.088 C 
ATOM     11  C   UNL     1       0.237  -9.205  -0.924  0.00  0.00    +0.032 C 
ATOM     12  C   UNL     1      -0.540  -8.583   0.236  0.00  0.00    +0.059 C 
ATOM     13  H   UNL     1      -2.503  -7.074   1.102  0.00  0.00    +0.155 HD
ENDROOT
BRANCH  11  14
ATOM     14  C   UNL     1       0.589 -10.633  -0.594  0.00  0.00    -0.044 A 
ATOM     15  C   UNL     1       1.348 -10.917   0.526  0.00  0.00    +0.004 A 
ATOM     16  C   UNL     1       1.670 -12.227   0.828  0.00  0.00    +0.000 A 
ATOM     17  C   UNL     1       1.232 -13.253   0.011  0.00  0.00    +0.000 A 
ATOM     18  C   UNL     1       0.473 -12.969  -1.108  0.00  0.00    +0.000 A 
ATOM     19  C   UNL     1       0.147 -11.659  -1.408  0.00  0.00    +0.004 A 
ENDBRANCH  11  14
BRANCH   1  21
ATOM     20  N   UNL     1       0.097  -2.778   0.084  0.00  0.00    -0.282 N 
ATOM     21  C   UNL     1       0.239  -4.118   0.087  0.00  0.00    +0.225 C 
ATOM     22  O   UNL     1       0.796  -4.667   1.014  0.00  0.00    -0.275 OA
ATOM     23  H   UNL     1      -0.404  -2.345  -0.624  0.00  0.00    +0.155 HD
BRANCH  20  29
ATOM     24  C   UNL     1       1.183  -0.745   0.824  0.00  0.00    +0.141 A 
ATOM     25  C   UNL     1       1.746   0.013   1.838  0.00  0.00    +0.049 A 
ATOM     26  C   UNL     1       1.807  -0.490   3.125  0.00  0.00    +0.024 A 
ATOM     27  C   UNL     1       1.306  -1.749   3.404  0.00  0.00    +0.043 A 
ATOM     28  C   UNL     1       0.742  -2.511   2.397  0.00  0.00    +0.047 A 
ATOM     29  C   UNL     1       0.673  -2.010   1.105  0.00  0.00    +0.077 A 
ATOM     30 CL   UNL     1       1.385  -2.373   5.022  0.00  0.00    -0.083 Cl
BRANCH  24  32
ATOM     31  C   UNL     1       1.665   1.053  -0.656  0.00  0.00    +0.277 C 
ATOM     32  O   UNL     1       1.123  -0.252  -0.442  0.00  0.00    -0.493 OA
ENDBRANCH  24  32
ENDBRANCH  20  29
ENDBRANCH   1  21
TORSDOF 4
