REMARK  Name = ZINC21630081
REMARK  10 active torsions:
REMARK  status: ('A' for Active; 'I' for Inactive)
REMARK    1  A    between atoms: C_1  and  C_2
REMARK    2  A    between atoms: C_2  and  C_3
REMARK    3  A    between atoms: C_4  and  C_25
REMARK    4  A    between atoms: C_5  and  N_24
REMARK    5  A    between atoms: C_9  and  N_23
REMARK    6  A    between atoms: C_10  and  C_12
REMARK    7  A    between atoms: C_12  and  C_14
REMARK    8  A    between atoms: C_16  and  C_22
REMARK    9  A    between atoms: C_17  and  C_21
REMARK   10  A    between atoms: C_19  and  C_20
REMARK                            x       y       z     vdW  Elec       q    Type
REMARK                         _______ _______ _______ _____ _____    ______ ____
ROOT
ATOM      1  C   UNL     1       2.353   2.333  -1.375  0.00  0.00    -0.015 A 
ATOM      2  C   UNL     1       3.654   2.425  -1.850  0.00  0.00    +0.095 A 
ATOM      3  C   UNL     1       4.585   1.406  -1.555  0.00  0.00    +0.135 A 
ATOM      4  N   UNL     1       4.218   0.365  -0.826  0.00  0.00    -0.224 NA
ATOM      5  C   UNL     1       2.992   0.246  -0.359  0.00  0.00    +0.113 A 
ATOM      6  C   UNL     1       1.983   1.211  -0.597  0.00  0.00    +0.034 A 
ATOM      7  C   UNL     1       0.690   0.911  -0.003  0.00  0.00    +0.052 A 
ATOM      8  C   UNL     1       0.558  -0.257   0.724  0.00  0.00    +0.083 A 
ATOM      9  S   UNL     1       2.180  -0.988   0.627  0.00  0.00    -0.063 S 
ENDROOT
BRANCH   7  10
ATOM     10  N   UNL     1      -0.384   1.771  -0.166  0.00  0.00    -0.356 N 
ATOM     11  H   UNL     1      -1.355   1.530   0.290  0.00  0.00    +0.142 HD
ATOM     12  H   UNL     1      -0.264   2.695  -0.751  0.00  0.00    +0.142 HD
ENDBRANCH   7  10
BRANCH   3  13
ATOM     13  N   UNL     1       5.880   1.496  -2.028  0.00  0.00    -0.342 N 
ATOM     14  H   UNL     1       6.606   0.702  -1.798  0.00  0.00    +0.144 HD
ATOM     15  H   UNL     1       6.185   2.362  -2.634  0.00  0.00    +0.144 HD
ENDBRANCH   3  13
BRANCH   1  17
ATOM     16  C   UNL     1       1.357   4.453  -0.558  0.00  0.00    +0.009 C 
ATOM     17  C   UNL     1       1.349   3.415  -1.682  0.00  0.00    +0.034 C 
ENDBRANCH   1  17
BRANCH   8  18
ATOM     18  C   UNL     1      -0.587  -0.753   1.385  0.00  0.00    +0.202 C 
ATOM     19  O   UNL     1      -1.601  -0.079   1.435  0.00  0.00    -0.286 OA
BRANCH  18  20
ATOM     20  C   UNL     1      -0.556  -2.090   2.018  0.00  0.00    +0.026 A 
ATOM     21  C   UNL     1      -0.438  -2.207   3.404  0.00  0.00    +0.015 A 
ATOM     22  C   UNL     1      -0.409  -3.457   3.987  0.00  0.00    -0.047 A 
ATOM     23  C   UNL     1      -0.498  -4.593   3.202  0.00  0.00    -0.047 A 
ATOM     24  C   UNL     1      -0.615  -4.483   1.827  0.00  0.00    +0.007 A 
ATOM     25  C   UNL     1      -0.650  -3.239   1.232  0.00  0.00    -0.039 A 
ATOM     26  C   UNL     1      -0.784  -3.122  -0.265  0.00  0.00    +0.044 C 
ATOM     27  C   UNL     1      -0.466  -5.955   3.846  0.00  0.00    +0.044 C 
ATOM     28  C   UNL     1      -0.282  -3.585   5.483  0.00  0.00    +0.044 C 
ENDBRANCH  18  20
ENDBRANCH   8  18
BRANCH   2  29
ATOM     29  C   UNL     1       4.051   3.552  -2.639  0.00  0.00    +0.103 C 
ATOM     30  N   UNL     1       4.366   4.446  -3.265  0.00  0.00    -0.191 NA
ENDBRANCH   2  29
TORSDOF 6
