REMARK  Name = ZINC45551911
REMARK  6 active torsions:
REMARK  status: ('A' for Active; 'I' for Inactive)
REMARK    1  A    between atoms: C_1  and  N_2
REMARK    2  A    between atoms: N_2  and  C_3
REMARK    3  A    between atoms: N_2  and  C_4
REMARK    4  A    between atoms: C_4  and  C_10
REMARK    5  A    between atoms: C_10  and  N_11
REMARK    6  A    between atoms: N_17  and  C_20
REMARK                            x       y       z     vdW  Elec       q    Type
REMARK                         _______ _______ _______ _____ _____    ______ ____
ROOT
ATOM      1  N   UNL     1      -2.372   1.254   1.303  0.00  0.00    -0.301 N 
ATOM      2  C   UNL     1      -3.127   1.831   2.259  0.00  0.00    +0.302 C 
ATOM      3  O   UNL     1      -3.631   1.149   3.130  0.00  0.00    -0.253 OA
ATOM      4  N   UNL     1      -3.323   3.165   2.249  0.00  0.00    -0.283 N 
ATOM      5  C   UNL     1      -4.042   3.823   3.349  0.00  0.00    +0.128 C 
ATOM      6  C   UNL     1      -3.150   4.931   3.923  0.00  0.00    +0.124 C 
ATOM      7  N   UNL     1      -2.648   5.753   2.813  0.00  0.00    -0.325 N 
ATOM      8  C   UNL     1      -1.930   5.095   1.713  0.00  0.00    +0.124 C 
ATOM      9  C   UNL     1      -2.816   3.987   1.141  0.00  0.00    +0.128 C 
ATOM     10  H   UNL     1      -1.910   1.805   0.652  0.00  0.00    +0.150 HD
ENDROOT
BRANCH   7  11
ATOM     11  C   UNL     1      -2.852   7.136   2.803  0.00  0.00    +0.065 A 
ATOM     12  C   UNL     1      -1.913   7.982   3.377  0.00  0.00    +0.026 A 
ATOM     13  C   UNL     1      -2.116   9.348   3.365  0.00  0.00    +0.002 A 
ATOM     14  C   UNL     1      -3.253   9.875   2.782  0.00  0.00    +0.003 A 
ATOM     15  C   UNL     1      -4.192   9.037   2.209  0.00  0.00    +0.040 A 
ATOM     16  C   UNL     1      -3.993   7.669   2.212  0.00  0.00    +0.144 A 
ATOM     17  F   UNL     1      -4.907   6.851   1.646  0.00  0.00    -0.204 F 
ENDBRANCH   7  11
BRANCH   1  18
ATOM     18  C   UNL     1      -2.251  -0.205   1.247  0.00  0.00    +0.094 C 
BRANCH  18  19
ATOM     19  C   UNL     1      -1.453  -0.603   0.004  0.00  0.00    -0.050 C 
ATOM     20  C   UNL     1      -1.436  -2.127  -0.124  0.00  0.00    -0.010 C 
ATOM     21  C   UNL     1      -0.782  -2.737   1.118  0.00  0.00    -0.001 C 
ATOM     22  C   UNL     1       0.652  -2.220   1.245  0.00  0.00    -0.000 C 
ATOM     23  C   UNL     1       0.635  -0.695   1.374  0.00  0.00    -0.001 C 
ATOM     24  C   UNL     1      -0.018  -0.086   0.132  0.00  0.00    -0.010 C 
BRANCH  19  26
ATOM     25  C   UNL     1      -1.316  -0.404  -2.383  0.00  0.00    -0.096 C 
ATOM     26  N   UNL     1      -2.080  -0.018  -1.189  0.00  0.00    +0.381 N 
ATOM     27  C   UNL     1      -3.458  -0.511  -1.309  0.00  0.00    -0.096 C 
ATOM     28  H   UNL     1      -2.088   0.988  -1.105  0.00  0.00    -0.082 HD
ENDBRANCH  19  26
ENDBRANCH  18  19
ENDBRANCH   1  18
TORSDOF 4
