REMARK  Name = ZINC09453431
REMARK  16 active torsions:
REMARK  status: ('A' for Active; 'I' for Inactive)
REMARK    1  A    between atoms: C_1  and  C_2
REMARK    2  A    between atoms: C_2  and  N_70
REMARK    3  A    between atoms: C_3  and  C_4
REMARK    4  A    between atoms: C_3  and  N_70
REMARK    5  A    between atoms: C_5  and  C_6
REMARK    6  A    between atoms: C_5  and  N_70
REMARK    7  A    between atoms: C_6  and  C_7
REMARK    8  A    between atoms: C_7  and  N_8
REMARK    9  A    between atoms: C_9  and  C_29
REMARK   10  A    between atoms: C_11  and  C_16
REMARK   11  A    between atoms: C_12  and  O_15
REMARK   12  A    between atoms: C_16  and  C_18
REMARK   13  A    between atoms: C_25  and  C_28
REMARK   14  A    between atoms: C_32  and  O_37
REMARK   15  A    between atoms: C_33  and  O_35
REMARK   16  A    between atoms: O_35  and  C_36
REMARK                            x       y       z     vdW  Elec       q    Type
REMARK                         _______ _______ _______ _____ _____    ______ ____
ROOT
ATOM      1  N   UNL     1       1.534  -3.289   0.203  0.00  0.00    -0.284 N 
ATOM      2  C   UNL     1       1.307  -1.846   0.059  0.00  0.00    +0.145 C 
ATOM      3  C   UNL     1       2.674  -1.202   0.073  0.00  0.00    +0.071 C 
ATOM      4  C   UNL     1       3.575  -2.200   0.220  0.00  0.00    +0.188 C 
ATOM      5  C   UNL     1       2.860  -3.492   0.300  0.00  0.00    +0.282 C 
ATOM      6  O   UNL     1       3.392  -4.576   0.433  0.00  0.00    -0.267 OA
ENDROOT
BRANCH   2   7
ATOM      7  C   UNL     1       0.480  -1.331   1.208  0.00  0.00    -0.019 A 
ATOM      8  C   UNL     1       0.816  -1.670   2.506  0.00  0.00    +0.009 A 
ATOM      9  C   UNL     1       0.064  -1.196   3.564  0.00  0.00    +0.049 A 
ATOM     10  C   UNL     1      -1.037  -0.388   3.325  0.00  0.00    +0.158 A 
ATOM     11  C   UNL     1      -1.378  -0.052   2.019  0.00  0.00    +0.162 A 
ATOM     12  C   UNL     1      -0.617  -0.526   0.963  0.00  0.00    +0.055 A 
BRANCH  11  13
ATOM     13  O   UNL     1      -2.458   0.740   1.779  0.00  0.00    -0.491 OA
ATOM     14  C   UNL     1      -2.679   1.143   0.426  0.00  0.00    +0.277 C 
ENDBRANCH  11  13
BRANCH  10  15
ATOM     15  O   UNL     1      -1.781   0.074   4.365  0.00  0.00    -0.503 OA
ATOM     16  H   UNL     1      -2.511  -0.508   4.616  0.00  0.00    +0.292 HD
ENDBRANCH  10  15
ENDBRANCH   2   7
BRANCH   4  17
ATOM     17  O   UNL     1       4.917  -2.042   0.285  0.00  0.00    -0.502 OA
ATOM     18  H   UNL     1       5.353  -2.935   0.395  0.00  0.00    +0.292 HD
ENDBRANCH   4  17
BRANCH   3  19
ATOM     19  C   UNL     1       2.967   0.230  -0.044  0.00  0.00    +0.195 C 
ATOM     20  O   UNL     1       3.489   0.822   0.882  0.00  0.00    -0.287 OA
BRANCH  19  21
ATOM     21  C   UNL     1       2.629   0.954  -1.286  0.00  0.00    +0.023 A 
ATOM     22  C   UNL     1       2.083   0.267  -2.375  0.00  0.00    +0.015 A 
ATOM     23  C   UNL     1       1.777   0.941  -3.534  0.00  0.00    +0.046 A 
ATOM     24  C   UNL     1       1.997   2.316  -3.631  0.00  0.00    +0.124 A 
ATOM     25  C   UNL     1       2.535   2.995  -2.541  0.00  0.00    -0.002 A 
ATOM     26  C   UNL     1       2.851   2.331  -1.382  0.00  0.00    +0.019 A 
ATOM     27  C   UNL     1       2.646   4.455  -2.939  0.00  0.00    +0.083 C 
ATOM     28  C   UNL     1       1.740   4.513  -4.192  0.00  0.00    +0.175 C 
ATOM     29  O   UNL     1       1.775   3.160  -4.675  0.00  0.00    -0.488 OA
ATOM     30  C   UNL     1       0.315   4.917  -3.812  0.00  0.00    +0.052 C 
ENDBRANCH  19  21
ENDBRANCH   3  19
BRANCH   1  31
ATOM     31  C   UNL     1       0.498  -4.325   0.239  0.00  0.00    +0.107 C 
BRANCH  31  32
ATOM     32  C   UNL     1       0.053  -4.549   1.686  0.00  0.00    +0.000 C 
BRANCH  32  33
ATOM     33  C   UNL     1      -1.029  -5.631   1.724  0.00  0.00    -0.077 C 
BRANCH  33  34
ATOM     34  N   UNL     1      -1.433  -5.851   3.129  0.00  0.00    +0.379 N 
ATOM     35  H   UNL     1      -0.593  -6.017   3.695  0.00  0.00    -0.082 HD
BRANCH  34  37
ATOM     36  C   UNL     1      -3.440  -4.429   2.885  0.00  0.00    -0.017 C 
ATOM     37  C   UNL     1      -2.133  -4.657   3.646  0.00  0.00    -0.082 C 
ENDBRANCH  34  37
BRANCH  34  38
ATOM     38  C   UNL     1      -2.315  -7.034   3.221  0.00  0.00    -0.082 C 
ATOM     39  C   UNL     1      -2.565  -7.350   4.697  0.00  0.00    -0.017 C 
ENDBRANCH  34  38
ENDBRANCH  33  34
ENDBRANCH  32  33
ENDBRANCH  31  32
ENDBRANCH   1  31
TORSDOF 12
