REMARK  Name = ZINC44230371
REMARK  5 active torsions:
REMARK  status: ('A' for Active; 'I' for Inactive)
REMARK    1  A    between atoms: C_1  and  C_2
REMARK    2  A    between atoms: C_13  and  O_15
REMARK    3  A    between atoms: O_15  and  C_16
REMARK    4  A    between atoms: C_16  and  C_18
REMARK    5  A    between atoms: C_32  and  C_33
REMARK                            x       y       z     vdW  Elec       q    Type
REMARK                         _______ _______ _______ _____ _____    ______ ____
ROOT
ATOM      1  C   UNL     1      -0.019   1.525   0.010  0.00  0.00    +0.015 C 
ATOM      2  C   UNL     1       0.002  -0.004   0.002  0.00  0.00    +0.008 C 
ATOM      3  C   UNL     1      -1.402  -0.558   0.002  0.00  0.00    +0.011 C 
ATOM      4  C   UNL     1      -1.806  -0.994   1.425  0.00  0.00    +0.005 C 
ATOM      5  C   UNL     1      -1.217  -0.006   2.417  0.00  0.00    +0.007 C 
ATOM      6  C   UNL     1       0.298  -0.231   2.512  0.00  0.00    -0.003 C 
ATOM      7  C   UNL     1       0.840  -0.578   1.160  0.00  0.00    +0.002 C 
ATOM      8  C   UNL     1       2.250  -0.075   0.818  0.00  0.00    +0.008 C 
ATOM      9  C   UNL     1       2.314  -0.236  -0.726  0.00  0.00    +0.045 C 
ATOM     10  C   UNL     1       0.856  -0.437  -1.209  0.00  0.00    +0.183 C 
ATOM     11  C   UNL     1       0.956   0.931   3.236  0.00  0.00    +0.008 C 
ATOM     12  C   UNL     1       0.415   0.949   4.681  0.00  0.00    +0.032 C 
ATOM     13  C   UNL     1      -1.101   1.035   4.605  0.00  0.00    -0.055 C 
ATOM     14  C   UNL     1      -1.708   2.027   5.247  0.00  0.00    +0.046 C 
ATOM     15  C   UNL     1      -3.162   2.187   5.138  0.00  0.00    +0.156 C 
ATOM     16  O   UNL     1      -3.816   2.788   5.962  0.00  0.00    -0.293 OA
ATOM     17  C   UNL     1      -3.794   1.587   3.894  0.00  0.00    +0.080 C 
ATOM     18  C   UNL     1      -3.334   0.138   3.788  0.00  0.00    +0.024 C 
ATOM     19  C   UNL     1      -1.831  -0.015   3.807  0.00  0.00    +0.046 C 
ENDROOT
BRANCH  19  20
ATOM     20  C   UNL     1      -1.561  -1.369   4.468  0.00  0.00    +0.261 C 
ATOM     21  O   UNL     1      -2.236  -2.424   3.748  0.00  0.00    -0.348 OA
ATOM     22  C   UNL     1      -2.357  -3.497   4.705  0.00  0.00    +0.191 C 
ATOM     23  C   UNL     1      -2.288  -2.811   6.084  0.00  0.00    +0.191 C 
ATOM     24  O   UNL     1      -2.134  -1.406   5.792  0.00  0.00    -0.348 OA
ENDBRANCH  19  20
BRANCH  10  25
ATOM     25  O   UNL     1       0.577   0.406  -2.324  0.00  0.00    -0.457 OA
BRANCH  25  26
ATOM     26  C   UNL     1       0.706  -0.138  -3.549  0.00  0.00    +0.339 C 
ATOM     27  O   UNL     1       1.048  -1.298  -3.666  0.00  0.00    -0.245 OA
BRANCH  26  28
ATOM     28  C   UNL     1       0.433   0.676  -4.752  0.00  0.00    +0.059 A 
ATOM     29  C   UNL     1       0.046   2.011  -4.621  0.00  0.00    +0.015 A 
ATOM     30  C   UNL     1      -0.207   2.766  -5.748  0.00  0.00    +0.001 A 
ATOM     31  C   UNL     1      -0.079   2.202  -7.005  0.00  0.00    +0.000 A 
ATOM     32  C   UNL     1       0.303   0.880  -7.141  0.00  0.00    +0.001 A 
ATOM     33  C   UNL     1       0.566   0.116  -6.023  0.00  0.00    +0.015 A 
ENDBRANCH  26  28
ENDBRANCH  25  26
ENDBRANCH  10  25
TORSDOF 4
