REMARK  Name = ZINC63479122
REMARK  11 active torsions:
REMARK  status: ('A' for Active; 'I' for Inactive)
REMARK    1  A    between atoms: C_1  and  C_2
REMARK    2  A    between atoms: C_2  and  C_3
REMARK    3  A    between atoms: C_3  and  C_4
REMARK    4  A    between atoms: C_4  and  N_5
REMARK    5  A    between atoms: N_5  and  C_6
REMARK    6  A    between atoms: N_5  and  C_8
REMARK    7  A    between atoms: C_6  and  C_7
REMARK    8  A    between atoms: C_8  and  C_9
REMARK    9  A    between atoms: C_9  and  C_10
REMARK   10  A    between atoms: C_10  and  N_11
REMARK   11  A    between atoms: C_12  and  C_14
REMARK                            x       y       z     vdW  Elec       q    Type
REMARK                         _______ _______ _______ _____ _____    ______ ____
ROOT
ATOM      1  N   UNL     1       2.802  -6.365   5.050  0.00  0.00    -0.314 N 
ATOM      2  C   UNL     1       2.940  -7.686   5.283  0.00  0.00    +0.230 C 
ATOM      3  O   UNL     1       2.544  -8.490   4.466  0.00  0.00    -0.274 OA
ATOM      4  H   UNL     1       3.118  -5.722   5.703  0.00  0.00    +0.149 HD
ENDROOT
BRANCH   2   5
ATOM      5  C   UNL     1       3.586  -8.162   6.558  0.00  0.00    +0.160 C 
ATOM      6  C   UNL     1       4.328  -9.461   6.337  0.00  0.00    +0.011 C 
ATOM      7  C   UNL     1       3.876 -10.511   7.050  0.00  0.00    +0.049 C 
ATOM      8  C   UNL     1       2.732 -10.278   7.945  0.00  0.00    +0.030 C 
ATOM      9  C   UNL     1       2.220 -11.338   8.711  0.00  0.00    +0.010 A 
ATOM     10  C   UNL     1       1.129 -11.146   9.573  0.00  0.00    +0.011 A 
ATOM     11  C   UNL     1       0.650 -12.191  10.306  0.00  0.00    +0.001 A 
ATOM     12  C   UNL     1       1.231 -13.451  10.210  0.00  0.00    +0.002 A 
ATOM     13  C   UNL     1       2.292 -13.673   9.383  0.00  0.00    +0.024 A 
ATOM     14  C   UNL     1       2.814 -12.622   8.611  0.00  0.00    +0.042 A 
ATOM     15  N   UNL     1       3.855 -12.840   7.797  0.00  0.00    -0.281 N 
ATOM     16  C   UNL     1       4.405 -11.912   7.041  0.00  0.00    +0.249 C 
ATOM     17  O   UNL     1       5.354 -12.197   6.326  0.00  0.00    -0.270 OA
ATOM     18  S   UNL     1       2.320  -8.666   7.788  0.00  0.00    -0.107 S 
ATOM     19  H   UNL     1       4.227 -13.735   7.763  0.00  0.00    +0.155 HD
ENDBRANCH   2   5
BRANCH   1  20
ATOM     20  C   UNL     1       2.174  -5.902   3.810  0.00  0.00    +0.102 C 
BRANCH  20  21
ATOM     21  C   UNL     1       2.142  -4.372   3.795  0.00  0.00    +0.000 C 
BRANCH  21  22
ATOM     22  C   UNL     1       1.486  -3.889   2.500  0.00  0.00    -0.077 C 
BRANCH  22  23
ATOM     23  N   UNL     1       1.455  -2.420   2.486  0.00  0.00    +0.380 N 
ATOM     24  H   UNL     1       0.996  -2.085   3.320  0.00  0.00    -0.082 HD
BRANCH  23  25
ATOM     25  C   UNL     1       2.829  -1.902   2.443  0.00  0.00    -0.082 C 
ATOM     26  C   UNL     1       2.804  -0.377   2.573  0.00  0.00    -0.017 C 
ENDBRANCH  23  25
BRANCH  23  27
ATOM     27  C   UNL     1       0.720  -1.957   1.302  0.00  0.00    -0.079 C 
BRANCH  27  28
ATOM     28  C   UNL     1      -0.747  -2.374   1.417  0.00  0.00    -0.019 C 
BRANCH  28  30
ATOM     29  C   UNL     1      -3.008  -2.194   0.368  0.00  0.00    +0.004 C 
ATOM     30  C   UNL     1      -1.540  -1.776   0.253  0.00  0.00    -0.005 C 
ENDBRANCH  28  30
ENDBRANCH  27  28
ENDBRANCH  23  27
ENDBRANCH  22  23
ENDBRANCH  21  22
ENDBRANCH  20  21
ENDBRANCH   1  20
TORSDOF 9
