REMARK  Name = ZINC53368198
REMARK  9 active torsions:
REMARK  status: ('A' for Active; 'I' for Inactive)
REMARK    1  A    between atoms: C_1  and  C_2
REMARK    2  A    between atoms: C_2  and  C_3
REMARK    3  A    between atoms: C_2  and  C_4
REMARK    4  A    between atoms: C_7  and  C_10
REMARK    5  A    between atoms: C_10  and  C_11
REMARK    6  A    between atoms: C_11  and  N_12
REMARK    7  A    between atoms: C_13  and  C_15
REMARK    8  A    between atoms: C_17  and  S_20
REMARK    9  A    between atoms: S_20  and  N_23
REMARK                            x       y       z     vdW  Elec       q    Type
REMARK                         _______ _______ _______ _____ _____    ______ ____
ROOT
ATOM      1  N   UNL     1       3.323  -1.409   7.017  0.00  0.00    -0.311 N 
ATOM      2  C   UNL     1       3.301  -0.690   8.156  0.00  0.00    +0.245 C 
ATOM      3  O   UNL     1       2.693   0.363   8.200  0.00  0.00    -0.270 OA
ATOM      4  H   UNL     1       3.808  -2.248   6.982  0.00  0.00    +0.149 HD
ENDROOT
BRANCH   2   5
ATOM      5  C   UNL     1       4.014  -1.178   9.348  0.00  0.00    +0.046 A 
ATOM      6  C   UNL     1       4.008  -0.439  10.587  0.00  0.00    +0.049 A 
ATOM      7  C   UNL     1       4.698  -0.994  11.604  0.00  0.00    +0.143 A 
ATOM      8  S   UNL     1       5.339  -2.491  10.886  0.00  0.00    -0.076 S 
ATOM      9  C   UNL     1       4.711  -2.365   9.335  0.00  0.00    +0.060 A 
BRANCH   7  10
ATOM     10  S   UNL     1       4.912  -0.386  13.244  0.00  0.00    +0.062 S 
ATOM     11  O   UNL     1       6.108  -0.972  13.741  0.00  0.00    -0.153 OA
ATOM     12  O   UNL     1       4.721   1.021  13.183  0.00  0.00    -0.153 OA
BRANCH  10  13
ATOM     13  N   UNL     1       3.672  -0.994  14.157  0.00  0.00    -0.203 NA
ATOM     14  H   UNL     1       3.007  -1.570  13.750  0.00  0.00    +0.144 HD
ATOM     15  H   UNL     1       3.610  -0.773  15.100  0.00  0.00    +0.144 HD
ENDBRANCH  10  13
ENDBRANCH   7  10
ENDBRANCH   2   5
BRANCH   1  16
ATOM     16  C   UNL     1       2.614  -0.923   5.830  0.00  0.00    +0.109 C 
BRANCH  16  17
ATOM     17  C   UNL     1       2.797  -1.919   4.683  0.00  0.00    +0.054 C 
BRANCH  17  21
ATOM     18  C   UNL     1       0.731  -0.503   1.223  0.00  0.00    -0.045 A 
ATOM     19  C   UNL     1       2.050  -0.148   1.434  0.00  0.00    +0.004 A 
ATOM     20  C   UNL     1       2.719  -0.606   2.554  0.00  0.00    +0.004 A 
ATOM     21  C   UNL     1       2.068  -1.419   3.463  0.00  0.00    -0.046 A 
ATOM     22  C   UNL     1       0.749  -1.773   3.252  0.00  0.00    +0.004 A 
ATOM     23  C   UNL     1       0.079  -1.312   2.135  0.00  0.00    +0.004 A 
BRANCH  18  25
ATOM     24  C   UNL     1      -0.019   1.526   0.010  0.00  0.00    +0.012 C 
ATOM     25  C   UNL     1       0.002  -0.004   0.002  0.00  0.00    +0.013 C 
ATOM     26  C   UNL     1       0.718  -0.497  -1.257  0.00  0.00    +0.012 C 
ENDBRANCH  18  25
ENDBRANCH  17  21
ENDBRANCH  16  17
ENDBRANCH   1  16
TORSDOF 7
