REMARK  Name = ZINC16696073
REMARK  5 active torsions:
REMARK  status: ('A' for Active; 'I' for Inactive)
REMARK    1  A    between atoms: C_1  and  C_2
REMARK    2  A    between atoms: C_3  and  C_11
REMARK    3  A    between atoms: N_15  and  S_16
REMARK    4  A    between atoms: S_16  and  C_19
REMARK    5  A    between atoms: N_25  and  C_26
REMARK                            x       y       z     vdW  Elec       q    Type
REMARK                         _______ _______ _______ _____ _____    ______ ____
ROOT
ATOM      1  C   UNL     1      -2.484   0.363  -0.181  0.00  0.00    +0.067 A 
ATOM      2  C   UNL     1      -3.263   0.099  -1.248  0.00  0.00    +0.075 A 
ATOM      3  S   UNL     1      -4.884  -0.028  -0.509  0.00  0.00    -0.056 S 
ATOM      4  C   UNL     1      -4.411   0.283   1.185  0.00  0.00    +0.199 A 
ATOM      5  N   UNL     1      -5.160   0.330   2.258  0.00  0.00    -0.103 NA
ATOM      6  N   UNL     1      -3.047   0.456   1.065  0.00  0.00    -0.287 N 
ENDROOT
BRANCH   1   9
ATOM      7  C   UNL     1      -1.078   2.894  -1.323  0.00  0.00    +0.087 C 
ATOM      8  C   UNL     1      -0.394   1.638  -0.847  0.00  0.00    +0.112 A 
ATOM      9  C   UNL     1      -1.026   0.547  -0.353  0.00  0.00    +0.048 A 
ATOM     10  C   UNL     1       0.037  -0.420  -0.023  0.00  0.00    +0.030 A 
ATOM     11  C   UNL     1       0.048  -1.707   0.509  0.00  0.00    +0.012 A 
ATOM     12  C   UNL     1       1.249  -2.355   0.699  0.00  0.00    +0.001 A 
ATOM     13  C   UNL     1       2.441  -1.730   0.362  0.00  0.00    +0.004 A 
ATOM     14  C   UNL     1       2.442  -0.457  -0.165  0.00  0.00    +0.047 A 
ATOM     15  C   UNL     1       1.241   0.213  -0.364  0.00  0.00    +0.136 A 
ATOM     16  O   UNL     1       0.935   1.432  -0.855  0.00  0.00    -0.459 OA
ENDBRANCH   1   9
BRANCH   6  17
ATOM     17  C   UNL     1      -2.257   0.724   2.190  0.00  0.00    +0.049 A 
ATOM     18  C   UNL     1      -2.088   2.032   2.625  0.00  0.00    +0.026 A 
ATOM     19  C   UNL     1      -1.309   2.293   3.735  0.00  0.00    +0.002 A 
ATOM     20  C   UNL     1      -0.697   1.255   4.413  0.00  0.00    +0.000 A 
ATOM     21  C   UNL     1      -0.863  -0.049   3.981  0.00  0.00    +0.002 A 
ATOM     22  C   UNL     1      -1.646  -0.317   2.876  0.00  0.00    +0.026 A 
ENDBRANCH   6  17
BRANCH   5  23
ATOM     23  S   UNL     1      -4.477   0.658   3.731  0.00  0.00    +0.101 S 
ATOM     24  O   UNL     1      -3.582  -0.409   4.010  0.00  0.00    -0.146 OA
ATOM     25  O   UNL     1      -4.057   2.015   3.690  0.00  0.00    -0.146 OA
BRANCH  23  26
ATOM     26  C   UNL     1      -5.762   0.565   4.933  0.00  0.00    +0.113 A 
ATOM     27  C   UNL     1      -6.498   1.692   5.247  0.00  0.00    +0.029 A 
ATOM     28  C   UNL     1      -7.506   1.619   6.190  0.00  0.00    +0.002 A 
ATOM     29  C   UNL     1      -7.778   0.418   6.819  0.00  0.00    +0.000 A 
ATOM     30  C   UNL     1      -7.043  -0.709   6.505  0.00  0.00    +0.002 A 
ATOM     31  C   UNL     1      -6.038  -0.637   5.558  0.00  0.00    +0.029 A 
ENDBRANCH  23  26
ENDBRANCH   5  23
TORSDOF 4
