REMARK  Name = ZINC15015734
REMARK  6 active torsions:
REMARK  status: ('A' for Active; 'I' for Inactive)
REMARK    1  A    between atoms: C_1  and  C_2
REMARK    2  A    between atoms: N_16  and  N_17
REMARK    3  A    between atoms: C_18  and  C_19
REMARK    4  A    between atoms: C_28  and  C_29
REMARK    5  A    between atoms: C_28  and  C_30
REMARK    6  A    between atoms: C_32  and  C_34
REMARK                            x       y       z     vdW  Elec       q    Type
REMARK                         _______ _______ _______ _____ _____    ______ ____
ROOT
ATOM      1  C   UNL     1     -12.513  11.783  -0.029  0.00  0.00    +0.046 C 
ATOM      2  C   UNL     1     -11.105  12.089  -0.468  0.00  0.00    -0.026 A 
ATOM      3  C   UNL     1     -10.757  13.377  -0.819  0.00  0.00    +0.005 A 
ATOM      4  C   UNL     1      -9.466  13.672  -1.225  0.00  0.00    +0.001 A 
ATOM      5  C   UNL     1      -8.512  12.679  -1.283  0.00  0.00    +0.012 A 
ATOM      6  C   UNL     1      -8.849  11.374  -0.932  0.00  0.00    +0.029 A 
ATOM      7  C   UNL     1     -10.157  11.073  -0.521  0.00  0.00    +0.053 A 
ATOM      8  N   UNL     1     -10.225   9.720  -0.232  0.00  0.00    -0.337 N 
ATOM      9  H   UNL     1     -11.021   9.258   0.074  0.00  0.00    +0.167 HD
ATOM     10  C   UNL     1      -9.005   9.124  -0.441  0.00  0.00    +0.163 A 
ATOM     11  C   UNL     1      -8.096  10.109  -0.881  0.00  0.00    +0.138 A 
ATOM     12  N   UNL     1      -6.845   9.766  -1.149  0.00  0.00    -0.142 NA
ATOM     13  N   UNL     1      -6.464   8.543  -1.002  0.00  0.00    -0.111 NA
ATOM     14  C   UNL     1      -7.303   7.597  -0.593  0.00  0.00    +0.256 A 
ATOM     15  N   UNL     1      -8.569   7.876  -0.309  0.00  0.00    -0.192 NA
ATOM     16  N   UNL     1      -6.847   6.297  -0.456  0.00  0.00    -0.204 N 
ATOM     17  H   UNL     1      -7.450   5.600  -0.154  0.00  0.00    +0.177 HD
ENDROOT
BRANCH  16  18
ATOM     18  N   UNL     1      -5.513   5.988  -0.752  0.00  0.00    -0.192 NA
ATOM     19  C   UNL     1      -5.091   4.786  -0.626  0.00  0.00    +0.107 C 
BRANCH  19  20
ATOM     20  C   UNL     1      -3.656   4.454  -0.945  0.00  0.00    +0.035 C 
ATOM     21  C   UNL     1      -2.974   3.900   0.309  0.00  0.00    +0.017 C 
ATOM     22  C   UNL     1      -1.502   3.622  -0.004  0.00  0.00    +0.021 C 
ATOM     23  C   UNL     1      -1.415   2.708  -1.190  0.00  0.00    -0.070 C 
ATOM     24  C   UNL     1      -0.751   1.590  -1.202  0.00  0.00    -0.027 C 
ATOM     25  C   UNL     1      -0.013   1.086   0.008  0.00  0.00    +0.028 C 
ATOM     26  C   UNL     1      -0.742   1.586   1.261  0.00  0.00    +0.011 C 
ATOM     27  C   UNL     1      -0.771   3.113   1.221  0.00  0.00    -0.028 C 
ATOM     28  C   UNL     1       0.665   3.640   1.201  0.00  0.00    +0.011 C 
ATOM     29  C   UNL     1      -1.476   3.632   2.476  0.00  0.00    +0.011 C 
ATOM     30  C   UNL     1      -2.157   3.127  -2.449  0.00  0.00    +0.034 C 
ATOM     31  C   UNL     1      -3.613   3.416  -2.066  0.00  0.00    -0.002 C 
ATOM     32  C   UNL     1      -4.279   2.124  -1.587  0.00  0.00    +0.008 C 
ENDBRANCH  19  20
ENDBRANCH  16  18
TORSDOF 2
