REMARK  Name = ZINC03032996
REMARK  8 active torsions:
REMARK  status: ('A' for Active; 'I' for Inactive)
REMARK    1  A    between atoms: C_1  and  C_2
REMARK    2  A    between atoms: C_2  and  C_3
REMARK    3  A    between atoms: C_8  and  N_9
REMARK    4  A    between atoms: C_10  and  C_12
REMARK    5  A    between atoms: C_12  and  C_14
REMARK    6  A    between atoms: C_12  and  S_16
REMARK    7  A    between atoms: C_14  and  C_15
REMARK    8  A    between atoms: S_16  and  C_17
REMARK                            x       y       z     vdW  Elec       q    Type
REMARK                         _______ _______ _______ _____ _____    ______ ____
ROOT
ATOM      1  C   UNL     1       3.015   9.632   0.003  0.00  0.00    +0.139 C 
ENDROOT
BRANCH   1   3
ATOM      2  N   UNL     1       4.226  11.702  -0.602  0.00  0.00    -0.284 N 
ATOM      3  C   UNL     1       4.283  10.393  -0.285  0.00  0.00    +0.231 C 
ATOM      4  O   UNL     1       5.355   9.829  -0.231  0.00  0.00    -0.274 OA
ATOM      5  H   UNL     1       3.377  12.170  -0.581  0.00  0.00    +0.155 HD
BRANCH   2  11
ATOM      6  C   UNL     1       5.322  13.484  -1.808  0.00  0.00    -0.026 A 
ATOM      7  C   UNL     1       6.476  14.158  -2.161  0.00  0.00    +0.005 A 
ATOM      8  C   UNL     1       7.699  13.740  -1.671  0.00  0.00    +0.000 A 
ATOM      9  C   UNL     1       7.772  12.647  -0.826  0.00  0.00    +0.002 A 
ATOM     10  C   UNL     1       6.623  11.973  -0.466  0.00  0.00    +0.023 A 
ATOM     11  C   UNL     1       5.393  12.387  -0.961  0.00  0.00    +0.037 A 
BRANCH   6  13
ATOM     12  C   UNL     1       3.323  14.869  -1.325  0.00  0.00    +0.009 C 
ATOM     13  C   UNL     1       3.989  13.941  -2.342  0.00  0.00    +0.033 C 
ENDBRANCH   6  13
ENDBRANCH   2  11
ENDBRANCH   1   3
BRANCH   1  14
ATOM     14  C   UNL     1       2.561   9.920   1.435  0.00  0.00    +0.020 C 
ATOM     15  C   UNL     1       1.209   9.248   1.686  0.00  0.00    +0.005 C 
ENDBRANCH   1  14
BRANCH   1  16
ATOM     16  S   UNL     1       3.320   7.858  -0.188  0.00  0.00    -0.092 S 
BRANCH  16  17
ATOM     17  C   UNL     1       3.625   7.785  -1.922  0.00  0.00    +0.115 A 
ATOM     18  C   UNL     1       4.015   6.597  -2.528  0.00  0.00    +0.071 A 
ATOM     19  C   UNL     1       4.257   6.537  -3.905  0.00  0.00    +0.090 A 
ATOM     20  C   UNL     1       4.665   5.221  -4.434  0.00  0.00    +0.015 A 
ATOM     21  C   UNL     1       4.966   4.890  -5.774  0.00  0.00    +0.011 A 
ATOM     22  C   UNL     1       5.338   3.615  -6.112  0.00  0.00    +0.001 A 
ATOM     23  C   UNL     1       5.418   2.611  -5.157  0.00  0.00    +0.001 A 
ATOM     24  C   UNL     1       5.130   2.903  -3.839  0.00  0.00    +0.016 A 
ATOM     25  C   UNL     1       4.760   4.186  -3.489  0.00  0.00    +0.022 A 
ATOM     26  S   UNL     1       4.319   4.951  -1.948  0.00  0.00    -0.084 S 
ATOM     27  N   UNL     1       4.089   7.693  -4.588  0.00  0.00    -0.234 NA
ATOM     28  C   UNL     1       3.721   8.795  -3.985  0.00  0.00    +0.223 A 
ATOM     29  N   UNL     1       3.488   8.868  -2.687  0.00  0.00    -0.228 NA
ENDBRANCH  16  17
ENDBRANCH   1  16
TORSDOF 6
