REMARK  Name = ZINC50045173
REMARK  6 active torsions:
REMARK  status: ('A' for Active; 'I' for Inactive)
REMARK    1  A    between atoms: C_1  and  C_2
REMARK    2  A    between atoms: C_6  and  C_22
REMARK    3  A    between atoms: C_8  and  N_11
REMARK    4  A    between atoms: C_12  and  C_14
REMARK    5  A    between atoms: C_22  and  C_23
REMARK    6  A    between atoms: C_22  and  C_24
REMARK                            x       y       z     vdW  Elec       q    Type
REMARK                         _______ _______ _______ _____ _____    ______ ____
ROOT
ATOM      1  N   UNL     1       2.763  -0.519   2.499  0.00  0.00    -0.308 N 
ATOM      2  C   UNL     1       2.509   0.086   3.676  0.00  0.00    +0.247 C 
ATOM      3  O   UNL     1       1.776   1.055   3.716  0.00  0.00    -0.270 OA
ATOM      4  H   UNL     1       3.348  -1.292   2.467  0.00  0.00    +0.149 HD
ENDROOT
BRANCH   2   5
ATOM      5  C   UNL     1       3.123  -0.427   4.918  0.00  0.00    +0.074 A 
ATOM      6  C   UNL     1       3.974  -1.538   4.885  0.00  0.00    +0.032 A 
ATOM      7  C   UNL     1       4.524  -1.980   6.077  0.00  0.00    +0.037 A 
ATOM      8  C   UNL     1       4.217  -1.315   7.252  0.00  0.00    +0.127 A 
ATOM      9  N   UNL     1       3.411  -0.271   7.254  0.00  0.00    -0.242 NA
ATOM     10  C   UNL     1       2.868   0.191   6.145  0.00  0.00    +0.141 A 
ATOM     11 CL   UNL     1       1.821   1.574   6.211  0.00  0.00    -0.061 Cl
ATOM     12 BR   UNL     1       5.680  -3.475   6.099  0.00  0.00    -0.049 Br
ENDBRANCH   2   5
BRANCH   1  18
ATOM     13  C   UNL     1       0.055   1.507  -0.102  0.00  0.00    +0.007 C 
ATOM     14  C   UNL     1       0.095  -0.022  -0.147  0.00  0.00    -0.012 C 
ATOM     15  C   UNL     1       0.924  -0.474  -1.351  0.00  0.00    +0.004 C 
ATOM     16  C   UNL     1       2.348   0.070  -1.222  0.00  0.00    +0.006 C 
ATOM     17  C   UNL     1       2.984  -0.462   0.064  0.00  0.00    +0.012 C 
ATOM     18  C   UNL     1       2.155  -0.009   1.267  0.00  0.00    +0.077 C 
ATOM     19  C   UNL     1       0.730  -0.554   1.139  0.00  0.00    +0.026 C 
BRANCH  17  20
ATOM     20  C   UNL     1       4.408   0.082   0.192  0.00  0.00    -0.012 C 
ATOM     21  C   UNL     1       5.276  -0.490  -0.931  0.00  0.00    +0.007 C 
ATOM     22  C   UNL     1       4.382   1.608   0.089  0.00  0.00    +0.007 C 
ENDBRANCH  17  20
ENDBRANCH   1  18
TORSDOF 3
