REMARK  Name = ZINC18200436
REMARK  7 active torsions:
REMARK  status: ('A' for Active; 'I' for Inactive)
REMARK    1  A    between atoms: C_1  and  O_2
REMARK    2  A    between atoms: O_2  and  C_3
REMARK    3  A    between atoms: C_6  and  C_11
REMARK    4  A    between atoms: C_8  and  O_9
REMARK    5  A    between atoms: O_9  and  C_10
REMARK    6  A    between atoms: C_16  and  C_29
REMARK    7  A    between atoms: C_32  and  C_35
REMARK                            x       y       z     vdW  Elec       q    Type
REMARK                         _______ _______ _______ _____ _____    ______ ____
ROOT
ATOM      1  C   UNL     1      -2.197   8.012  -0.445  0.00  0.00    +0.032 C 
ATOM      2  C   UNL     1      -0.936   7.216  -0.785  0.00  0.00    +0.059 C 
ATOM      3  C   UNL     1      -1.115   5.779  -0.362  0.00  0.00    +0.017 C 
ATOM      4  C   UNL     1      -2.335   5.200  -0.363  0.00  0.00    +0.024 C 
ATOM      5  C   UNL     1      -2.511   3.763   0.055  0.00  0.00    +0.092 C 
ATOM      6  C   UNL     1      -1.205   3.025   0.032  0.00  0.00    +0.067 A 
ATOM      7  C   UNL     1      -0.021   3.698   0.020  0.00  0.00    +0.113 A 
ATOM      8  N   UNL     1       1.159   2.994   0.005  0.00  0.00    -0.295 N 
ATOM      9  H   UNL     1       2.031   3.485  -0.001  0.00  0.00    +0.172 HD
ATOM     10  C   UNL     1       1.148   1.649  -0.000  0.00  0.00    +0.328 A 
ATOM     11  O   UNL     1       2.201   1.041  -0.012  0.00  0.00    -0.247 OA
ATOM     12  N   UNL     1      -0.011   0.966   0.007  0.00  0.00    -0.275 N 
ATOM     13  H   UNL     1       0.003  -0.034   0.006  0.00  0.00    +0.173 HD
ATOM     14  C   UNL     1      -1.190   1.618   0.017  0.00  0.00    +0.260 A 
ATOM     15  O   UNL     1      -2.237   0.993   0.017  0.00  0.00    -0.267 OA
ATOM     16  N   UNL     1      -0.008   5.070   0.021  0.00  0.00    -0.303 N 
ATOM     17  C   UNL     1      -3.478   5.921  -0.751  0.00  0.00    +0.162 C 
ATOM     18  O   UNL     1      -4.559   5.367  -0.757  0.00  0.00    -0.292 OA
ATOM     19  C   UNL     1      -3.388   7.366  -1.161  0.00  0.00    +0.088 C 
ATOM     20  H   UNL     1       0.793   5.543   0.295  0.00  0.00    +0.153 HD
ENDROOT
BRANCH   1  24
ATOM     21  C   UNL     1      -1.745  12.052  -1.775  0.00  0.00    +0.161 A 
ATOM     22  C   UNL     1      -1.681  11.008  -2.685  0.00  0.00    +0.049 A 
ATOM     23  C   UNL     1      -1.822   9.703  -2.251  0.00  0.00    +0.008 A 
ATOM     24  C   UNL     1      -2.038   9.437  -0.911  0.00  0.00    -0.040 A 
ATOM     25  C   UNL     1      -2.103  10.473   0.001  0.00  0.00    +0.053 A 
ATOM     26  C   UNL     1      -1.957  11.783  -0.426  0.00  0.00    +0.162 A 
BRANCH  21  28
ATOM     27  C   UNL     1      -1.385  13.536  -3.598  0.00  0.00    +0.277 C 
ATOM     28  O   UNL     1      -1.600  13.335  -2.200  0.00  0.00    -0.491 OA
ENDBRANCH  21  28
BRANCH  26  29
ATOM     29  O   UNL     1      -2.021  12.803   0.470  0.00  0.00    -0.491 OA
ATOM     30  C   UNL     1      -2.241  12.453   1.838  0.00  0.00    +0.277 C 
ENDBRANCH  26  29
ENDBRANCH   1  24
BRANCH   5  31
ATOM     31  C   UNL     1      -3.076   3.722   1.452  0.00  0.00    -0.035 A 
ATOM     32  C   UNL     1      -2.358   4.260   2.504  0.00  0.00    +0.005 A 
ATOM     33  C   UNL     1      -2.878   4.226   3.784  0.00  0.00    +0.012 A 
ATOM     34  C   UNL     1      -4.111   3.646   4.014  0.00  0.00    +0.055 A 
ATOM     35  C   UNL     1      -4.827   3.104   2.963  0.00  0.00    +0.012 A 
ATOM     36  C   UNL     1      -4.309   3.142   1.682  0.00  0.00    +0.005 A 
BRANCH  34  37
ATOM     37  C   UNL     1      -4.675   3.605   5.411  0.00  0.00    +0.417 C 
ATOM     38  F   UNL     1      -4.264   2.427   6.045  0.00  0.00    -0.166 F 
ATOM     39  F   UNL     1      -4.213   4.710   6.134  0.00  0.00    -0.166 F 
ATOM     40  F   UNL     1      -6.073   3.638   5.351  0.00  0.00    -0.166 F 
ENDBRANCH  34  37
ENDBRANCH   5  31
TORSDOF 5
