REMARK  Name = ZINC05370811
REMARK  10 active torsions:
REMARK  status: ('A' for Active; 'I' for Inactive)
REMARK    1  A    between atoms: C_1  and  C_2
REMARK    2  A    between atoms: C_2  and  C_24
REMARK    3  A    between atoms: C_3  and  C_4
REMARK    4  A    between atoms: C_4  and  O_5
REMARK    5  A    between atoms: O_5  and  C_6
REMARK    6  A    between atoms: C_9  and  C_13
REMARK    7  A    between atoms: C_10  and  O_12
REMARK    8  A    between atoms: C_13  and  C_15
REMARK    9  A    between atoms: C_16  and  C_17
REMARK   10  A    between atoms: C_20  and  O_23
REMARK                            x       y       z     vdW  Elec       q    Type
REMARK                         _______ _______ _______ _____ _____    ______ ____
ROOT
ATOM      1  C   UNL     1       1.756   1.672   2.322  0.00  0.00    +0.124 A 
ATOM      2  C   UNL     1       2.694   1.021   1.526  0.00  0.00    +0.046 A 
ATOM      3  C   UNL     1       3.866   1.651   1.180  0.00  0.00    +0.019 A 
ATOM      4  C   UNL     1       4.123   2.948   1.636  0.00  0.00    +0.063 A 
ATOM      5  C   UNL     1       3.178   3.602   2.443  0.00  0.00    +0.131 A 
ATOM      6  C   UNL     1       2.000   2.958   2.780  0.00  0.00    +0.091 A 
ENDROOT
BRANCH   5   7
ATOM      7  O   UNL     1       3.419   4.860   2.890  0.00  0.00    -0.506 OA
ATOM      8  H   UNL     1       3.876   4.893   3.742  0.00  0.00    +0.292 HD
ENDBRANCH   5   7
BRANCH   4   9
ATOM      9  C   UNL     1       5.380   3.626   1.272  0.00  0.00    +0.190 C 
ATOM     10  O   UNL     1       5.601   4.756   1.672  0.00  0.00    -0.287 OA
BRANCH   9  11
ATOM     11  C   UNL     1       6.362   2.943   0.432  0.00  0.00    +0.052 C 
ATOM     12  C   UNL     1       7.452   3.608  -0.011  0.00  0.00    +0.012 C 
BRANCH  12  13
ATOM     13  C   UNL     1       7.541   5.065   0.154  0.00  0.00    -0.025 A 
ATOM     14  C   UNL     1       6.433   5.873  -0.132  0.00  0.00    +0.011 A 
ATOM     15  C   UNL     1       6.520   7.237   0.029  0.00  0.00    +0.046 A 
ATOM     16  C   UNL     1       7.708   7.814   0.463  0.00  0.00    +0.117 A 
ATOM     17  C   UNL     1       8.812   7.017   0.743  0.00  0.00    +0.046 A 
ATOM     18  C   UNL     1       8.735   5.652   0.591  0.00  0.00    +0.011 A 
BRANCH  16  19
ATOM     19  O   UNL     1       7.790   9.161   0.614  0.00  0.00    -0.507 OA
ATOM     20  H   UNL     1       8.082   9.629  -0.180  0.00  0.00    +0.292 HD
ENDBRANCH  16  19
ENDBRANCH  12  13
ENDBRANCH   9  11
ENDBRANCH   4   9
BRANCH   1  21
ATOM     21  O   UNL     1       0.600   1.044   2.655  0.00  0.00    -0.488 OA
BRANCH  21  22
ATOM     22  C   UNL     1       0.411  -0.279   2.149  0.00  0.00    +0.256 C 
BRANCH  22  25
ATOM     23  C   UNL     1      -1.240  -1.721   0.375  0.00  0.00    +0.038 C 
ATOM     24  C   UNL     1      -1.708  -1.435   1.779  0.00  0.00    -0.076 C 
ATOM     25  C   UNL     1      -0.918  -0.812   2.619  0.00  0.00    +0.012 C 
ATOM     26  C   UNL     1      -3.084  -1.865   2.217  0.00  0.00    +0.038 C 
ENDBRANCH  22  25
ENDBRANCH  21  22
ENDBRANCH   1  21
TORSDOF 8
