REMARK  Name = ZINC17079080
REMARK  5 active torsions:
REMARK  status: ('A' for Active; 'I' for Inactive)
REMARK    1  A    between atoms: C_1  and  C_2
REMARK    2  A    between atoms: C_5  and  N_9
REMARK    3  A    between atoms: C_6  and  C_8
REMARK    4  A    between atoms: N_12  and  N_13
REMARK    5  A    between atoms: C_14  and  C_16
REMARK                            x       y       z     vdW  Elec       q    Type
REMARK                         _______ _______ _______ _____ _____    ______ ____
ROOT
ATOM      1  N   UNL     1      -1.202  -0.721   0.030  0.00  0.00    -0.232 N 
ATOM      2  C   UNL     1      -1.184  -2.069   0.033  0.00  0.00    +0.241 C 
ATOM      3  O   UNL     1      -0.126  -2.661   0.023  0.00  0.00    -0.273 OA
ATOM      4  H   UNL     1      -2.049  -0.247   0.038  0.00  0.00    +0.173 HD
ENDROOT
BRANCH   2   5
ATOM      5  C   UNL     1      -2.479  -2.840   0.049  0.00  0.00    +0.143 C 
ATOM      6  C   UNL     1      -3.261  -2.471   1.280  0.00  0.00    +0.011 A 
ATOM      7  C   UNL     1      -3.955  -1.274   1.311  0.00  0.00    +0.008 A 
ATOM      8  C   UNL     1      -4.680  -0.919   2.432  0.00  0.00    +0.001 A 
ATOM      9  C   UNL     1      -4.715  -1.760   3.529  0.00  0.00    +0.004 A 
ATOM     10  C   UNL     1      -4.024  -2.954   3.505  0.00  0.00    +0.046 A 
ATOM     11  C   UNL     1      -3.294  -3.315   2.378  0.00  0.00    +0.133 A 
ATOM     12  O   UNL     1      -2.623  -4.492   2.373  0.00  0.00    -0.455 OA
ATOM     13  C   UNL     1      -2.266  -5.064   1.198  0.00  0.00    +0.133 A 
ATOM     14  C   UNL     1      -2.179  -4.314   0.037  0.00  0.00    +0.011 A 
ATOM     15  C   UNL     1      -1.813  -4.922  -1.151  0.00  0.00    +0.008 A 
ATOM     16  C   UNL     1      -1.534  -6.275  -1.182  0.00  0.00    +0.001 A 
ATOM     17  C   UNL     1      -1.619  -7.027  -0.025  0.00  0.00    +0.004 A 
ATOM     18  C   UNL     1      -1.984  -6.425   1.163  0.00  0.00    +0.046 A 
ENDBRANCH   2   5
BRANCH   1  22
ATOM     19  N   UNL     1      -1.192   2.002   0.019  0.00  0.00    -0.268 N 
ATOM     20  C   UNL     1      -0.016   1.343   0.013  0.00  0.00    +0.320 C 
ATOM     21  O   UNL     1       1.028   1.965   0.000  0.00  0.00    -0.251 OA
ATOM     22  N   UNL     1       0.002  -0.004   0.016  0.00  0.00    -0.218 N 
ATOM     23  H   UNL     1      -2.025   1.508  -0.056  0.00  0.00    +0.156 HD
ATOM     24  H   UNL     1       0.848  -0.478   0.007  0.00  0.00    +0.174 HD
BRANCH  19  29
ATOM     25  C   UNL     1      -1.276   7.656   0.476  0.00  0.00    +0.044 C 
ATOM     26  C   UNL     1      -1.254   6.154   0.355  0.00  0.00    -0.050 A 
ATOM     27  C   UNL     1      -0.177   5.437   0.846  0.00  0.00    +0.005 A 
ATOM     28  C   UNL     1      -0.154   4.061   0.737  0.00  0.00    +0.024 A 
ATOM     29  C   UNL     1      -1.213   3.396   0.132  0.00  0.00    +0.038 A 
ATOM     30  C   UNL     1      -2.290   4.119  -0.365  0.00  0.00    -0.029 A 
ATOM     31  C   UNL     1      -2.309   5.495  -0.247  0.00  0.00    +0.008 A 
ATOM     32  C   UNL     1      -3.438   3.402  -1.027  0.00  0.00    +0.045 C 
ENDBRANCH  19  29
ENDBRANCH   1  22
TORSDOF 3
