REMARK  Name = ZINC63052523
REMARK  7 active torsions:
REMARK  status: ('A' for Active; 'I' for Inactive)
REMARK    1  A    between atoms: C_1  and  N_2
REMARK    2  A    between atoms: N_2  and  C_3
REMARK    3  A    between atoms: N_2  and  C_10
REMARK    4  A    between atoms: C_3  and  C_4
REMARK    5  A    between atoms: C_4  and  N_5
REMARK    6  A    between atoms: C_15  and  C_16
REMARK    7  A    between atoms: C_16  and  N_17
REMARK                            x       y       z     vdW  Elec       q    Type
REMARK                         _______ _______ _______ _____ _____    ______ ____
ROOT
ATOM      1  C   UNL     1       0.290  -0.906  -1.214  0.00  0.00    +0.032 A 
ATOM      2  C   UNL     1      -0.839  -1.433  -1.829  0.00  0.00    +0.038 A 
ATOM      3  C   UNL     1      -0.731  -2.041  -3.065  0.00  0.00    +0.020 A 
ATOM      4  C   UNL     1       0.501  -2.126  -3.690  0.00  0.00    +0.015 A 
ATOM      5  C   UNL     1       1.626  -1.603  -3.081  0.00  0.00    +0.004 A 
ATOM      6  C   UNL     1       1.524  -0.988  -1.848  0.00  0.00    -0.044 A 
ATOM      7 BR   UNL     1      -2.267  -2.758  -3.902  0.00  0.00    -0.050 Br
ENDROOT
BRANCH   1   9
ATOM      8  C   UNL     1       0.032   1.164   0.124  0.00  0.00    +0.129 C 
ATOM      9  N   UNL     1       0.184  -0.291   0.035  0.00  0.00    -0.335 N 
BRANCH   9  10
ATOM     10  C   UNL     1       0.226  -1.099   1.256  0.00  0.00    +0.086 C 
BRANCH  10  11
ATOM     11  C   UNL     1      -1.202  -1.414   1.708  0.00  0.00    -0.060 C 
BRANCH  11  12
ATOM     12  N   UNL     1      -1.161  -2.321   2.862  0.00  0.00    +0.381 N 
ATOM     13  C   UNL     1      -0.610  -1.617   4.048  0.00  0.00    -0.079 C 
ATOM     14  C   UNL     1      -1.143  -2.456   5.237  0.00  0.00    -0.020 C 
ATOM     15  C   UNL     1      -2.564  -2.851   4.772  0.00  0.00    -0.020 C 
ATOM     16  C   UNL     1      -2.532  -2.731   3.237  0.00  0.00    -0.079 C 
ATOM     17  H   UNL     1      -0.602  -3.133   2.647  0.00  0.00    -0.082 HD
ENDBRANCH  11  12
ENDBRANCH  10  11
ENDBRANCH   9  10
ENDBRANCH   1   9
BRANCH   6  18
ATOM     18  C   UNL     1       2.750  -0.413  -1.188  0.00  0.00    -0.049 C 
BRANCH  18  19
ATOM     19  N   UNL     1       3.248  -1.354  -0.176  0.00  0.00    +0.381 N 
ATOM     20  H   UNL     1       4.031  -0.943   0.310  0.00  0.00    -0.090 HD
ATOM     21  H   UNL     1       2.513  -1.559   0.484  0.00  0.00    -0.090 HD
ATOM     22  H   UNL     1       3.543  -2.208  -0.626  0.00  0.00    -0.090 HD
ENDBRANCH  18  19
ENDBRANCH   6  18
TORSDOF 6
