REMARK  Name = ZINC39460637
REMARK  6 active torsions:
REMARK  status: ('A' for Active; 'I' for Inactive)
REMARK    1  A    between atoms: C_1  and  N_2
REMARK    2  A    between atoms: C_10  and  C_12
REMARK    3  A    between atoms: N_26  and  C_27
REMARK    4  A    between atoms: C_27  and  C_28
REMARK    5  A    between atoms: C_31  and  C_33
REMARK    6  A    between atoms: C_33  and  O_34
REMARK                            x       y       z     vdW  Elec       q    Type
REMARK                         _______ _______ _______ _____ _____    ______ ____
ROOT
ATOM      1  C   UNL     1       1.285  -0.618   2.008  0.00  0.00    +0.019 C 
ATOM      2  C   UNL     1       2.510  -0.898   1.170  0.00  0.00    +0.010 A 
ATOM      3  H   UNL     1       2.088  -0.069  -0.694  0.00  0.00    +0.166 HD
ATOM      4  C   UNL     1       3.590  -1.559   1.646  0.00  0.00    -0.022 A 
ATOM      5  C   UNL     1       4.551  -1.640   0.570  0.00  0.00    +0.003 A 
ATOM      6  C   UNL     1       5.828  -2.200   0.475  0.00  0.00    +0.010 A 
ATOM      7  C   UNL     1       6.469  -2.086  -0.735  0.00  0.00    +0.001 A 
ATOM      8  C   UNL     1       5.887  -1.449  -1.818  0.00  0.00    +0.002 A 
ATOM      9  C   UNL     1       4.624  -0.885  -1.753  0.00  0.00    +0.026 A 
ATOM     10  C   UNL     1       3.950  -0.986  -0.538  0.00  0.00    +0.047 A 
ATOM     11  N   UNL     1       2.719  -0.551  -0.137  0.00  0.00    -0.359 N 
ATOM     12  C   UNL     1       3.686  -2.076   3.059  0.00  0.00    +0.019 C 
ATOM     13  C   UNL     1       2.584  -1.396   3.884  0.00  0.00    -0.072 C 
ATOM     14  N   UNL     1       1.299  -1.508   3.179  0.00  0.00    +0.392 N 
ATOM     15  H   UNL     1       1.167  -2.461   2.877  0.00  0.00    -0.080 HD
ENDROOT
BRANCH   1  25
ATOM     16  C   UNL     1      -0.018   1.461   0.010  0.00  0.00    +0.131 C 
ATOM     17  N   UNL     1       0.002  -0.004   0.002  0.00  0.00    -0.314 N 
ATOM     18  C   UNL     1       0.009  -0.828  -1.132  0.00  0.00    +0.052 A 
ATOM     19  C   UNL     1      -0.002  -0.504  -2.483  0.00  0.00    +0.025 A 
ATOM     20  C   UNL     1       0.007  -1.504  -3.437  0.00  0.00    +0.002 A 
ATOM     21  C   UNL     1       0.026  -2.832  -3.050  0.00  0.00    +0.002 A 
ATOM     22  C   UNL     1       0.037  -3.163  -1.709  0.00  0.00    +0.025 A 
ATOM     23  C   UNL     1       0.028  -2.164  -0.743  0.00  0.00    +0.050 A 
ATOM     24  N   UNL     1       0.035  -2.251   0.656  0.00  0.00    -0.325 N 
ATOM     25  C   UNL     1       0.025  -0.880   1.179  0.00  0.00    +0.150 C 
ATOM     26  H   UNL     1       0.048  -3.067   1.181  0.00  0.00    +0.148 HD
ENDBRANCH   1  25
BRANCH  14  27
ATOM     27  C   UNL     1       0.207  -1.134   4.088  0.00  0.00    -0.002 C 
BRANCH  27  28
ATOM     28  C   UNL     1       0.142  -2.118   5.227  0.00  0.00    +0.089 A 
ATOM     29  C   UNL     1       0.794  -2.010   6.399  0.00  0.00    +0.043 A 
ATOM     30  C   UNL     1       0.448  -3.145   7.167  0.00  0.00    +0.047 A 
ATOM     31  C   UNL     1      -0.396  -3.879   6.419  0.00  0.00    +0.130 A 
ATOM     32  O   UNL     1      -0.582  -3.249   5.248  0.00  0.00    -0.464 OA
BRANCH  31  33
ATOM     33  C   UNL     1      -1.029  -5.184   6.829  0.00  0.00    +0.230 C 
BRANCH  33  34
ATOM     34  O   UNL     1      -2.275  -4.925   7.479  0.00  0.00    -0.387 OA
ATOM     35  H   UNL     1      -2.739  -5.722   7.771  0.00  0.00    +0.210 HD
ENDBRANCH  33  34
ENDBRANCH  31  33
ENDBRANCH  27  28
ENDBRANCH  14  27
TORSDOF 5
