REMARK  Name = ZINC15838535
REMARK  4 active torsions:
REMARK  status: ('A' for Active; 'I' for Inactive)
REMARK    1  A    between atoms: C_1  and  C_2
REMARK    2  A    between atoms: C_5  and  N_9
REMARK    3  A    between atoms: C_6  and  C_8
REMARK    4  A    between atoms: C_10  and  C_12
REMARK                            x       y       z     vdW  Elec       q    Type
REMARK                         _______ _______ _______ _____ _____    ______ ____
ROOT
ATOM      1  N   UNL     1       2.403   1.107  -0.015  0.00  0.00    -0.281 N 
ATOM      2  C   UNL     1       2.426  -0.238   0.079  0.00  0.00    +0.248 C 
ATOM      3  O   UNL     1       1.388  -0.864   0.086  0.00  0.00    -0.270 OA
ATOM      4  H   UNL     1       3.233   1.603  -0.086  0.00  0.00    +0.155 HD
ENDROOT
BRANCH   2   5
ATOM      5  C   UNL     1       3.714  -0.947   0.174  0.00  0.00    +0.041 C 
ATOM      6  C   UNL     1       3.685  -2.240   0.268  0.00  0.00    +0.024 C 
ATOM      7  C   UNL     1       4.861  -3.112   0.362  0.00  0.00    +0.019 A 
ATOM      8  C   UNL     1       4.795  -4.310   1.223  0.00  0.00    +0.031 A 
ATOM      9  C   UNL     1       5.808  -5.144   1.276  0.00  0.00    +0.042 A 
ATOM     10  C   UNL     1       7.017  -4.886   0.475  0.00  0.00    +0.023 A 
ATOM     11  C   UNL     1       7.082  -3.812  -0.281  0.00  0.00    +0.048 A 
ATOM     12  C   UNL     1       5.950  -2.866  -0.328  0.00  0.00    +0.135 A 
ATOM     13  O   UNL     1       6.058  -1.747  -1.092  0.00  0.00    -0.463 OA
ATOM     14  C   UNL     1       6.011  -0.543  -0.472  0.00  0.00    +0.196 C 
ATOM     15  C   UNL     1       4.938  -0.141   0.162  0.00  0.00    +0.051 C 
ATOM     16 CL   UNL     1       5.724  -6.550   2.292  0.00  0.00    -0.084 Cl
ENDBRANCH   2   5
BRANCH   1  21
ATOM     17  C   UNL     1      -2.555   3.865   0.002  0.00  0.00    +0.044 C 
ATOM     18  C   UNL     1      -1.238   3.132  -0.002  0.00  0.00    -0.050 A 
ATOM     19  C   UNL     1      -1.141   1.892  -0.606  0.00  0.00    +0.005 A 
ATOM     20  C   UNL     1       0.064   1.216  -0.608  0.00  0.00    +0.024 A 
ATOM     21  C   UNL     1       1.180   1.787  -0.010  0.00  0.00    +0.037 A 
ATOM     22  C   UNL     1       1.080   3.034   0.592  0.00  0.00    -0.029 A 
ATOM     23  C   UNL     1      -0.129   3.703   0.595  0.00  0.00    +0.008 A 
ATOM     24  C   UNL     1       2.288   3.657   1.242  0.00  0.00    +0.045 C 
ENDBRANCH   1  21
TORSDOF 2
