REMARK  Name = ZINC38684113
REMARK  15 active torsions:
REMARK  status: ('A' for Active; 'I' for Inactive)
REMARK    1  A    between atoms: C_1  and  C_2
REMARK    2  A    between atoms: C_2  and  C_3
REMARK    3  A    between atoms: C_2  and  C_4
REMARK    4  A    between atoms: C_4  and  O_5
REMARK    5  A    between atoms: O_5  and  C_6
REMARK    6  A    between atoms: C_9  and  C_14
REMARK    7  A    between atoms: C_11  and  O_12
REMARK    8  A    between atoms: O_12  and  C_13
REMARK    9  A    between atoms: C_19  and  O_28
REMARK   10  A    between atoms: C_23  and  N_27
REMARK   11  A    between atoms: C_24  and  C_25
REMARK   12  A    between atoms: O_28  and  C_29
REMARK   13  A    between atoms: C_29  and  C_31
REMARK   14  A    between atoms: C_34  and  O_37
REMARK   15  A    between atoms: O_37  and  C_38
REMARK                            x       y       z     vdW  Elec       q    Type
REMARK                         _______ _______ _______ _____ _____    ______ ____
ROOT
ATOM      1  C   UNL     1       2.164  -1.659   7.355  0.00  0.00    +0.098 C 
ATOM      2  C   UNL     1       3.528  -1.044   7.529  0.00  0.00    +0.008 A 
ATOM      3  C   UNL     1       3.636   0.313   7.776  0.00  0.00    +0.012 A 
ATOM      4  C   UNL     1       4.879   0.893   7.939  0.00  0.00    +0.047 A 
ATOM      5  C   UNL     1       6.024   0.114   7.854  0.00  0.00    +0.135 A 
ATOM      6  C   UNL     1       5.919  -1.244   7.605  0.00  0.00    +0.093 A 
ATOM      7  C   UNL     1       4.669  -1.827   7.442  0.00  0.00    +0.138 A 
ATOM      8  O   UNL     1       4.583  -3.158   7.200  0.00  0.00    -0.441 OA
ATOM      9  C   UNL     1       3.426  -3.806   7.420  0.00  0.00    +0.199 C 
ATOM     10  C   UNL     1       2.247  -3.152   7.503  0.00  0.00    +0.098 C 
ENDROOT
BRANCH   1  14
ATOM     11  C   UNL     1       0.670  -0.706   3.462  0.00  0.00    +0.162 A 
ATOM     12  C   UNL     1       1.848  -1.423   3.599  0.00  0.00    +0.050 A 
ATOM     13  C   UNL     1       2.329  -1.729   4.859  0.00  0.00    +0.008 A 
ATOM     14  C   UNL     1       1.636  -1.322   5.984  0.00  0.00    -0.031 A 
ATOM     15  C   UNL     1       0.460  -0.607   5.854  0.00  0.00    +0.054 A 
ATOM     16  C   UNL     1      -0.024  -0.292   4.595  0.00  0.00    +0.162 A 
BRANCH  16  17
ATOM     17  O   UNL     1      -1.178   0.416   4.466  0.00  0.00    -0.491 OA
ATOM     18  C   UNL     1      -1.837   0.808   5.672  0.00  0.00    +0.277 C 
ENDBRANCH  16  17
BRANCH  11  19
ATOM     19  O   UNL     1       0.196  -0.404   2.224  0.00  0.00    -0.488 OA
BRANCH  19  20
ATOM     20  C   UNL     1       0.961  -0.862   1.107  0.00  0.00    +0.232 C 
BRANCH  20  22
ATOM     21  C   UNL     1       0.289   1.097  -0.291  0.00  0.00    +0.010 C 
ATOM     22  C   UNL     1       0.276  -0.430  -0.191  0.00  0.00    +0.020 C 
ATOM     23  C   UNL     1       1.026  -1.025  -1.385  0.00  0.00    +0.010 C 
ENDBRANCH  20  22
ENDBRANCH  19  20
ENDBRANCH  11  19
ENDBRANCH   1  14
BRANCH   9  24
ATOM     24  N   UNL     1       3.445  -5.171   7.564  0.00  0.00    -0.328 N 
ATOM     25  H   UNL     1       4.284  -5.653   7.506  0.00  0.00    +0.145 HD
ATOM     26  H   UNL     1       2.618  -5.652   7.723  0.00  0.00    +0.145 HD
ENDBRANCH   9  24
BRANCH  10  27
ATOM     27  C   UNL     1       1.050  -3.901   7.739  0.00  0.00    +0.101 C 
ATOM     28  N   UNL     1       0.100  -4.496   7.926  0.00  0.00    -0.191 NA
ENDBRANCH  10  27
BRANCH   5  29
ATOM     29  O   UNL     1       7.248   0.684   8.013  0.00  0.00    -0.422 OA
BRANCH  29  30
ATOM     30  C   UNL     1       7.584   1.129   9.240  0.00  0.00    +0.344 C 
ATOM     31  O   UNL     1       6.848   0.921  10.184  0.00  0.00    -0.245 OA
BRANCH  30  32
ATOM     32  C   UNL     1       8.845   1.867   9.437  0.00  0.00    +0.060 A 
ATOM     33  C   UNL     1       9.691   2.112   8.351  0.00  0.00    +0.018 A 
ATOM     34  C   UNL     1      10.867   2.802   8.540  0.00  0.00    +0.046 A 
ATOM     35  C   UNL     1      11.214   3.255   9.807  0.00  0.00    +0.120 A 
ATOM     36  C   UNL     1      10.377   3.013  10.890  0.00  0.00    +0.046 A 
ATOM     37  C   UNL     1       9.196   2.329  10.709  0.00  0.00    +0.018 A 
BRANCH  35  38
ATOM     38  O   UNL     1      12.375   3.935   9.989  0.00  0.00    -0.495 OA
ATOM     39  C   UNL     1      12.670   4.371  11.317  0.00  0.00    +0.277 C 
ENDBRANCH  35  38
ENDBRANCH  30  32
ENDBRANCH  29  30
ENDBRANCH   5  29
TORSDOF 11
