REMARK  Name = ZINC67397715
REMARK  7 active torsions:
REMARK  status: ('A' for Active; 'I' for Inactive)
REMARK    1  A    between atoms: C_1  and  C_2
REMARK    2  A    between atoms: N_7  and  C_9
REMARK    3  A    between atoms: C_9  and  C_10
REMARK    4  A    between atoms: C_10  and  C_12
REMARK    5  A    between atoms: C_10  and  N_13
REMARK    6  A    between atoms: C_14  and  C_16
REMARK    7  A    between atoms: N_18  and  C_19
REMARK                            x       y       z     vdW  Elec       q    Type
REMARK                         _______ _______ _______ _____ _____    ______ ____
ROOT
ATOM      1  N   UNL     1       0.146  -4.850   2.950  0.00  0.00    -0.307 N 
ATOM      2  C   UNL     1      -0.040  -5.997   2.266  0.00  0.00    +0.300 C 
ATOM      3  O   UNL     1       0.908  -6.708   2.004  0.00  0.00    -0.265 OA
ATOM      4  H   UNL     1      -0.611  -4.282   3.160  0.00  0.00    +0.149 HD
ENDROOT
BRANCH   2   5
ATOM      5  C   UNL     1      -1.413  -6.391   1.831  0.00  0.00    +0.307 C 
ATOM      6  O   UNL     1      -2.367  -5.705   2.134  0.00  0.00    -0.265 OA
ATOM      7  N   UNL     1      -1.593  -7.511   1.102  0.00  0.00    -0.246 N 
ATOM      8  C   UNL     1      -0.450  -8.371   0.786  0.00  0.00    +0.141 C 
ATOM      9  C   UNL     1      -2.857  -7.847   0.651  0.00  0.00    +0.168 A 
ATOM     10  N   UNL     1      -3.990  -7.207   0.825  0.00  0.00    -0.224 NA
ATOM     11  C   UNL     1      -5.161  -7.656   0.324  0.00  0.00    +0.080 A 
ATOM     12  C   UNL     1      -6.442  -7.068   0.438  0.00  0.00    +0.029 A 
ATOM     13  C   UNL     1      -7.537  -7.659  -0.136  0.00  0.00    +0.002 A 
ATOM     14  C   UNL     1      -7.432  -8.848  -0.844  0.00  0.00    +0.001 A 
ATOM     15  C   UNL     1      -6.195  -9.451  -0.976  0.00  0.00    +0.017 A 
ATOM     16  C   UNL     1      -5.092  -8.866  -0.405  0.00  0.00    +0.041 A 
ATOM     17  S   UNL     1      -3.362  -9.259  -0.322  0.00  0.00    -0.052 S 
ENDBRANCH   2   5
BRANCH   1  18
ATOM     18  C   UNL     1       1.493  -4.463   3.377  0.00  0.00    +0.054 C 
ATOM     19  C   UNL     1       1.857  -5.213   4.660  0.00  0.00    +0.026 C 
BRANCH  18  20
ATOM     20  C   UNL     1       1.531  -2.956   3.640  0.00  0.00    -0.057 C 
BRANCH  20  26
ATOM     21  C   UNL     1       2.695  -2.107  -1.039  0.00  0.00    +0.005 C 
ATOM     22  C   UNL     1       1.673  -1.825   0.064  0.00  0.00    -0.031 C 
ATOM     23  C   UNL     1       1.574  -0.315   0.296  0.00  0.00    -0.001 C 
ATOM     24  C   UNL     1       0.608  -0.048   1.454  0.00  0.00    -0.018 C 
ATOM     25  C   UNL     1       1.093  -0.796   2.698  0.00  0.00    -0.079 C 
ATOM     26  N   UNL     1       1.140  -2.236   2.421  0.00  0.00    +0.381 N 
ATOM     27  C   UNL     1       2.118  -2.508   1.360  0.00  0.00    -0.076 C 
ATOM     28  H   UNL     1       0.229  -2.551   2.124  0.00  0.00    -0.082 HD
ENDBRANCH  20  26
ENDBRANCH  18  20
ENDBRANCH   1  18
TORSDOF 4
