REMARK  Name = ZINC03899524
REMARK  7 active torsions:
REMARK  status: ('A' for Active; 'I' for Inactive)
REMARK    1  A    between atoms: C_1  and  C_2
REMARK    2  A    between atoms: C_2  and  C_3
REMARK    3  A    between atoms: C_2  and  C_4
REMARK    4  A    between atoms: C_7  and  C_10
REMARK    5  A    between atoms: C_19  and  C_28
REMARK    6  A    between atoms: C_23  and  C_24
REMARK    7  A    between atoms: C_23  and  C_26
REMARK                            x       y       z     vdW  Elec       q    Type
REMARK                         _______ _______ _______ _____ _____    ______ ____
ROOT
ATOM      1  C   UNL     1      -5.419  -2.005   0.043  0.00  0.00    +0.067 C 
ATOM      2  C   UNL     1      -6.159  -1.500  -1.200  0.00  0.00    +0.036 C 
ATOM      3  C   UNL     1      -6.000   0.003  -1.302  0.00  0.00    +0.078 C 
ATOM      4  S   UNL     1      -7.312   0.720  -2.333  0.00  0.00    -0.156 S 
ATOM      5  C   UNL     1      -8.810   0.108  -1.498  0.00  0.00    +0.096 C 
ATOM      6  C   UNL     1      -8.663  -1.375  -1.335  0.00  0.00    -0.015 C 
ATOM      7  C   UNL     1      -7.558  -2.021  -1.218  0.00  0.00    -0.046 C 
ATOM      8  C   UNL     1      -7.722  -3.542  -1.124  0.00  0.00    +0.164 C 
ATOM      9  C   UNL     1      -6.839  -4.026   0.004  0.00  0.00    +0.065 C 
ATOM     10  N   UNL     1      -7.289  -4.828   0.893  0.00  0.00    -0.304 NA
ATOM     11  C   UNL     1      -5.396  -3.535   0.043  0.00  0.00    +0.188 C 
ATOM     12  H   UNL     1      -6.711  -5.130   1.611  0.00  0.00    +0.186 HD
ENDROOT
BRANCH   1  16
ATOM     13  C   UNL     1      -1.412  -0.526   0.013  0.00  0.00    -0.045 A 
ATOM     14  C   UNL     1      -2.259  -0.204   1.056  0.00  0.00    +0.004 A 
ATOM     15  C   UNL     1      -3.556  -0.683   1.066  0.00  0.00    +0.004 A 
ATOM     16  C   UNL     1      -4.006  -1.482   0.032  0.00  0.00    -0.041 A 
ATOM     17  C   UNL     1      -3.159  -1.803  -1.012  0.00  0.00    +0.004 A 
ATOM     18  C   UNL     1      -1.863  -1.321  -1.024  0.00  0.00    +0.004 A 
BRANCH  13  20
ATOM     19  C   UNL     1      -0.019   1.526   0.010  0.00  0.00    +0.012 C 
ATOM     20  C   UNL     1       0.002  -0.004   0.002  0.00  0.00    +0.013 C 
ATOM     21  C   UNL     1       0.742  -0.511   1.242  0.00  0.00    +0.012 C 
ENDBRANCH  13  20
ENDBRANCH   1  16
BRANCH  11  22
ATOM     22  C   UNL     1      -4.656  -4.019  -1.134  0.00  0.00    +0.091 C 
ATOM     23  N   UNL     1      -4.085  -4.392  -2.042  0.00  0.00    -0.195 NA
ENDBRANCH  11  22
BRANCH  11  24
ATOM     24  C   UNL     1      -4.749  -4.020   1.273  0.00  0.00    +0.091 C 
ATOM     25  N   UNL     1      -4.249  -4.395   2.222  0.00  0.00    -0.195 NA
ENDBRANCH  11  24
BRANCH   8  26
ATOM     26  C   UNL     1      -9.127  -3.876  -0.839  0.00  0.00    +0.076 C 
ATOM     27  N   UNL     1     -10.211  -4.133  -0.619  0.00  0.00    -0.196 NA
ENDBRANCH   8  26
TORSDOF 5
