REMARK  Name = ZINC20903866
REMARK  5 active torsions:
REMARK  status: ('A' for Active; 'I' for Inactive)
REMARK    1  A    between atoms: C_4  and  C_7
REMARK    2  A    between atoms: C_10  and  C_33
REMARK    3  A    between atoms: C_17  and  C_20
REMARK    4  A    between atoms: C_20  and  C_21
REMARK    5  A    between atoms: N_23  and  C_24
REMARK                            x       y       z     vdW  Elec       q    Type
REMARK                         _______ _______ _______ _____ _____    ______ ____
ROOT
ATOM      1  C   UNL     1      -2.540   0.980   0.028  0.00  0.00    +0.136 C 
ATOM      2  C   UNL     1      -3.137   0.907   1.448  0.00  0.00    +0.087 C 
ATOM      3  C   UNL     1      -4.471   1.607   1.319  0.00  0.00    +0.075 C 
ATOM      4  N   UNL     1      -4.632   2.006   0.102  0.00  0.00    -0.181 NA
ATOM      5  N   UNL     1      -3.568   1.696  -0.743  0.00  0.00    -0.195 N 
ATOM      6  C   UNL     1      -3.493   2.005  -2.070  0.00  0.00    +0.170 C 
ATOM      7  N   UNL     1      -2.510   1.735  -2.920  0.00  0.00    -0.157 NA
ATOM      8  C   UNL     1      -2.515   2.068  -4.181  0.00  0.00    +0.252 C 
ATOM      9  O   UNL     1      -1.593   1.803  -4.928  0.00  0.00    -0.272 OA
ATOM     10  C   UNL     1      -3.758   2.813  -4.653  0.00  0.00    +0.150 C 
ATOM     11  S   UNL     1      -4.698   2.861  -3.074  0.00  0.00    -0.078 S 
ENDROOT
BRANCH   1  15
ATOM     12  C   UNL     1       1.123   3.178   0.044  0.00  0.00    +0.000 A 
ATOM     13  C   UNL     1       1.146   1.795   0.035  0.00  0.00    +0.000 A 
ATOM     14  C   UNL     1      -0.039   1.084   0.034  0.00  0.00    +0.005 A 
ATOM     15  C   UNL     1      -1.248   1.755   0.036  0.00  0.00    -0.025 A 
ATOM     16  C   UNL     1      -1.271   3.137   0.050  0.00  0.00    +0.005 A 
ATOM     17  C   UNL     1      -0.086   3.848   0.051  0.00  0.00    +0.000 A 
ENDBRANCH   1  15
BRANCH   3  18
ATOM     18  C   UNL     1      -5.433   1.802   2.408  0.00  0.00    +0.035 A 
ATOM     19  C   UNL     1      -6.668   2.426   2.380  0.00  0.00    +0.017 A 
ATOM     20  C   UNL     1      -7.397   2.485   3.545  0.00  0.00    +0.008 A 
ATOM     21  C   UNL     1      -6.888   1.933   4.677  0.00  0.00    +0.046 A 
ATOM     22  S   UNL     1      -5.321   1.289   4.115  0.00  0.00    -0.095 S 
ENDBRANCH   3  18
BRANCH  10  23
ATOM     23  C   UNL     1      -3.412   4.219  -5.148  0.00  0.00    +0.120 C 
BRANCH  23  24
ATOM     24  C   UNL     1      -4.646   4.870  -5.717  0.00  0.00    +0.219 C 
ATOM     25  O   UNL     1      -5.699   4.268  -5.725  0.00  0.00    -0.275 OA
ATOM     26  N   UNL     1      -4.580   6.120  -6.215  0.00  0.00    -0.285 N 
ATOM     27  H   UNL     1      -3.645   6.694  -6.139  0.00  0.00    +0.155 HD
BRANCH  26  28
ATOM     28  C   UNL     1      -5.703   6.688  -6.831  0.00  0.00    +0.037 A 
ATOM     29  C   UNL     1      -5.543   7.544  -7.913  0.00  0.00    +0.027 A 
ATOM     30  C   UNL     1      -6.649   8.102  -8.524  0.00  0.00    +0.051 A 
ATOM     31  C   UNL     1      -7.921   7.817  -8.054  0.00  0.00    +0.166 A 
ATOM     32  C   UNL     1      -8.085   6.963  -6.966  0.00  0.00    +0.168 A 
ATOM     33  C   UNL     1      -6.975   6.401  -6.357  0.00  0.00    +0.072 A 
ATOM     34  O   UNL     1      -9.418   6.846  -6.700  0.00  0.00    -0.453 OA
ATOM     35  C   UNL     1     -10.044   7.954  -7.374  0.00  0.00    +0.466 C 
ATOM     36  O   UNL     1      -9.153   8.235  -8.470  0.00  0.00    -0.453 OA
ENDBRANCH  26  28
ENDBRANCH  23  24
ENDBRANCH  10  23
TORSDOF 5
