REMARK  Name = ZINC08770999
REMARK  5 active torsions:
REMARK  status: ('A' for Active; 'I' for Inactive)
REMARK    1  A    between atoms: C_1  and  C_2
REMARK    2  A    between atoms: C_2  and  C_4
REMARK    3  A    between atoms: C_2  and  N_14
REMARK    4  A    between atoms: C_15  and  C_17
REMARK    5  A    between atoms: C_17  and  N_18
REMARK                            x       y       z     vdW  Elec       q    Type
REMARK                         _______ _______ _______ _____ _____    ______ ____
ROOT
ATOM      1  C   UNL     1      -2.458   1.085   2.954  0.00  0.00    +0.213 C 
ENDROOT
BRANCH   1   2
ATOM      2  N   UNL     1      -3.450   0.058   3.281  0.00  0.00    -0.215 N 
ATOM      3  C   UNL     1      -3.207  -1.004   4.079  0.00  0.00    +0.251 C 
ATOM      4  O   UNL     1      -2.168  -1.280   4.639  0.00  0.00    -0.272 OA
ATOM      5  C   UNL     1      -4.504  -1.774   4.126  0.00  0.00    +0.139 C 
ATOM      6  C   UNL     1      -5.030  -1.875   5.550  0.00  0.00    +0.040 C 
ATOM      7  C   UNL     1      -4.156  -2.828   6.371  0.00  0.00    +0.008 C 
ATOM      8  C   UNL     1      -4.357  -4.259   5.852  0.00  0.00    +0.043 C 
ATOM      9  C   UNL     1      -4.246  -4.246   4.363  0.00  0.00    -0.005 A 
ATOM     10  C   UNL     1      -4.304  -3.162   3.539  0.00  0.00    -0.005 A 
ATOM     11  C   UNL     1      -4.170  -3.411   2.174  0.00  0.00    +0.014 A 
ATOM     12  C   UNL     1      -3.995  -4.677   1.729  0.00  0.00    +0.046 A 
ATOM     13  S   UNL     1      -4.009  -5.608   3.254  0.00  0.00    -0.101 S 
ATOM     14  N   UNL     1      -5.416  -1.000   3.279  0.00  0.00    -0.281 N 
ATOM     15  C   UNL     1      -4.711   0.059   2.832  0.00  0.00    +0.310 C 
ATOM     16  O   UNL     1      -5.168   0.916   2.102  0.00  0.00    -0.252 OA
ATOM     17  H   UNL     1      -6.343  -1.206   3.082  0.00  0.00    +0.152 HD
ENDBRANCH   1   2
BRANCH   1  19
ATOM     18  N   UNL     1      -0.741   1.479   1.217  0.00  0.00    -0.307 N 
ATOM     19  C   UNL     1      -1.709   0.681   1.710  0.00  0.00    +0.231 C 
ATOM     20  O   UNL     1      -1.977  -0.362   1.152  0.00  0.00    -0.274 OA
ATOM     21  H   UNL     1      -0.526   2.313   1.663  0.00  0.00    +0.149 HD
BRANCH  18  23
ATOM     22  C   UNL     1      -0.773   1.575  -1.227  0.00  0.00    +0.033 C 
ATOM     23  C   UNL     1      -0.013   1.086   0.008  0.00  0.00    +0.101 C 
BRANCH  23  24
ATOM     24  C   UNL     1       1.363   1.702   0.028  0.00  0.00    -0.020 A 
ATOM     25  C   UNL     1       1.583   2.863   0.702  0.00  0.00    +0.006 A 
ATOM     26  C   UNL     1       2.849   3.444   0.737  0.00  0.00    +0.001 A 
ATOM     27  C   UNL     1       3.900   2.873   0.087  0.00  0.00    +0.008 A 
ATOM     28  C   UNL     1       3.710   1.677  -0.625  0.00  0.00    -0.018 A 
ATOM     29  C   UNL     1       2.423   1.083  -0.655  0.00  0.00    -0.013 A 
ATOM     30  C   UNL     1       2.233  -0.113  -1.368  0.00  0.00    +0.009 A 
ATOM     31  C   UNL     1       3.284  -0.684  -2.019  0.00  0.00    +0.001 A 
ATOM     32  C   UNL     1       4.549  -0.099  -1.989  0.00  0.00    +0.001 A 
ATOM     33  C   UNL     1       4.771   1.059  -1.309  0.00  0.00    +0.008 A 
ENDBRANCH  23  24
ENDBRANCH  18  23
ENDBRANCH   1  19
TORSDOF 4
