REMARK  Name = ZINC42323495
REMARK  2 active torsions:
REMARK  status: ('A' for Active; 'I' for Inactive)
REMARK    1  A    between atoms: C_8  and  C_20
REMARK    2  A    between atoms: N_9  and  C_10
REMARK                            x       y       z     vdW  Elec       q    Type
REMARK                         _______ _______ _______ _____ _____    ______ ____
ROOT
ATOM      1  C   UNL     1       1.110  -4.244  -0.493  0.00  0.00    +0.002 A 
ATOM      2  C   UNL     1       2.466  -4.480  -0.319  0.00  0.00    +0.002 A 
ATOM      3  C   UNL     1       3.335  -3.434  -0.094  0.00  0.00    +0.028 A 
ATOM      4  C   UNL     1       2.847  -2.135  -0.041  0.00  0.00    +0.069 A 
ATOM      5  C   UNL     1       1.474  -1.896  -0.217  0.00  0.00    +0.089 A 
ATOM      6  C   UNL     1       0.612  -2.973  -0.444  0.00  0.00    +0.030 A 
ATOM      7  N   UNL     1       1.290  -0.554  -0.117  0.00  0.00    -0.231 NA
ATOM      8  C   UNL     1       2.432   0.028   0.104  0.00  0.00    +0.126 A 
ATOM      9  N   UNL     1       3.426  -0.898   0.160  0.00  0.00    -0.325 N 
ENDROOT
BRANCH   9  10
ATOM     10  C   UNL     1       4.848  -0.632   0.392  0.00  0.00    +0.074 C 
ATOM     11  C   UNL     1       5.356  -1.407   1.637  0.00  0.00    +0.005 C 
ATOM     12  C   UNL     1       6.865  -1.548   1.324  0.00  0.00    -0.076 C 
ATOM     13  N   UNL     1       6.935  -1.763  -0.138  0.00  0.00    +0.383 N 
ATOM     14  C   UNL     1       5.705  -1.211  -0.752  0.00  0.00    -0.045 C 
ATOM     15  C   UNL     1       6.131  -0.069  -1.695  0.00  0.00    -0.015 C 
ATOM     16  C   UNL     1       7.606  -0.422  -2.023  0.00  0.00    -0.020 C 
ATOM     17  C   UNL     1       8.095  -1.016  -0.673  0.00  0.00    -0.078 C 
ATOM     18  H   UNL     1       7.026  -2.747  -0.344  0.00  0.00    -0.081 HD
ENDBRANCH   9  10
BRANCH   8  19
ATOM     19  C   UNL     1       2.625   1.514   0.273  0.00  0.00    +0.183 C 
ATOM     20 CL   UNL     1       2.609   1.926   2.028  0.00  0.00    -0.117 Cl
ENDBRANCH   8  19
TORSDOF 2
