REMARK  Name = ZINC43022746
REMARK  8 active torsions:
REMARK  status: ('A' for Active; 'I' for Inactive)
REMARK    1  A    between atoms: C_1  and  C_2
REMARK    2  A    between atoms: C_2  and  C_4
REMARK    3  A    between atoms: C_2  and  N_22
REMARK    4  A    between atoms: C_4  and  C_6
REMARK    5  A    between atoms: C_4  and  O_13
REMARK    6  A    between atoms: O_13  and  C_14
REMARK    7  A    between atoms: C_17  and  O_20
REMARK    8  A    between atoms: O_20  and  C_21
REMARK                            x       y       z     vdW  Elec       q    Type
REMARK                         _______ _______ _______ _____ _____    ______ ____
ROOT
ATOM      1  C   UNL     1       0.744  -0.516   1.252  0.00  0.00    +0.189 C 
ENDROOT
BRANCH   1   2
ATOM      2  C   UNL     1      -0.002  -0.177   2.517  0.00  0.00    -0.008 A 
ATOM      3  C   UNL     1       0.097   1.091   3.059  0.00  0.00    +0.007 A 
ATOM      4  C   UNL     1      -0.587   1.403   4.219  0.00  0.00    +0.001 A 
ATOM      5  C   UNL     1      -1.370   0.447   4.838  0.00  0.00    +0.015 A 
ATOM      6  C   UNL     1      -1.470  -0.822   4.296  0.00  0.00    +0.018 A 
ATOM      7  C   UNL     1      -0.789  -1.132   3.132  0.00  0.00    +0.022 A 
ATOM      8 BR   UNL     1      -2.540  -2.131   5.143  0.00  0.00    -0.050 Br
ENDBRANCH   1   2
BRANCH   1  10
ATOM      9  C   UNL     1      -0.054   1.553   0.102  0.00  0.00    -0.010 C 
ATOM     10  C   UNL     1      -0.026   0.025   0.046  0.00  0.00    -0.032 C 
BRANCH  10  11
ATOM     11  N   UNL     1       0.637  -0.408  -1.192  0.00  0.00    +0.382 N 
ATOM     12  H   UNL     1       1.581  -0.054  -1.209  0.00  0.00    -0.089 HD
ATOM     13  H   UNL     1       0.655  -1.416  -1.229  0.00  0.00    -0.089 HD
ATOM     14  H   UNL     1       0.129  -0.052  -1.988  0.00  0.00    -0.089 HD
ENDBRANCH  10  11
ENDBRANCH   1  10
BRANCH   1  15
ATOM     15  O   UNL     1       2.044   0.076   1.292  0.00  0.00    -0.486 OA
BRANCH  15  16
ATOM     16  C   UNL     1       3.068  -0.645   0.763  0.00  0.00    +0.122 A 
ATOM     17  C   UNL     1       4.371  -0.185   0.876  0.00  0.00    +0.049 A 
ATOM     18  C   UNL     1       5.411  -0.918   0.339  0.00  0.00    +0.049 A 
ATOM     19  C   UNL     1       5.152  -2.114  -0.314  0.00  0.00    +0.120 A 
ATOM     20  C   UNL     1       3.849  -2.575  -0.427  0.00  0.00    +0.049 A 
ATOM     21  C   UNL     1       2.809  -1.844   0.115  0.00  0.00    +0.049 A 
BRANCH  19  22
ATOM     22  O   UNL     1       6.176  -2.835  -0.844  0.00  0.00    -0.495 OA
ATOM     23  C   UNL     1       5.836  -4.057  -1.503  0.00  0.00    +0.277 C 
ENDBRANCH  19  22
ENDBRANCH  15  16
ENDBRANCH   1  15
TORSDOF 6
