REMARK  Name = ZINC08722574
REMARK  4 active torsions:
REMARK  status: ('A' for Active; 'I' for Inactive)
REMARK    1  A    between atoms: C_4  and  C_7
REMARK    2  A    between atoms: C_7  and  N_55
REMARK    3  A    between atoms: C_18  and  C_21
REMARK    4  A    between atoms: C_24  and  C_26
REMARK                            x       y       z     vdW  Elec       q    Type
REMARK                         _______ _______ _______ _____ _____    ______ ____
ROOT
ATOM      1  C   UNL     1       3.981   5.141  -1.441  0.00  0.00    -0.073 C 
ATOM      2  C   UNL     1       4.630   5.111  -2.828  0.00  0.00    +0.018 C 
ATOM      3  C   UNL     1       3.534   5.297  -3.871  0.00  0.00    -0.027 A 
ATOM      4  C   UNL     1       2.239   5.096  -3.534  0.00  0.00    -0.021 A 
ATOM      5  S   UNL     1       1.325   5.416  -5.018  0.00  0.00    -0.080 S 
ATOM      6  C   UNL     1       2.630   5.803  -6.057  0.00  0.00    +0.080 A 
ATOM      7  C   UNL     1       3.772   5.689  -5.249  0.00  0.00    +0.068 A 
ATOM      8  C   UNL     1       5.082   5.982  -5.875  0.00  0.00    +0.248 C 
ATOM      9  O   UNL     1       6.097   6.076  -5.208  0.00  0.00    -0.270 OA
ATOM     10  N   UNL     1       5.105   6.142  -7.215  0.00  0.00    -0.287 N 
ATOM     11  C   UNL     1       3.958   5.884  -8.079  0.00  0.00    +0.227 C 
ATOM     12  N   UNL     1       2.688   6.155  -7.380  0.00  0.00    -0.314 N 
ATOM     13  C   UNL     1       1.722   4.689  -2.190  0.00  0.00    -0.035 C 
ATOM     14  H   UNL     1       5.930   6.445  -7.626  0.00  0.00    +0.151 HD
ATOM     15  H   UNL     1       1.933   6.561  -7.834  0.00  0.00    +0.149 HD
ATOM     16  N   UNL     1       2.867   4.172  -1.401  0.00  0.00    +0.386 N 
ATOM     17  H   UNL     1       3.181   3.284  -1.809  0.00  0.00    -0.081 HD
ENDROOT
BRANCH  11  18
ATOM     18  C   UNL     1       3.984   4.442  -8.516  0.00  0.00    +0.144 A 
ATOM     19  C   UNL     1       5.087   3.681  -8.648  0.00  0.00    +0.049 A 
ATOM     20  C   UNL     1       4.661   2.406  -9.073  0.00  0.00    +0.050 A 
ATOM     21  C   UNL     1       3.307   2.461  -9.178  0.00  0.00    +0.135 A 
ATOM     22  O   UNL     1       2.909   3.700  -8.832  0.00  0.00    -0.456 OA
BRANCH  21  23
ATOM     23  C   UNL     1       2.424   1.352  -9.595  0.00  0.00    +0.017 A 
ATOM     24  C   UNL     1       2.968   0.111  -9.930  0.00  0.00    +0.012 A 
ATOM     25  C   UNL     1       2.138  -0.922 -10.313  0.00  0.00    +0.016 A 
ATOM     26  C   UNL     1       0.769  -0.727 -10.377  0.00  0.00    +0.018 A 
ATOM     27  C   UNL     1       0.224   0.503 -10.051  0.00  0.00    +0.016 A 
ATOM     28  C   UNL     1       1.043   1.542  -9.661  0.00  0.00    +0.012 A 
ATOM     29 BR   UNL     1      -0.361  -2.146 -10.911  0.00  0.00    -0.050 Br
ENDBRANCH  21  23
ENDBRANCH  11  18
BRANCH  16  30
ATOM     30  C   UNL     1       2.451   3.937  -0.001  0.00  0.00    -0.043 C 
BRANCH  30  34
ATOM     31  C   UNL     1      -1.219   1.751   0.017  0.00  0.00    +0.000 A 
ATOM     32  C   UNL     1      -0.013   1.076   0.008  0.00  0.00    +0.000 A 
ATOM     33  C   UNL     1       1.175   1.783   0.000  0.00  0.00    +0.002 A 
ATOM     34  C   UNL     1       1.156   3.165   0.008  0.00  0.00    -0.064 A 
ATOM     35  C   UNL     1      -0.050   3.840   0.022  0.00  0.00    +0.002 A 
ATOM     36  C   UNL     1      -1.238   3.133   0.030  0.00  0.00    +0.000 A 
ENDBRANCH  30  34
ENDBRANCH  16  30
TORSDOF 4
