REMARK  Name = ZINC21917445
REMARK  15 active torsions:
REMARK  status: ('A' for Active; 'I' for Inactive)
REMARK    1  A    between atoms: C_1  and  C_2
REMARK    2  A    between atoms: C_2  and  N_3
REMARK    3  A    between atoms: N_3  and  C_4
REMARK    4  A    between atoms: N_3  and  C_6
REMARK    5  A    between atoms: C_4  and  C_5
REMARK    6  A    between atoms: C_6  and  C_8
REMARK    7  A    between atoms: C_6  and  C_28
REMARK    8  A    between atoms: C_8  and  N_9
REMARK    9  A    between atoms: C_10  and  C_12
REMARK   10  A    between atoms: C_12  and  C_13
REMARK   11  A    between atoms: C_16  and  O_19
REMARK   12  A    between atoms: O_19  and  C_20
REMARK   13  A    between atoms: C_20  and  C_21
REMARK   14  A    between atoms: C_22  and  C_27
REMARK   15  A    between atoms: C_25  and  C_26
REMARK                            x       y       z     vdW  Elec       q    Type
REMARK                         _______ _______ _______ _____ _____    ______ ____
ROOT
ATOM      1  N   UNL     1      -6.447  -6.610  -1.899  0.00  0.00    -0.316 N 
ATOM      2  C   UNL     1      -5.761  -5.581  -1.364  0.00  0.00    +0.217 C 
ATOM      3  O   UNL     1      -4.604  -5.729  -1.034  0.00  0.00    -0.275 OA
ATOM      4  H   UNL     1      -7.497  -6.475  -2.199  0.00  0.00    +0.149 HD
ENDROOT
BRANCH   1   5
ATOM      5  C   UNL     1      -5.794  -7.909  -2.083  0.00  0.00    +0.093 C 
BRANCH   5   6
ATOM      6  C   UNL     1      -6.821  -8.930  -2.575  0.00  0.00    -0.019 C 
BRANCH   6   7
ATOM      7  C   UNL     1      -6.138 -10.251  -2.819  0.00  0.00    -0.041 A 
ATOM      8  C   UNL     1      -6.292 -11.287  -1.916  0.00  0.00    +0.003 A 
ATOM      9  C   UNL     1      -5.665 -12.498  -2.140  0.00  0.00    +0.000 A 
ATOM     10  C   UNL     1      -4.885 -12.675  -3.267  0.00  0.00    +0.001 A 
ATOM     11  C   UNL     1      -4.730 -11.641  -4.171  0.00  0.00    +0.020 A 
ATOM     12  C   UNL     1      -5.361 -10.430  -3.950  0.00  0.00    +0.043 A 
ATOM     13 CL   UNL     1      -5.173  -9.132  -5.088  0.00  0.00    -0.083 Cl
ENDBRANCH   6   7
BRANCH   6  14
ATOM     14  N   UNL     1      -7.868  -9.101  -1.558  0.00  0.00    +0.385 N 
ATOM     15  H   UNL     1      -8.123 -10.170  -1.512  0.00  0.00    -0.081 HD
BRANCH  14  17
ATOM     16  C   UNL     1      -6.444  -9.768   0.319  0.00  0.00    -0.017 C 
ATOM     17  C   UNL     1      -7.385  -8.695  -0.232  0.00  0.00    -0.081 C 
ENDBRANCH  14  17
BRANCH  14  18
ATOM     18  C   UNL     1      -9.083  -8.362  -1.925  0.00  0.00    -0.081 C 
ATOM     19  C   UNL     1      -9.805  -9.096  -3.057  0.00  0.00    -0.017 C 
ENDBRANCH  14  18
ENDBRANCH   6  14
ENDBRANCH   5   6
ENDBRANCH   1   5
BRANCH   2  20
ATOM     20  C   UNL     1      -6.433  -4.245  -1.175  0.00  0.00    +0.130 C 
BRANCH  20  21
ATOM     21  C   UNL     1      -5.456  -3.274  -0.563  0.00  0.00    -0.038 A 
ATOM     22  C   UNL     1      -4.654  -2.496  -1.377  0.00  0.00    +0.007 A 
ATOM     23  C   UNL     1      -3.758  -1.605  -0.818  0.00  0.00    +0.046 A 
ATOM     24  C   UNL     1      -3.664  -1.491   0.561  0.00  0.00    +0.121 A 
ATOM     25  C   UNL     1      -4.466  -2.277   1.376  0.00  0.00    +0.046 A 
ATOM     26  C   UNL     1      -5.364  -3.162   0.812  0.00  0.00    +0.007 A 
BRANCH  24  27
ATOM     27  O   UNL     1      -2.783  -0.616   1.113  0.00  0.00    -0.487 OA
BRANCH  27  28
ATOM     28  C   UNL     1      -2.740  -0.551   2.540  0.00  0.00    +0.269 C 
BRANCH  28  29
ATOM     29  C   UNL     1      -1.714   0.466   2.966  0.00  0.00    +0.054 A 
ATOM     30  C   UNL     1      -0.339   0.260   3.225  0.00  0.00    +0.087 A 
ATOM     31  N   UNL     1       0.149   1.419   3.562  0.00  0.00    -0.083 NA
ATOM     32  O   UNL     1      -0.700   2.280   3.549  0.00  0.00    -0.359 OA
ATOM     33  C   UNL     1      -1.894   1.790   3.191  0.00  0.00    +0.141 A 
ATOM     34  C   UNL     1      -3.183   2.559   3.058  0.00  0.00    +0.089 C 
ATOM     35  C   UNL     1       0.413  -1.042   3.128  0.00  0.00    +0.069 C 
ENDBRANCH  28  29
ENDBRANCH  27  28
ENDBRANCH  24  27
ENDBRANCH  20  21
ENDBRANCH   2  20
TORSDOF 11
