REMARK  Name = ZINC32109456
REMARK  6 active torsions:
REMARK  status: ('A' for Active; 'I' for Inactive)
REMARK    1  A    between atoms: C_1  and  C_2
REMARK    2  A    between atoms: C_5  and  S_8
REMARK    3  A    between atoms: S_8  and  O_11
REMARK    4  A    between atoms: O_11  and  C_12
REMARK    5  A    between atoms: C_15  and  C_18
REMARK    6  A    between atoms: C_28  and  C_30
REMARK                            x       y       z     vdW  Elec       q    Type
REMARK                         _______ _______ _______ _____ _____    ______ ____
ROOT
ATOM      1  C   UNL     1       4.307  -4.434   4.916  0.00  0.00    +0.024 C 
ATOM      2  C   UNL     1       4.104  -5.417   5.859  0.00  0.00    +0.081 C 
ATOM      3  C   UNL     1       3.340  -6.658   5.548  0.00  0.00    +0.152 C 
ATOM      4  N   UNL     1       3.342  -7.226   4.372  0.00  0.00    -0.283 NA
ATOM      5  N   UNL     1       2.612  -7.158   6.650  0.00  0.00    -0.152 N 
ATOM      6  C   UNL     1       3.045  -6.806   7.911  0.00  0.00    +0.181 C 
ATOM      7  N   UNL     1       4.006  -5.973   8.221  0.00  0.00    -0.152 NA
ATOM      8  C   UNL     1       4.640  -5.300   7.238  0.00  0.00    +0.273 C 
ATOM      9  O   UNL     1       5.621  -4.613   7.475  0.00  0.00    -0.268 OA
ATOM     10  S   UNL     1       1.957  -7.743   8.951  0.00  0.00    -0.038 S 
ATOM     11  C   UNL     1       0.948  -8.452   7.657  0.00  0.00    +0.103 C 
ATOM     12  N   UNL     1       1.510  -7.982   6.580  0.00  0.00    -0.169 NA
ATOM     13  H   UNL     1       2.826  -8.034   4.223  0.00  0.00    +0.188 HD
ENDROOT
BRANCH   1  17
ATOM     14  C   UNL     1       2.314  -4.635   1.194  0.00  0.00    +0.157 A 
ATOM     15  C   UNL     1       3.589  -4.083   1.268  0.00  0.00    +0.049 A 
ATOM     16  C   UNL     1       4.238  -4.015   2.468  0.00  0.00    +0.011 A 
ATOM     17  C   UNL     1       3.617  -4.503   3.627  0.00  0.00    -0.024 A 
ATOM     18  C   UNL     1       2.331  -5.058   3.545  0.00  0.00    +0.011 A 
ATOM     19  C   UNL     1       1.690  -5.115   2.340  0.00  0.00    +0.049 A 
BRANCH  14  20
ATOM     20  O   UNL     1       1.675  -4.699  -0.001  0.00  0.00    -0.342 OA
BRANCH  20  21
ATOM     21  S   UNL     1       0.832  -3.472  -0.319  0.00  0.00    +0.151 S 
ATOM     22  O   UNL     1       0.219  -3.073   0.899  0.00  0.00    -0.131 OA
ATOM     23  O   UNL     1       0.079  -3.787  -1.483  0.00  0.00    -0.131 OA
BRANCH  21  28
ATOM     24  C   UNL     1       4.630   0.952  -1.870  0.00  0.00    +0.044 C 
ATOM     25  C   UNL     1       3.682  -0.153  -1.482  0.00  0.00    -0.050 A 
ATOM     26  C   UNL     1       3.180  -1.004  -2.450  0.00  0.00    +0.005 A 
ATOM     27  C   UNL     1       2.310  -2.018  -2.094  0.00  0.00    +0.031 A 
ATOM     28  C   UNL     1       1.942  -2.181  -0.772  0.00  0.00    +0.128 A 
ATOM     29  C   UNL     1       2.444  -1.331   0.195  0.00  0.00    +0.031 A 
ATOM     30  C   UNL     1       3.318  -0.320  -0.159  0.00  0.00    +0.005 A 
ENDBRANCH  21  28
ENDBRANCH  20  21
ENDBRANCH  14  20
ENDBRANCH   1  17
BRANCH  11  31
ATOM     31  C   UNL     1      -0.247  -9.362   7.781  0.00  0.00    +0.046 C 
ATOM     32  C   UNL     1      -0.396 -10.186   6.500  0.00  0.00    +0.010 C 
ATOM     33  C   UNL     1      -1.609 -11.109   6.626  0.00  0.00    +0.001 C 
ATOM     34  C   UNL     1      -2.869 -10.269   6.840  0.00  0.00    +0.000 C 
ATOM     35  C   UNL     1      -2.721  -9.445   8.121  0.00  0.00    +0.001 C 
ATOM     36  C   UNL     1      -1.508  -8.521   7.995  0.00  0.00    +0.010 C 
ENDBRANCH  11  31
TORSDOF 5
