REMARK  Name = ZINC66076264
REMARK  3 active torsions:
REMARK  status: ('A' for Active; 'I' for Inactive)
REMARK    1  A    between atoms: C_8  and  C_10
REMARK    2  A    between atoms: N_15  and  C_17
REMARK    3  A    between atoms: C_17  and  N_18
REMARK                            x       y       z     vdW  Elec       q    Type
REMARK                         _______ _______ _______ _____ _____    ______ ____
ROOT
ATOM      1  C   UNL     1       2.995  -3.549  -0.750  0.00  0.00    +0.089 C 
ATOM      2  C   UNL     1       3.570  -3.517   0.668  0.00  0.00    +0.015 C 
ATOM      3  C   UNL     1       4.489  -4.725   0.865  0.00  0.00    +0.016 C 
ATOM      4  C   UNL     1       5.595  -4.697  -0.193  0.00  0.00    +0.086 C 
ATOM      5  N   UNL     1       4.994  -4.730  -1.532  0.00  0.00    -0.284 NA
ATOM      6  C   UNL     1       4.143  -3.555  -1.762  0.00  0.00    +0.099 C 
ENDROOT
BRANCH   1  14
ATOM      7  C   UNL     1      -0.953   0.851  -1.752  0.00  0.00    +0.002 A 
ATOM      8  C   UNL     1       0.137   1.674  -1.508  0.00  0.00    +0.004 A 
ATOM      9  C   UNL     1       1.369   1.132  -1.208  0.00  0.00    +0.048 A 
ATOM     10  C   UNL     1       1.522  -0.245  -1.150  0.00  0.00    +0.155 A 
ATOM     11  C   UNL     1       0.422  -1.081  -1.397  0.00  0.00    +0.110 A 
ATOM     12  C   UNL     1      -0.819  -0.518  -1.699  0.00  0.00    +0.031 A 
ATOM     13  N   UNL     1       0.871  -2.359  -1.270  0.00  0.00    -0.213 NA
ATOM     14  C   UNL     1       2.135  -2.331  -0.973  0.00  0.00    +0.201 A 
ATOM     15  O   UNL     1       2.566  -1.062  -0.891  0.00  0.00    -0.439 OA
ENDBRANCH   1  14
BRANCH   5  16
ATOM     16  C   UNL     1       6.027  -4.843  -2.570  0.00  0.00    +0.213 C 
BRANCH  16  17
ATOM     17  N   UNL     1       6.377  -6.253  -2.758  0.00  0.00    -0.292 N 
ATOM     18  C   UNL     1       5.573  -7.067  -3.520  0.00  0.00    +0.034 A 
ATOM     19  C   UNL     1       5.987  -8.336  -3.625  0.00  0.00    +0.014 A 
ATOM     20  S   UNL     1       7.477  -8.367  -2.668  0.00  0.00    -0.031 S 
ATOM     21  C   UNL     1       7.491  -6.754  -2.189  0.00  0.00    +0.292 A 
ATOM     22  O   UNL     1       8.309  -6.178  -1.494  0.00  0.00    -0.259 OA
ATOM     23  C   UNL     1       5.334  -9.449  -4.377  0.00  0.00    +0.044 C 
ATOM     24  C   UNL     1       3.900  -9.021  -4.724  0.00  0.00    +0.006 C 
ATOM     25  C   UNL     1       3.936  -7.605  -5.306  0.00  0.00    +0.006 C 
ATOM     26  C   UNL     1       4.299  -6.600  -4.211  0.00  0.00    +0.054 C 
ENDBRANCH  16  17
ENDBRANCH   5  16
TORSDOF 3
