REMARK  Name = ZINC19897495
REMARK  7 active torsions:
REMARK  status: ('A' for Active; 'I' for Inactive)
REMARK    1  A    between atoms: C_3  and  S_28
REMARK    2  A    between atoms: C_6  and  N_7
REMARK    3  A    between atoms: C_8  and  C_10
REMARK    4  A    between atoms: C_10  and  S_11
REMARK    5  A    between atoms: S_11  and  C_12
REMARK    6  A    between atoms: N_19  and  C_21
REMARK    7  A    between atoms: S_28  and  N_31
REMARK                            x       y       z     vdW  Elec       q    Type
REMARK                         _______ _______ _______ _____ _____    ______ ____
ROOT
ATOM      1  C   UNL     1      -2.743   1.085   0.015  0.00  0.00    +0.173 C 
ENDROOT
BRANCH   1   3
ATOM      2  N   UNL     1      -5.215   1.008   0.035  0.00  0.00    -0.285 N 
ATOM      3  C   UNL     1      -4.093   1.754   0.035  0.00  0.00    +0.227 C 
ATOM      4  O   UNL     1      -4.170   2.965   0.050  0.00  0.00    -0.275 OA
ATOM      5  H   UNL     1      -5.147  -0.086  -0.056  0.00  0.00    +0.155 HD
BRANCH   2  11
ATOM      6  C   UNL     1      -7.491   0.995   0.844  0.00  0.00    +0.025 A 
ATOM      7  C   UNL     1      -8.722   1.609   0.961  0.00  0.00    +0.030 A 
ATOM      8  C   UNL     1      -8.939   2.844   0.378  0.00  0.00    +0.105 A 
ATOM      9  C   UNL     1      -7.922   3.471  -0.318  0.00  0.00    +0.030 A 
ATOM     10  C   UNL     1      -6.686   2.865  -0.434  0.00  0.00    +0.025 A 
ATOM     11  C   UNL     1      -6.466   1.624   0.150  0.00  0.00    +0.034 A 
BRANCH   8  12
ATOM     12  S   UNL     1     -10.514   3.621   0.523  0.00  0.00    +0.056 S 
ATOM     13  O   UNL     1     -11.128   3.080   1.685  0.00  0.00    -0.153 OA
ATOM     14  O   UNL     1     -10.296   5.015   0.356  0.00  0.00    -0.153 OA
BRANCH  12  15
ATOM     15  N   UNL     1     -11.425   3.126  -0.768  0.00  0.00    -0.204 NA
ATOM     16  H   UNL     1     -12.420   3.591  -0.714  0.00  0.00    +0.144 HD
ATOM     17  H   UNL     1     -11.529   2.031  -0.744  0.00  0.00    +0.144 HD
ENDBRANCH  12  15
ENDBRANCH   8  12
ENDBRANCH   2  11
ENDBRANCH   1   3
BRANCH   1  18
ATOM     18  S   UNL     1      -1.444   2.346   0.020  0.00  0.00    -0.075 S 
BRANCH  18  19
ATOM     19  C   UNL     1      -0.016   1.315  -0.004  0.00  0.00    +0.213 A 
ATOM     20  N   UNL     1       0.002  -0.004  -0.020  0.00  0.00    -0.121 NA
ATOM     21  N   UNL     1       1.222  -0.429  -0.041  0.00  0.00    -0.130 NA
ATOM     22  C   UNL     1       2.031   0.573  -0.039  0.00  0.00    +0.173 A 
ATOM     23  N   UNL     1       1.271   1.722  -0.015  0.00  0.00    -0.188 N 
ATOM     24  N   UNL     1       1.856   2.991  -0.007  0.00  0.00    -0.156 NA
ATOM     25  C   UNL     1       3.126   3.081  -0.278  0.00  0.00    +0.212 C 
ATOM     26  N   UNL     1       3.886   1.976  -0.592  0.00  0.00    -0.282 N 
ATOM     27  C   UNL     1       3.539   0.647  -0.057  0.00  0.00    +0.190 C 
BRANCH  26  28
ATOM     28  C   UNL     1       4.999   2.116  -1.428  0.00  0.00    +0.035 A 
ATOM     29  C   UNL     1       5.774   1.008  -1.745  0.00  0.00    +0.026 A 
ATOM     30  C   UNL     1       6.869   1.148  -2.576  0.00  0.00    +0.040 A 
ATOM     31  C   UNL     1       7.201   2.393  -3.082  0.00  0.00    +0.124 A 
ATOM     32  C   UNL     1       6.433   3.500  -2.761  0.00  0.00    +0.040 A 
ATOM     33  C   UNL     1       5.334   3.364  -1.936  0.00  0.00    +0.026 A 
ATOM     34  F   UNL     1       8.275   2.529  -3.889  0.00  0.00    -0.205 F 
ENDBRANCH  26  28
ENDBRANCH  18  19
ENDBRANCH   1  18
TORSDOF 7
