REMARK  Name = ZINC27948741
REMARK  10 active torsions:
REMARK  status: ('A' for Active; 'I' for Inactive)
REMARK    1  A    between atoms: C_1  and  C_2
REMARK    2  A    between atoms: C_3  and  N_29
REMARK    3  A    between atoms: C_7  and  S_8
REMARK    4  A    between atoms: S_8  and  N_11
REMARK    5  A    between atoms: N_11  and  C_12
REMARK    6  A    between atoms: C_12  and  C_13
REMARK    7  A    between atoms: C_13  and  C_15
REMARK    8  A    between atoms: C_13  and  N_23
REMARK    9  A    between atoms: C_18  and  O_21
REMARK   10  A    between atoms: O_21  and  C_22
REMARK                            x       y       z     vdW  Elec       q    Type
REMARK                         _______ _______ _______ _____ _____    ______ ____
ROOT
ATOM      1  C   UNL     1       1.673   2.068   1.437  0.00  0.00    +0.095 C 
ENDROOT
BRANCH   1   2
ATOM      2  N   UNL     1       0.518   2.970   1.427  0.00  0.00    -0.191 NA
ATOM      3  H   UNL     1       0.534   3.784   1.954  0.00  0.00    +0.148 HD
BRANCH   2   4
ATOM      4  S   UNL     1      -0.815   2.598   0.518  0.00  0.00    +0.059 S 
ATOM      5  O   UNL     1      -0.344   2.295  -0.788  0.00  0.00    -0.153 OA
ATOM      6  O   UNL     1      -1.772   3.619   0.765  0.00  0.00    -0.153 OA
BRANCH   4  13
ATOM      7  C   UNL     1      -1.961   2.325   3.304  0.00  0.00    +0.048 C 
ATOM      8  C   UNL     1      -1.992   1.079   2.456  0.00  0.00    +0.006 A 
ATOM      9  C   UNL     1      -2.527  -0.090   2.965  0.00  0.00    +0.131 A 
ATOM     10  C   UNL     1      -2.555  -1.233   2.188  0.00  0.00    +0.033 A 
ATOM     11  C   UNL     1      -2.049  -1.206   0.901  0.00  0.00    +0.004 A 
ATOM     12  C   UNL     1      -1.515  -0.037   0.393  0.00  0.00    +0.029 A 
ATOM     13  C   UNL     1      -1.490   1.107   1.169  0.00  0.00    +0.110 A 
BRANCH   9  14
ATOM     14  N   UNL     1      -3.069  -0.118   4.342  0.00  0.00    +0.057 N 
ATOM     15  O   UNL     1      -3.444  -1.162   4.823  0.00  0.00    -0.126 OA
ATOM     16  O   UNL     1      -3.136   0.903   4.986  0.00  0.00    -0.126 OA
ENDBRANCH   9  14
ENDBRANCH   4  13
ENDBRANCH   2   4
ENDBRANCH   1   2
BRANCH   1  17
ATOM     17  C   UNL     1       2.903   2.820   1.948  0.00  0.00    -0.022 C 
BRANCH  17  18
ATOM     18  N   UNL     1       4.045   1.899   2.022  0.00  0.00    +0.385 N 
ATOM     19  C   UNL     1       3.703   0.768   2.893  0.00  0.00    -0.078 C 
ATOM     20  C   UNL     1       4.858  -0.235   2.910  0.00  0.00    -0.019 C 
ATOM     21  C   UNL     1       6.119   0.455   3.438  0.00  0.00    -0.004 C 
ATOM     22  C   UNL     1       6.423   1.676   2.566  0.00  0.00    -0.019 C 
ATOM     23  C   UNL     1       5.210   2.609   2.562  0.00  0.00    -0.078 C 
ATOM     24  H   UNL     1       4.259   1.556   1.098  0.00  0.00    -0.081 HD
ENDBRANCH  17  18
BRANCH  17  25
ATOM     25  C   UNL     1       3.229   3.949   1.004  0.00  0.00    -0.059 A 
ATOM     26  C   UNL     1       3.911   3.691  -0.171  0.00  0.00    +0.005 A 
ATOM     27  C   UNL     1       4.211   4.724  -1.038  0.00  0.00    +0.046 A 
ATOM     28  C   UNL     1       3.829   6.021  -0.729  0.00  0.00    +0.120 A 
ATOM     29  C   UNL     1       3.145   6.277   0.451  0.00  0.00    +0.046 A 
ATOM     30  C   UNL     1       2.842   5.240   1.312  0.00  0.00    +0.005 A 
BRANCH  28  31
ATOM     31  O   UNL     1       4.124   7.039  -1.579  0.00  0.00    -0.495 OA
ATOM     32  C   UNL     1       3.699   8.348  -1.196  0.00  0.00    +0.277 C 
ENDBRANCH  28  31
ENDBRANCH  17  25
ENDBRANCH   1  17
TORSDOF 8
