REMARK  Name = ZINC20150709
REMARK  13 active torsions:
REMARK  status: ('A' for Active; 'I' for Inactive)
REMARK    1  A    between atoms: C_1  and  C_2
REMARK    2  A    between atoms: C_2  and  C_3
REMARK    3  A    between atoms: C_3  and  C_4
REMARK    4  A    between atoms: C_4  and  C_5
REMARK    5  A    between atoms: C_5  and  C_32
REMARK    6  A    between atoms: C_10  and  C_13
REMARK    7  A    between atoms: N_20  and  C_23
REMARK    8  A    between atoms: C_26  and  O_29
REMARK    9  A    between atoms: O_29  and  C_30
REMARK   10  A    between atoms: C_30  and  C_31
REMARK   11  A    between atoms: C_32  and  O_34
REMARK   12  A    between atoms: O_34  and  C_35
REMARK   13  A    between atoms: C_35  and  C_36
REMARK                            x       y       z     vdW  Elec       q    Type
REMARK                         _______ _______ _______ _____ _____    ______ ____
ROOT
ATOM      1  C   UNL     1      -2.848  -2.593   0.015  0.00  0.00    +0.129 C 
ATOM      2  C   UNL     1      -2.861  -4.114   0.129  0.00  0.00    +0.120 C 
ATOM      3  C   UNL     1      -2.482  -4.200   1.656  0.00  0.00    +0.112 C 
ATOM      4  C   UNL     1      -3.396  -3.241   2.289  0.00  0.00    +0.104 C 
ATOM      5  N   UNL     1      -3.565  -2.154   1.257  0.00  0.00    -0.293 NA
ATOM      6  C   UNL     1      -2.057  -5.573   1.783  0.00  0.00    +0.232 C 
ATOM      7  O   UNL     1      -2.191  -6.302   2.742  0.00  0.00    -0.274 OA
ATOM      8  N   UNL     1      -1.468  -5.875   0.580  0.00  0.00    -0.210 N 
ATOM      9  C   UNL     1      -1.728  -4.937  -0.399  0.00  0.00    +0.232 C 
ATOM     10  O   UNL     1      -1.161  -4.800  -1.461  0.00  0.00    -0.274 OA
ATOM     11  H   UNL     1      -3.207  -1.272   1.589  0.00  0.00    +0.124 HD
ENDROOT
BRANCH   8  12
ATOM     12  C   UNL     1      -0.692  -7.023   0.361  0.00  0.00    +0.044 A 
ATOM     13  C   UNL     1      -0.126  -7.251  -0.886  0.00  0.00    +0.027 A 
ATOM     14  C   UNL     1       0.638  -8.381  -1.101  0.00  0.00    +0.047 A 
ATOM     15  C   UNL     1       0.841  -9.288  -0.071  0.00  0.00    +0.121 A 
ATOM     16  C   UNL     1       0.275  -9.060   1.175  0.00  0.00    +0.047 A 
ATOM     17  C   UNL     1      -0.485  -7.928   1.393  0.00  0.00    +0.027 A 
BRANCH  15  18
ATOM     18  O   UNL     1       1.593 -10.400  -0.283  0.00  0.00    -0.492 OA
BRANCH  18  19
ATOM     19  C   UNL     1       1.760 -11.291   0.822  0.00  0.00    +0.225 C 
ATOM     20  C   UNL     1       2.630 -12.475   0.396  0.00  0.00    +0.048 C 
ENDBRANCH  18  19
ENDBRANCH  15  18
ENDBRANCH   8  12
BRANCH   4  21
ATOM     21  C   UNL     1      -4.711  -3.903   2.612  0.00  0.00    +0.007 A 
ATOM     22  C   UNL     1      -5.156  -4.385   3.798  0.00  0.00    +0.013 A 
ATOM     23  C   UNL     1      -6.412  -4.957   3.860  0.00  0.00    +0.008 A 
ATOM     24  C   UNL     1      -7.163  -5.020   2.733  0.00  0.00    +0.045 A 
ATOM     25  S   UNL     1      -6.090  -4.249   1.532  0.00  0.00    -0.100 S 
ENDBRANCH   4  21
BRANCH   1  26
ATOM     26  C   UNL     1      -3.590  -2.141  -1.216  0.00  0.00    +0.328 C 
ATOM     27  O   UNL     1      -3.660  -2.867  -2.180  0.00  0.00    -0.249 OA
BRANCH  26  28
ATOM     28  O   UNL     1      -4.173  -0.932  -1.243  0.00  0.00    -0.464 OA
BRANCH  28  29
ATOM     29  C   UNL     1      -4.859  -0.569  -2.443  0.00  0.00    +0.229 C 
ATOM     30  C   UNL     1      -5.454   0.832  -2.286  0.00  0.00    +0.048 C 
ENDBRANCH  28  29
ENDBRANCH  26  28
ENDBRANCH   1  26
BRANCH   1  31
ATOM     31  C   UNL     1      -1.413  -2.063   0.004  0.00  0.00    +0.034 C 
BRANCH  31  32
ATOM     32  C   UNL     1      -1.433  -0.534  -0.021  0.00  0.00    +0.002 C 
BRANCH  32  34
ATOM     33  C   UNL     1      -0.019   1.525  -0.058  0.00  0.00    +0.004 C 
ATOM     34  C   UNL     1       0.002  -0.004  -0.032  0.00  0.00    -0.003 C 
ENDBRANCH  32  34
ENDBRANCH  31  32
ENDBRANCH   1  31
TORSDOF 10
