REMARK  Name = ZINC27904016
REMARK  4 active torsions:
REMARK  status: ('A' for Active; 'I' for Inactive)
REMARK    1  A    between atoms: C_1  and  O_2
REMARK    2  A    between atoms: O_2  and  C_3
REMARK    3  A    between atoms: C_17  and  C_19
REMARK    4  A    between atoms: C_21  and  C_24
REMARK                            x       y       z     vdW  Elec       q    Type
REMARK                         _______ _______ _______ _____ _____    ______ ____
ROOT
ATOM      1  C   UNL     1      -4.883   3.314  -1.236  0.00  0.00    +0.163 A 
ATOM      2  C   UNL     1      -6.007   3.505  -2.023  0.00  0.00    +0.049 A 
ATOM      3  C   UNL     1      -6.463   4.783  -2.305  0.00  0.00    +0.004 A 
ATOM      4  C   UNL     1      -5.802   5.885  -1.808  0.00  0.00    +0.012 A 
ATOM      5  C   UNL     1      -4.663   5.711  -1.013  0.00  0.00    +0.022 A 
ATOM      6  C   UNL     1      -4.203   4.414  -0.724  0.00  0.00    +0.179 A 
ATOM      7  O   UNL     1      -3.103   4.248   0.052  0.00  0.00    -0.435 OA
ATOM      8  C   UNL     1      -2.192   5.253   0.048  0.00  0.00    +0.211 A 
ATOM      9  N   UNL     1      -0.898   4.997   0.035  0.00  0.00    -0.305 N 
ATOM     10  C   UNL     1      -0.463   3.717   0.025  0.00  0.00    +0.173 A 
ATOM     11  N   UNL     1       0.782   3.249   0.011  0.00  0.00    -0.231 NA
ATOM     12  C   UNL     1       1.020   1.955   0.003  0.00  0.00    +0.121 A 
ATOM     13  C   UNL     1      -0.013   1.076   0.008  0.00  0.00    +0.068 A 
ATOM     14  S   UNL     1      -1.405   2.198   0.019  0.00  0.00    -0.058 S 
ATOM     15  C   UNL     1      -2.691   6.641   0.065  0.00  0.00    +0.068 A 
ATOM     16  C   UNL     1      -3.938   6.867  -0.477  0.00  0.00    +0.027 A 
ATOM     17  H   UNL     1      -0.173   5.824   0.031  0.00  0.00    +0.171 HD
ENDROOT
BRANCH  15  18
ATOM     18  C   UNL     1      -1.886   7.739   0.633  0.00  0.00    +0.114 A 
ATOM     19  N   UNL     1      -0.684   7.698   1.188  0.00  0.00    -0.239 NA
ATOM     20  C   UNL     1      -0.102   8.790   1.646  0.00  0.00    +0.079 A 
ATOM     21  C   UNL     1      -0.759   9.990   1.556  0.00  0.00    +0.075 A 
ATOM     22  S   UNL     1      -2.278   9.479   0.763  0.00  0.00    -0.075 S 
BRANCH  20  23
ATOM     23  C   UNL     1       1.247   8.720   2.257  0.00  0.00    +0.002 A 
ATOM     24  C   UNL     1       1.857   9.876   2.740  0.00  0.00    +0.011 A 
ATOM     25  C   UNL     1       3.111   9.805   3.313  0.00  0.00    +0.022 A 
ATOM     26  C   UNL     1       3.768   8.589   3.399  0.00  0.00    +0.059 A 
ATOM     27  C   UNL     1       3.168   7.438   2.916  0.00  0.00    +0.060 A 
ATOM     28  C   UNL     1       1.911   7.498   2.346  0.00  0.00    +0.031 A 
ATOM     29 CL   UNL     1       3.997   5.917   3.028  0.00  0.00    -0.082 Cl
ATOM     30 CL   UNL     1       5.347   8.508   4.114  0.00  0.00    -0.082 Cl
ENDBRANCH  20  23
ENDBRANCH  15  18
BRANCH   1  32
ATOM     31  C   UNL     1      -5.192   0.975  -1.527  0.00  0.00    +0.277 C 
ATOM     32  O   UNL     1      -4.444   2.056  -0.967  0.00  0.00    -0.491 OA
ENDBRANCH   1  32
TORSDOF 3
