REMARK  Name = ZINC53957305
REMARK  5 active torsions:
REMARK  status: ('A' for Active; 'I' for Inactive)
REMARK    1  A    between atoms: C_1  and  C_2
REMARK    2  A    between atoms: C_7  and  N_12
REMARK    3  A    between atoms: C_9  and  C_11
REMARK    4  A    between atoms: C_18  and  O_21
REMARK    5  A    between atoms: O_21  and  C_22
REMARK                            x       y       z     vdW  Elec       q    Type
REMARK                         _______ _______ _______ _____ _____    ______ ____
ROOT
ATOM      1  N   UNL     1       1.472  -2.526   2.419  0.00  0.00    -0.296 N 
ATOM      2  C   UNL     1       1.207  -3.754   2.907  0.00  0.00    +0.302 C 
ATOM      3  O   UNL     1       0.317  -4.423   2.419  0.00  0.00    -0.253 OA
ATOM      4  N   UNL     1       1.928  -4.241   3.937  0.00  0.00    -0.285 N 
ATOM      5  C   UNL     1       2.928  -3.402   4.613  0.00  0.00    +0.112 C 
ATOM      6  C   UNL     1       4.268  -4.143   4.622  0.00  0.00    +0.050 C 
ATOM      7  C   UNL     1       4.079  -5.525   5.251  0.00  0.00    +0.121 C 
ATOM      8  C   UNL     1       3.084  -6.335   4.416  0.00  0.00    +0.050 C 
ATOM      9  C   UNL     1       1.726  -5.618   4.408  0.00  0.00    +0.112 C 
ATOM     10  H   UNL     1       2.131  -1.964   2.855  0.00  0.00    +0.151 HD
ENDROOT
BRANCH   1  16
ATOM     11  C   UNL     1      -0.015   1.524   0.006  0.00  0.00    +0.008 C 
ATOM     12  C   UNL     1       0.005  -0.006  -0.002  0.00  0.00    -0.009 C 
ATOM     13  C   UNL     1       0.722  -0.500  -1.260  0.00  0.00    +0.003 C 
ATOM     14  C   UNL     1       0.743  -2.030  -1.267  0.00  0.00    +0.002 C 
ATOM     15  C   UNL     1       1.482  -2.536  -0.026  0.00  0.00    +0.022 C 
ATOM     16  C   UNL     1       0.765  -2.042   1.232  0.00  0.00    +0.078 C 
ATOM     17  C   UNL     1       0.744  -0.512   1.239  0.00  0.00    +0.009 C 
ATOM     18  C   UNL     1       0.027  -0.018   2.497  0.00  0.00    +0.009 C 
ENDBRANCH   1  16
BRANCH   7  19
ATOM     19  O   UNL     1       5.334  -6.207   5.290  0.00  0.00    -0.380 OA
ATOM     20  C   UNL     1       5.463  -7.124   6.378  0.00  0.00    +0.194 C 
ENDBRANCH   7  19
TORSDOF 2
