REMARK  Name = ZINC09102716
REMARK  7 active torsions:
REMARK  status: ('A' for Active; 'I' for Inactive)
REMARK    1  A    between atoms: C_3  and  C_6
REMARK    2  A    between atoms: C_6  and  C_8
REMARK    3  A    between atoms: C_6  and  S_20
REMARK    4  A    between atoms: C_8  and  N_9
REMARK    5  A    between atoms: N_9  and  S_10
REMARK    6  A    between atoms: S_10  and  C_13
REMARK    7  A    between atoms: S_20  and  C_23
REMARK                            x       y       z     vdW  Elec       q    Type
REMARK                         _______ _______ _______ _____ _____    ______ ____
ROOT
ATOM      1  C   UNL     1      -3.124   0.597   1.772  0.00  0.00    +0.188 C 
ENDROOT
BRANCH   1   4
ATOM      2  C   UNL     1      -0.178  -0.410   3.967  0.00  0.00    +0.008 A 
ATOM      3  C   UNL     1      -1.207   0.381   3.493  0.00  0.00    +0.013 A 
ATOM      4  C   UNL     1      -1.958  -0.068   2.458  0.00  0.00    +0.015 A 
ATOM      5  S   UNL     1      -1.204  -1.649   2.113  0.00  0.00    -0.100 S 
ATOM      6  C   UNL     1       0.057  -1.607   3.376  0.00  0.00    +0.045 A 
ENDBRANCH   1   4
BRANCH   1   7
ATOM      7  S   UNL     1      -2.732   0.846   0.019  0.00  0.00    +0.006 S 
ATOM      8  O   UNL     1      -3.679   1.724  -0.575  0.00  0.00    -0.169 OA
ATOM      9  O   UNL     1      -2.412  -0.396  -0.593  0.00  0.00    -0.169 OA
BRANCH   7  10
ATOM     10  C   UNL     1      -1.219   1.750   0.017  0.00  0.00    +0.093 A 
ATOM     11  C   UNL     1      -1.242   3.133   0.033  0.00  0.00    +0.031 A 
ATOM     12  C   UNL     1      -0.058   3.846   0.024  0.00  0.00    +0.051 A 
ATOM     13  C   UNL     1       1.155   3.177   0.008  0.00  0.00    +0.166 A 
ATOM     14  C   UNL     1       1.178   1.784   0.000  0.00  0.00    +0.168 A 
ATOM     15  C   UNL     1      -0.013   1.076   0.008  0.00  0.00    +0.076 A 
ATOM     16  O   UNL     1       2.478   1.369  -0.015  0.00  0.00    -0.453 OA
ATOM     17  C   UNL     1       3.243   2.517  -0.428  0.00  0.00    +0.466 C 
ATOM     18  O   UNL     1       2.441   3.634  -0.002  0.00  0.00    -0.453 OA
ENDBRANCH   7  10
ENDBRANCH   1   7
BRANCH   1  19
ATOM     19  C   UNL     1      -4.363  -0.291   1.897  0.00  0.00    +0.137 C 
BRANCH  19  20
ATOM     20  N   UNL     1      -5.496   0.355   1.230  0.00  0.00    -0.188 NA
ATOM     21  H   UNL     1      -5.449   1.295   0.995  0.00  0.00    +0.148 HD
BRANCH  20  22
ATOM     22  S   UNL     1      -6.858  -0.518   0.878  0.00  0.00    +0.056 S 
ATOM     23  O   UNL     1      -7.772   0.383   0.267  0.00  0.00    -0.153 OA
ATOM     24  O   UNL     1      -6.422  -1.710   0.239  0.00  0.00    -0.153 OA
BRANCH  22  25
ATOM     25  C   UNL     1      -7.578  -1.003   2.411  0.00  0.00    +0.101 C 
ATOM     26  C   UNL     1      -7.476  -2.217   2.830  0.00  0.00    +0.021 C 
ATOM     27  C   UNL     1      -8.113  -2.587   4.159  0.00  0.00    +0.195 C 
ATOM     28  S   UNL     1      -9.204  -1.124   4.437  0.00  0.00    -0.022 S 
ATOM     29  O   UNL     1     -10.507  -1.403   3.944  0.00  0.00    -0.174 OA
ATOM     30  O   UNL     1      -9.036  -0.653   5.767  0.00  0.00    -0.174 OA
ATOM     31  C   UNL     1      -8.325   0.004   3.269  0.00  0.00    +0.222 C 
ENDBRANCH  22  25
ENDBRANCH  20  22
ENDBRANCH  19  20
ENDBRANCH   1  19
TORSDOF 7
