REMARK  Name = ZINC39491165
REMARK  14 active torsions:
REMARK  status: ('A' for Active; 'I' for Inactive)
REMARK    1  A    between atoms: C_1  and  C_2
REMARK    2  A    between atoms: C_2  and  C_3
REMARK    3  A    between atoms: C_3  and  N_4
REMARK    4  A    between atoms: N_4  and  C_5
REMARK    5  A    between atoms: C_5  and  C_6
REMARK    6  A    between atoms: N_8  and  C_19
REMARK    7  A    between atoms: C_12  and  C_15
REMARK    8  A    between atoms: C_15  and  O_17
REMARK    9  A    between atoms: O_17  and  C_18
REMARK   10  A    between atoms: C_19  and  C_20
REMARK   11  A    between atoms: C_20  and  C_22
REMARK   12  A    between atoms: C_20  and  S_29
REMARK   13  A    between atoms: C_22  and  C_23
REMARK   14  A    between atoms: S_29  and  C_32
REMARK                            x       y       z     vdW  Elec       q    Type
REMARK                         _______ _______ _______ _____ _____    ______ ____
ROOT
ATOM      1  C   UNL     1       0.790  -4.292  -2.649  0.00  0.00    -0.039 A 
ATOM      2  C   UNL     1       1.812  -4.999  -2.144  0.00  0.00    +0.088 A 
ATOM      3  N   UNL     1       1.656  -6.325  -2.444  0.00  0.00    -0.345 N 
ATOM      4  C   UNL     1       0.502  -6.511  -3.166  0.00  0.00    +0.049 A 
ATOM      5  C   UNL     1      -0.097  -5.245  -3.322  0.00  0.00    +0.002 A 
ATOM      6  C   UNL     1      -1.298  -5.124  -4.016  0.00  0.00    +0.025 A 
ATOM      7  C   UNL     1      -1.897  -6.263  -4.548  0.00  0.00    +0.060 A 
ATOM      8  C   UNL     1      -1.293  -7.517  -4.383  0.00  0.00    +0.017 A 
ATOM      9  C   UNL     1      -0.112  -7.637  -3.711  0.00  0.00    +0.027 A 
ENDROOT
BRANCH   7  10
ATOM     10  C   UNL     1      -3.170  -6.150  -5.286  0.00  0.00    +0.339 C 
ATOM     11  O   UNL     1      -3.695  -5.063  -5.429  0.00  0.00    -0.245 OA
BRANCH  10  12
ATOM     12  O   UNL     1      -3.751  -7.251  -5.800  0.00  0.00    -0.464 OA
ATOM     13  C   UNL     1      -4.982  -7.068  -6.502  0.00  0.00    +0.280 C 
ENDBRANCH  10  12
ENDBRANCH   7  10
BRANCH   1  14
ATOM     14  C   UNL     1       0.588  -2.803  -2.539  0.00  0.00    -0.045 C 
BRANCH  14  15
ATOM     15  N   UNL     1      -0.372  -2.517  -1.465  0.00  0.00    +0.382 N 
ATOM     16  H   UNL     1      -0.016  -2.873  -0.591  0.00  0.00    -0.085 HD
ATOM     17  H   UNL     1      -1.254  -2.961  -1.674  0.00  0.00    -0.085 HD
BRANCH  15  18
ATOM     18  C   UNL     1      -0.569  -1.065  -1.357  0.00  0.00    -0.082 C 
BRANCH  18  20
ATOM     19  C   UNL     1      -1.774   0.745  -0.127  0.00  0.00    +0.002 C 
ATOM     20  C   UNL     1      -1.569  -0.767  -0.238  0.00  0.00    -0.022 C 
ENDBRANCH  18  20
ENDBRANCH  15  18
ENDBRANCH  14  15
ENDBRANCH   1  14
BRANCH   3  21
ATOM     21  C   UNL     1       2.584  -7.390  -2.053  0.00  0.00    +0.148 C 
BRANCH  21  22
ATOM     22  C   UNL     1       3.396  -7.832  -3.272  0.00  0.00    +0.160 C 
BRANCH  22  23
ATOM     23  S   UNL     1       4.499  -6.486  -3.784  0.00  0.00    +0.002 S 
ATOM     24  O   UNL     1       4.153  -5.285  -3.106  0.00  0.00    -0.169 OA
ATOM     25  O   UNL     1       5.845  -6.940  -3.813  0.00  0.00    -0.169 OA
BRANCH  23  26
ATOM     26  C   UNL     1       4.090  -6.182  -5.471  0.00  0.00    +0.089 A 
ATOM     27  C   UNL     1       4.682  -6.931  -6.471  0.00  0.00    +0.027 A 
ATOM     28  C   UNL     1       4.361  -6.694  -7.794  0.00  0.00    +0.002 A 
ATOM     29  C   UNL     1       3.449  -5.707  -8.118  0.00  0.00    +0.000 A 
ATOM     30  C   UNL     1       2.857  -4.958  -7.118  0.00  0.00    +0.002 A 
ATOM     31  C   UNL     1       3.174  -5.199  -5.794  0.00  0.00    +0.027 A 
ENDBRANCH  23  26
ENDBRANCH  22  23
BRANCH  22  32
ATOM     32  C   UNL     1       4.229  -9.064  -2.911  0.00  0.00    +0.063 C 
BRANCH  32  33
ATOM     33  C   UNL     1       4.868  -9.621  -4.157  0.00  0.00    -0.045 A 
ATOM     34  C   UNL     1       4.111 -10.350  -5.055  0.00  0.00    +0.004 A 
ATOM     35  C   UNL     1       4.697 -10.861  -6.198  0.00  0.00    +0.000 A 
ATOM     36  C   UNL     1       6.040 -10.642  -6.443  0.00  0.00    +0.000 A 
ATOM     37  C   UNL     1       6.796  -9.912  -5.545  0.00  0.00    +0.000 A 
ATOM     38  C   UNL     1       6.209  -9.397  -4.405  0.00  0.00    +0.004 A 
ENDBRANCH  32  33
ENDBRANCH  22  32
ENDBRANCH  21  22
ENDBRANCH   3  21
TORSDOF 12
