REMARK  Name = ZINC54318200
REMARK  2 active torsions:
REMARK  status: ('A' for Active; 'I' for Inactive)
REMARK    1  A    between atoms: C_5  and  C_6
REMARK    2  A    between atoms: C_11  and  N_14
REMARK                            x       y       z     vdW  Elec       q    Type
REMARK                         _______ _______ _______ _____ _____    ______ ____
ROOT
ATOM      1  C   UNL     1      -1.120  -0.947  -0.018  0.00  0.00    +0.253 C 
ATOM      2  O   UNL     1      -0.190  -0.170  -0.121  0.00  0.00    -0.269 OA
ATOM      3  N   UNL     1      -0.886  -2.270   0.080  0.00  0.00    -0.297 N 
ATOM      4  C   UNL     1       0.486  -2.780   0.212  0.00  0.00    +0.110 C 
ATOM      5  C   UNL     1       0.731  -3.826  -0.880  0.00  0.00    +0.041 C 
ATOM      6  C   UNL     1      -0.351  -4.906  -0.797  0.00  0.00    +0.081 C 
ATOM      7  C   UNL     1      -1.725  -4.273  -1.033  0.00  0.00    +0.041 C 
ATOM      8  C   UNL     1      -1.997  -3.231   0.062  0.00  0.00    +0.110 C 
ENDROOT
BRANCH   1  13
ATOM      9  C   UNL     1      -2.993   0.757  -0.459  0.00  0.00    +0.024 A 
ATOM     10  C   UNL     1      -4.360   0.988  -0.285  0.00  0.00    -0.036 A 
ATOM     11  C   UNL     1      -5.063   0.034   0.355  0.00  0.00    -0.006 A 
ATOM     12  S   UNL     1      -3.971  -1.219   0.628  0.00  0.00    -0.088 S 
ATOM     13  C   UNL     1      -2.497  -0.443   0.002  0.00  0.00    +0.075 A 
ATOM     14  C   UNL     1      -6.482  -0.016   0.865  0.00  0.00    +0.043 C 
ATOM     15  C   UNL     1      -7.239   1.287   0.606  0.00  0.00    +0.005 C 
ATOM     16  C   UNL     1      -7.728   1.354  -0.831  0.00  0.00    +0.000 C 
ATOM     17  C   UNL     1      -6.735   0.774  -1.818  0.00  0.00    +0.000 C 
ATOM     18  C   UNL     1      -5.731   1.886  -2.144  0.00  0.00    +0.005 C 
ATOM     19  C   UNL     1      -4.969   2.254  -0.871  0.00  0.00    +0.036 C 
ENDBRANCH   1  13
BRANCH   6  20
ATOM     20  N   UNL     1      -0.102  -5.926  -1.818  0.00  0.00    -0.281 N 
ATOM     21  C   UNL     1       0.135  -7.354  -1.556  0.00  0.00    +0.128 C 
ATOM     22  C   UNL     1       0.336  -7.958  -2.959  0.00  0.00    +0.124 C 
ATOM     23  N   UNL     1       0.191  -6.807  -3.863  0.00  0.00    -0.298 N 
ATOM     24  C   UNL     1      -0.059  -5.708  -3.139  0.00  0.00    +0.303 C 
ATOM     25  O   UNL     1      -0.227  -4.611  -3.636  0.00  0.00    -0.253 OA
ATOM     26  H   UNL     1       0.261  -6.840  -4.830  0.00  0.00    +0.150 HD
ENDBRANCH   6  20
TORSDOF 2
