REMARK  Name = ZINC22417151
REMARK  7 active torsions:
REMARK  status: ('A' for Active; 'I' for Inactive)
REMARK    1  A    between atoms: C_1  and  C_2
REMARK    2  A    between atoms: C_4  and  C_9
REMARK    3  A    between atoms: C_5  and  C_8
REMARK    4  A    between atoms: C_9  and  C_11
REMARK    5  A    between atoms: C_11  and  N_12
REMARK    6  A    between atoms: C_15  and  C_19
REMARK    7  A    between atoms: C_15  and  C_20
REMARK                            x       y       z     vdW  Elec       q    Type
REMARK                         _______ _______ _______ _____ _____    ______ ____
ROOT
ATOM      1  N   UNL     1       3.210   5.375   1.811  0.00  0.00    -0.216 N 
ATOM      2  C   UNL     1       2.314   5.484   0.810  0.00  0.00    +0.251 C 
ATOM      3  O   UNL     1       1.560   6.409   0.600  0.00  0.00    -0.272 OA
ATOM      4  C   UNL     1       2.448   4.209   0.001  0.00  0.00    +0.135 C 
ATOM      5  N   UNL     1       3.502   3.460   0.706  0.00  0.00    -0.281 N 
ATOM      6  C   UNL     1       3.884   4.221   1.747  0.00  0.00    +0.310 C 
ATOM      7  O   UNL     1       4.745   3.896   2.542  0.00  0.00    -0.252 OA
ATOM      8  C   UNL     1       2.877   4.521  -1.434  0.00  0.00    +0.047 C 
ATOM      9  H   UNL     1       3.817   2.473   0.336  0.00  0.00    +0.152 HD
ENDROOT
BRANCH   4  10
ATOM     10  C   UNL     1       1.153   3.438   0.010  0.00  0.00    -0.013 A 
ATOM     11  C   UNL     1      -0.053   4.113   0.025  0.00  0.00    +0.009 A 
ATOM     12  C   UNL     1      -1.242   3.408   0.032  0.00  0.00    +0.041 A 
ATOM     13  C   UNL     1      -1.226   2.024   0.019  0.00  0.00    +0.158 A 
ATOM     14  C   UNL     1      -0.016   1.347   0.009  0.00  0.00    +0.159 A 
ATOM     15  C   UNL     1       1.172   2.056   0.002  0.00  0.00    +0.047 A 
ATOM     16  F   UNL     1       0.002  -0.004   0.002  0.00  0.00    -0.202 F 
ATOM     17  F   UNL     1      -2.387   1.335   0.021  0.00  0.00    -0.202 F 
ENDBRANCH   4  10
BRANCH   1  18
ATOM     18  C   UNL     1       3.420   6.394   2.842  0.00  0.00    +0.197 C 
BRANCH  18  19
ATOM     19  C   UNL     1       4.477   7.364   2.382  0.00  0.00    +0.183 C 
ATOM     20  O   UNL     1       5.004   7.219   1.298  0.00  0.00    -0.290 OA
BRANCH  19  24
ATOM     21  C   UNL     1       4.767  10.612   6.297  0.00  0.00    +0.063 C 
ATOM     22  C   UNL     1       4.984   9.910   4.981  0.00  0.00    +0.014 A 
ATOM     23  C   UNL     1       4.333   8.809   4.570  0.00  0.00    +0.034 A 
ATOM     24  C   UNL     1       4.869   8.483   3.242  0.00  0.00    +0.039 A 
ATOM     25  C   UNL     1       5.815   9.453   2.968  0.00  0.00    +0.024 A 
ATOM     26  N   UNL     1       5.869  10.294   4.016  0.00  0.00    -0.362 N 
ATOM     27  H   UNL     1       6.497  11.184   4.168  0.00  0.00    +0.165 HD
ATOM     28  C   UNL     1       6.643   9.551   1.712  0.00  0.00    +0.064 C 
ENDBRANCH  19  24
ENDBRANCH  18  19
ENDBRANCH   1  18
TORSDOF 4
