REMARK  Name = ZINC39324242
REMARK  8 active torsions:
REMARK  status: ('A' for Active; 'I' for Inactive)
REMARK    1  A    between atoms: C_1  and  C_2
REMARK    2  A    between atoms: C_2  and  C_3
REMARK    3  A    between atoms: C_3  and  C_4
REMARK    4  A    between atoms: C_4  and  C_5
REMARK    5  A    between atoms: C_7  and  C_19
REMARK    6  A    between atoms: C_9  and  C_17
REMARK    7  A    between atoms: C_10  and  N_16
REMARK    8  A    between atoms: C_22  and  N_25
REMARK                            x       y       z     vdW  Elec       q    Type
REMARK                         _______ _______ _______ _____ _____    ______ ____
ROOT
ATOM      1  C   UNL     1       1.393  -2.951  -2.095  0.00  0.00    +0.069 C 
ATOM      2  C   UNL     1       2.688  -3.120  -2.206  0.00  0.00    +0.030 C 
ATOM      3  C   UNL     1       3.854  -2.825  -1.302  0.00  0.00    +0.098 C 
ATOM      4  C   UNL     1       4.928  -2.241  -2.201  0.00  0.00    +0.097 C 
ATOM      5  C   UNL     1       4.806  -2.242  -3.545  0.00  0.00    +0.195 C 
ATOM      6  O   UNL     1       3.763  -2.705  -4.256  0.00  0.00    -0.448 OA
ATOM      7  C   UNL     1       2.900  -3.654  -3.623  0.00  0.00    +0.343 C 
ATOM      8  N   UNL     1       1.540  -3.617  -4.169  0.00  0.00    -0.138 NA
ATOM      9  N   UNL     1       0.776  -3.251  -3.266  0.00  0.00    -0.155 NA
ENDROOT
BRANCH   3  10
ATOM     10  C   UNL     1       3.454  -1.826  -0.246  0.00  0.00    -0.035 A 
ATOM     11  C   UNL     1       3.150  -0.526  -0.607  0.00  0.00    +0.006 A 
ATOM     12  C   UNL     1       2.783   0.391   0.358  0.00  0.00    +0.023 A 
ATOM     13  C   UNL     1       2.721   0.007   1.692  0.00  0.00    +0.030 A 
ATOM     14  C   UNL     1       3.028  -1.299   2.050  0.00  0.00    +0.023 A 
ATOM     15  C   UNL     1       3.388  -2.213   1.080  0.00  0.00    +0.006 A 
BRANCH  13  16
ATOM     16  N   UNL     1       2.351   0.933   2.670  0.00  0.00    -0.330 N 
ATOM     17  C   UNL     1       1.997   2.340   2.429  0.00  0.00    +0.105 C 
ATOM     18  C   UNL     1       1.686   2.975   3.800  0.00  0.00    +0.020 C 
ATOM     19  C   UNL     1       2.431   2.043   4.792  0.00  0.00    +0.020 C 
ATOM     20  C   UNL     1       2.245   0.660   4.115  0.00  0.00    +0.105 C 
ENDBRANCH  13  16
ENDBRANCH   3  10
BRANCH   5  21
ATOM     21  N   UNL     1       5.853  -1.714  -4.258  0.00  0.00    -0.329 N 
ATOM     22  H   UNL     1       6.630  -1.366  -3.793  0.00  0.00    +0.145 HD
ATOM     23  H   UNL     1       5.816  -1.690  -5.227  0.00  0.00    +0.145 HD
ENDBRANCH   5  21
BRANCH   4  24
ATOM     24  C   UNL     1       6.102  -1.675  -1.607  0.00  0.00    +0.101 C 
ATOM     25  N   UNL     1       7.033  -1.225  -1.137  0.00  0.00    -0.191 NA
ENDBRANCH   4  24
BRANCH   1  26
ATOM     26  C   UNL     1       0.688  -2.494  -0.843  0.00  0.00    +0.057 C 
BRANCH  26  27
ATOM     27  C   UNL     1       0.308  -3.711   0.002  0.00  0.00    +0.006 C 
BRANCH  27  29
ATOM     28  C   UNL     1      -0.695  -4.462   2.163  0.00  0.00    +0.004 C 
ATOM     29  C   UNL     1      -0.315  -3.244   1.318  0.00  0.00    -0.003 C 
ENDBRANCH  27  29
ENDBRANCH  26  27
ENDBRANCH   1  26
TORSDOF 7
