REMARK  Name = ZINC40995189
REMARK  5 active torsions:
REMARK  status: ('A' for Active; 'I' for Inactive)
REMARK    1  A    between atoms: C_1  and  C_2
REMARK    2  A    between atoms: C_3  and  C_19
REMARK    3  A    between atoms: C_5  and  C_7
REMARK    4  A    between atoms: C_19  and  C_21
REMARK    5  A    between atoms: C_19  and  N_22
REMARK                            x       y       z     vdW  Elec       q    Type
REMARK                         _______ _______ _______ _____ _____    ______ ____
ROOT
ATOM      1  C   UNL     1      -0.018   1.503   0.010  0.00  0.00    +0.066 C 
ATOM      2  C   UNL     1       0.002  -0.004   0.002  0.00  0.00    +0.048 A 
ATOM      3  C   UNL     1       0.005  -0.678  -1.178  0.00  0.00    -0.002 A 
ATOM      4  S   UNL     1       0.031  -2.368  -0.593  0.00  0.00    -0.074 S 
ATOM      5  C   UNL     1       0.035  -1.993   1.155  0.00  0.00    +0.109 A 
ATOM      6  N   UNL     1       0.022  -0.667   1.135  0.00  0.00    -0.244 NA
ENDROOT
BRANCH   5   7
ATOM      7  C   UNL     1       0.053  -2.913   2.312  0.00  0.00    +0.012 A 
ATOM      8  C   UNL     1       0.047  -2.402   3.612  0.00  0.00    +0.060 A 
ATOM      9  C   UNL     1       0.064  -3.270   4.687  0.00  0.00    +0.164 A 
ATOM     10  C   UNL     1       0.087  -4.643   4.477  0.00  0.00    +0.180 A 
ATOM     11  C   UNL     1       0.093  -5.154   3.188  0.00  0.00    +0.087 A 
ATOM     12  C   UNL     1       0.071  -4.293   2.107  0.00  0.00    +0.034 A 
ATOM     13 CL   UNL     1       0.123  -6.870   2.932  0.00  0.00    -0.080 Cl
ATOM     14  O   UNL     1       0.103  -5.488   5.549  0.00  0.00    -0.487 OA
ATOM     15  C   UNL     1       1.297  -5.481   6.333  0.00  0.00    +0.232 C 
ATOM     16  C   UNL     1       1.262  -4.361   7.361  0.00  0.00    +0.082 C 
ATOM     17  C   UNL     1       1.254  -2.984   6.715  0.00  0.00    +0.232 C 
ATOM     18  O   UNL     1       0.056  -2.784   5.963  0.00  0.00    -0.488 OA
ENDBRANCH   5   7
BRANCH   3  19
ATOM     19  C   UNL     1      -0.010  -0.148  -2.589  0.00  0.00    -0.039 C 
ATOM     20  C   UNL     1       1.383  -0.299  -3.205  0.00  0.00    -0.009 C 
BRANCH  19  21
ATOM     21  N   UNL     1      -0.983  -0.907  -3.386  0.00  0.00    +0.383 N 
ATOM     22  H   UNL     1      -0.993  -0.552  -4.331  0.00  0.00    -0.089 HD
ATOM     23  H   UNL     1      -0.723  -1.882  -3.396  0.00  0.00    -0.089 HD
ATOM     24  H   UNL     1      -1.901  -0.807  -2.980  0.00  0.00    -0.089 HD
ENDBRANCH  19  21
ENDBRANCH   3  19
TORSDOF 3
