REMARK  Name = ZINC12154423
REMARK  13 active torsions:
REMARK  status: ('A' for Active; 'I' for Inactive)
REMARK    1  A    between atoms: C_1  and  C_2
REMARK    2  A    between atoms: C_3  and  C_4
REMARK    3  A    between atoms: C_4  and  N_5
REMARK    4  A    between atoms: C_8  and  C_12
REMARK    5  A    between atoms: C_8  and  C_20
REMARK    6  A    between atoms: C_12  and  C_13
REMARK    7  A    between atoms: C_13  and  C_14
REMARK    8  A    between atoms: C_25  and  C_26
REMARK    9  A    between atoms: C_25  and  N_73
REMARK   10  A    between atoms: C_29  and  O_34
REMARK   11  A    between atoms: C_30  and  C_33
REMARK   12  A    between atoms: C_31  and  C_32
REMARK   13  A    between atoms: O_34  and  C_35
REMARK                            x       y       z     vdW  Elec       q    Type
REMARK                         _______ _______ _______ _____ _____    ______ ____
ROOT
ATOM      1  N   UNL     1      -2.946   2.294  -3.662  0.00  0.00    -0.212 N 
ATOM      2  C   UNL     1      -2.936   2.961  -2.487  0.00  0.00    +0.248 C 
ATOM      3  O   UNL     1      -3.823   3.011  -1.662  0.00  0.00    -0.273 OA
ATOM      4  C   UNL     1      -1.579   3.634  -2.415  0.00  0.00    +0.115 C 
ATOM      5  N   UNL     1      -0.923   3.235  -3.672  0.00  0.00    -0.285 N 
ATOM      6  C   UNL     1      -1.799   2.454  -4.332  0.00  0.00    +0.310 C 
ATOM      7  O   UNL     1      -1.573   1.952  -5.415  0.00  0.00    -0.252 OA
ATOM      8  H   UNL     1      -0.034   3.486  -3.967  0.00  0.00    +0.151 HD
ENDROOT
BRANCH   4   9
ATOM      9  C   UNL     1      -0.788   3.123  -1.209  0.00  0.00    +0.018 C 
ATOM     10  C   UNL     1      -0.752   1.593  -1.232  0.00  0.00    -0.013 C 
ATOM     11  C   UNL     1      -0.013   1.086   0.008  0.00  0.00    -0.078 C 
ATOM     12  C   UNL     1      -0.705   3.026   1.284  0.00  0.00    -0.078 C 
ATOM     13  C   UNL     1      -1.465   3.591   0.082  0.00  0.00    -0.013 C 
ATOM     14  N   UNL     1      -0.728   1.550   1.216  0.00  0.00    +0.382 N 
ATOM     15  H   UNL     1      -1.704   1.234   1.167  0.00  0.00    -0.081 HD
BRANCH  14  16
ATOM     16  C   UNL     1      -0.099   0.979   2.425  0.00  0.00    -0.043 C 
BRANCH  16  17
ATOM     17  C   UNL     1      -0.658   1.666   3.644  0.00  0.00    -0.061 A 
ATOM     18  C   UNL     1       0.073   2.656   4.274  0.00  0.00    +0.005 A 
ATOM     19  C   UNL     1      -0.438   3.288   5.392  0.00  0.00    +0.046 A 
ATOM     20  C   UNL     1      -1.685   2.928   5.881  0.00  0.00    +0.123 A 
ATOM     21  C   UNL     1      -2.417   1.935   5.247  0.00  0.00    -0.006 A 
ATOM     22  C   UNL     1      -1.904   1.310   4.126  0.00  0.00    -0.043 A 
ATOM     23  C   UNL     1      -2.701   0.235   3.433  0.00  0.00    +0.044 C 
ATOM     24  C   UNL     1      -3.772   1.542   5.776  0.00  0.00    +0.048 C 
BRANCH  20  25
ATOM     25  O   UNL     1      -2.189   3.547   6.981  0.00  0.00    -0.495 OA
ATOM     26  C   UNL     1      -1.380   4.560   7.583  0.00  0.00    +0.277 C 
ENDBRANCH  20  25
ENDBRANCH  16  17
ENDBRANCH  14  16
ENDBRANCH   4   9
BRANCH   1  27
ATOM     27  C   UNL     1      -4.075   1.494  -4.143  0.00  0.00    +0.206 C 
BRANCH  27  30
ATOM     28  C   UNL     1      -3.664  -2.388  -2.833  0.00  0.00    +0.106 C 
ATOM     29  C   UNL     1      -3.811  -1.000  -3.301  0.00  0.00    -0.104 C 
ATOM     30  C   UNL     1      -3.928   0.106  -3.675  0.00  0.00    -0.083 C 
ENDBRANCH  27  30
ENDBRANCH   1  27
BRANCH   4  31
ATOM     31  C   UNL     1      -1.735   5.155  -2.349  0.00  0.00    +0.040 C 
BRANCH  31  32
ATOM     32  C   UNL     1      -2.529   5.639  -3.564  0.00  0.00    +0.038 C 
BRANCH  32  33
ATOM     33  C   UNL     1      -2.683   7.137  -3.499  0.00  0.00    -0.047 A 
ATOM     34  C   UNL     1      -3.776   7.692  -2.861  0.00  0.00    +0.003 A 
ATOM     35  C   UNL     1      -3.915   9.066  -2.798  0.00  0.00    +0.000 A 
ATOM     36  C   UNL     1      -2.965   9.885  -3.381  0.00  0.00    +0.000 A 
ATOM     37  C   UNL     1      -1.875   9.329  -4.023  0.00  0.00    +0.000 A 
ATOM     38  C   UNL     1      -1.733   7.955  -4.083  0.00  0.00    +0.003 A 
ENDBRANCH  32  33
ENDBRANCH  31  32
ENDBRANCH   4  31
TORSDOF 9
