REMARK  Name = ZINC41638682
REMARK  6 active torsions:
REMARK  status: ('A' for Active; 'I' for Inactive)
REMARK    1  A    between atoms: C_1  and  N_2
REMARK    2  A    between atoms: N_2  and  C_3
REMARK    3  A    between atoms: C_5  and  C_10
REMARK    4  A    between atoms: C_10  and  N_11
REMARK    5  A    between atoms: C_12  and  C_14
REMARK    6  A    between atoms: N_16  and  C_17
REMARK                            x       y       z     vdW  Elec       q    Type
REMARK                         _______ _______ _______ _____ _____    ______ ____
ROOT
ATOM      1  C   UNL     1       2.172  -3.506   3.385  0.00  0.00    +0.303 C 
ATOM      2  O   UNL     1       1.497  -2.967   4.239  0.00  0.00    -0.265 OA
ATOM      3  N   UNL     1       3.318  -4.127   3.726  0.00  0.00    -0.278 N 
ATOM      4  H   UNL     1       3.822  -4.617   3.056  0.00  0.00    +0.155 HD
ENDROOT
BRANCH   3   5
ATOM      5  C   UNL     1       3.781  -4.067   5.042  0.00  0.00    +0.037 A 
ATOM      6  C   UNL     1       5.150  -3.996   5.291  0.00  0.00    +0.024 A 
ATOM      7  C   UNL     1       5.613  -3.936   6.587  0.00  0.00    +0.014 A 
ATOM      8  C   UNL     1       4.710  -3.947   7.646  0.00  0.00    +0.028 A 
ATOM      9  C   UNL     1       4.853  -3.896   9.113  0.00  0.00    +0.028 A 
ATOM     10  C   UNL     1       5.942  -3.819   9.976  0.00  0.00    +0.012 A 
ATOM     11  C   UNL     1       5.734  -3.788  11.338  0.00  0.00    +0.001 A 
ATOM     12  C   UNL     1       4.446  -3.833  11.847  0.00  0.00    +0.004 A 
ATOM     13  C   UNL     1       3.359  -3.909  11.001  0.00  0.00    +0.047 A 
ATOM     14  C   UNL     1       3.549  -3.942   9.624  0.00  0.00    +0.136 A 
ATOM     15  O   UNL     1       2.684  -4.013   8.588  0.00  0.00    -0.455 OA
ATOM     16  C   UNL     1       3.331  -4.018   7.402  0.00  0.00    +0.138 A 
ATOM     17  C   UNL     1       2.876  -4.072   6.091  0.00  0.00    +0.070 A 
ENDBRANCH   3   5
BRANCH   1  19
ATOM     18  N   UNL     1       0.586  -2.857   1.618  0.00  0.00    -0.303 N 
ATOM     19  C   UNL     1       1.732  -3.479   1.958  0.00  0.00    +0.300 C 
ATOM     20  O   UNL     1       2.407  -4.017   1.105  0.00  0.00    -0.265 OA
ATOM     21  H   UNL     1       0.047  -2.427   2.300  0.00  0.00    +0.149 HD
BRANCH  18  22
ATOM     22  C   UNL     1       0.154  -2.831   0.218  0.00  0.00    +0.143 C 
BRANCH  22  27
ATOM     23  C   UNL     1       0.617   0.315   1.487  0.00  0.00    +0.130 C 
ATOM     24  N   UNL     1       0.038   0.011   0.176  0.00  0.00    -0.323 N 
ATOM     25  C   UNL     1       0.722   0.446  -1.045  0.00  0.00    +0.130 C 
ATOM     26  C   UNL     1      -1.159  -0.689   0.090  0.00  0.00    +0.103 A 
ATOM     27  C   UNL     1      -1.147  -2.080   0.108  0.00  0.00    +0.008 A 
ATOM     28  C   UNL     1      -2.346  -2.764   0.022  0.00  0.00    +0.010 A 
ATOM     29  C   UNL     1      -3.522  -2.032  -0.079  0.00  0.00    +0.018 A 
ATOM     30  C   UNL     1      -3.460  -0.653  -0.090  0.00  0.00    +0.084 A 
ATOM     31  N   UNL     1      -2.302  -0.026  -0.002  0.00  0.00    -0.349 N 
ATOM     32  H   UNL     1      -2.287   0.944  -0.008  0.00  0.00    +0.167 HD
ENDBRANCH  22  27
ENDBRANCH  18  22
ENDBRANCH   1  19
TORSDOF 4
