REMARK  Name = ZINC39142984
REMARK  6 active torsions:
REMARK  status: ('A' for Active; 'I' for Inactive)
REMARK    1  A    between atoms: C_4  and  C_7
REMARK    2  A    between atoms: C_7  and  O_8
REMARK    3  A    between atoms: O_8  and  C_9
REMARK    4  A    between atoms: C_14  and  C_15
REMARK    5  A    between atoms: N_17  and  N_18
REMARK    6  A    between atoms: C_19  and  C_20
REMARK                            x       y       z     vdW  Elec       q    Type
REMARK                         _______ _______ _______ _____ _____    ______ ____
ROOT
ATOM      1  C   UNL     1       5.128  -1.269   3.950  0.00  0.00    +0.267 C 
ATOM      2  O   UNL     1       4.087  -0.655   3.815  0.00  0.00    -0.268 OA
ATOM      3  N   UNL     1       5.559  -1.602   5.183  0.00  0.00    -0.203 N 
ATOM      4  H   UNL     1       6.389  -2.092   5.290  0.00  0.00    +0.178 HD
ENDROOT
BRANCH   1  10
ATOM      5  C   UNL     1       5.475  -1.306   1.480  0.00  0.00    +0.133 A 
ATOM      6  C   UNL     1       6.230  -1.663   0.373  0.00  0.00    +0.046 A 
ATOM      7  C   UNL     1       7.410  -2.360   0.536  0.00  0.00    +0.004 A 
ATOM      8  C   UNL     1       7.850  -2.707   1.804  0.00  0.00    +0.001 A 
ATOM      9  C   UNL     1       7.113  -2.360   2.915  0.00  0.00    +0.017 A 
ATOM     10  C   UNL     1       5.919  -1.650   2.764  0.00  0.00    +0.080 A 
BRANCH   5  11
ATOM     11  O   UNL     1       4.314  -0.621   1.322  0.00  0.00    -0.487 OA
BRANCH  11  12
ATOM     12  C   UNL     1       3.925  -0.305  -0.017  0.00  0.00    +0.264 C 
BRANCH  12  16
ATOM     13  C   UNL     1       0.231   1.838   0.040  0.00  0.00    +0.000 A 
ATOM     14  C   UNL     1       1.429   2.524   0.101  0.00  0.00    +0.000 A 
ATOM     15  C   UNL     1       2.624   1.831   0.083  0.00  0.00    +0.007 A 
ATOM     16  C   UNL     1       2.622   0.451   0.004  0.00  0.00    -0.010 A 
ATOM     17  C   UNL     1       1.424  -0.236  -0.056  0.00  0.00    +0.007 A 
ATOM     18  C   UNL     1       0.228   0.458  -0.039  0.00  0.00    +0.000 A 
ENDBRANCH  12  16
ENDBRANCH  11  12
ENDBRANCH   5  11
ENDBRANCH   1  10
BRANCH   3  19
ATOM     19  N   UNL     1       4.808  -1.241   6.309  0.00  0.00    -0.190 NA
ATOM     20  C   UNL     1       5.172  -1.629   7.473  0.00  0.00    +0.132 C 
BRANCH  20  21
ATOM     21  C   UNL     1       6.478  -2.359   7.649  0.00  0.00    +0.146 C 
ATOM     22  C   UNL     1       6.227  -3.761   8.157  0.00  0.00    +0.013 C 
ATOM     23  C   UNL     1       6.853  -3.845   9.353  0.00  0.00    -0.004 A 
ATOM     24  C   UNL     1       6.982  -4.928  10.334  0.00  0.00    +0.010 A 
ATOM     25  C   UNL     1       7.688  -4.707  11.467  0.00  0.00    +0.001 A 
ATOM     26  C   UNL     1       8.297  -3.472  11.726  0.00  0.00    +0.002 A 
ATOM     27  C   UNL     1       8.223  -2.429  10.872  0.00  0.00    +0.026 A 
ATOM     28  C   UNL     1       7.506  -2.550   9.650  0.00  0.00    +0.043 A 
ATOM     29  N   UNL     1       7.293  -1.698   8.674  0.00  0.00    -0.373 N 
ATOM     30  H   UNL     1       7.619  -0.785   8.637  0.00  0.00    +0.161 HD
ENDBRANCH  20  21
ENDBRANCH   3  19
TORSDOF 6
