REMARK  Name = ZINC05749358
REMARK  3 active torsions:
REMARK  status: ('A' for Active; 'I' for Inactive)
REMARK    1  A    between atoms: C_4  and  N_21
REMARK    2  A    between atoms: C_6  and  C_7
REMARK    3  A    between atoms: N_8  and  N_9
REMARK                            x       y       z     vdW  Elec       q    Type
REMARK                         _______ _______ _______ _____ _____    ______ ____
ROOT
ATOM      1  N   UNL     1      -3.598  -0.952   0.014  0.00  0.00    -0.144 NA
ATOM      2  C   UNL     1      -3.586  -2.271   0.006  0.00  0.00    +0.157 C 
ATOM      3  C   UNL     1      -4.751  -3.181   0.007  0.00  0.00    +0.029 A 
ATOM      4  C   UNL     1      -6.127  -2.968   0.015  0.00  0.00    +0.027 A 
ATOM      5  C   UNL     1      -6.987  -4.048   0.012  0.00  0.00    +0.019 A 
ATOM      6  C   UNL     1      -6.480  -5.338   0.002  0.00  0.00    +0.017 A 
ATOM      7  C   UNL     1      -5.117  -5.559  -0.006  0.00  0.00    +0.025 A 
ATOM      8  C   UNL     1      -4.236  -4.485  -0.003  0.00  0.00    +0.043 A 
ATOM      9  N   UNL     1      -2.846  -4.430  -0.010  0.00  0.00    -0.280 N 
ATOM     10  C   UNL     1      -2.406  -3.160  -0.010  0.00  0.00    +0.269 C 
ATOM     11  O   UNL     1      -1.242  -2.805  -0.021  0.00  0.00    -0.268 OA
ATOM     12 BR   UNL     1      -8.857  -3.768   0.021  0.00  0.00    -0.050 Br
ATOM     13  H   UNL     1      -2.268  -5.209  -0.018  0.00  0.00    +0.155 HD
ENDROOT
BRANCH   1  15
ATOM     14  C   UNL     1      -2.498   1.018   0.019  0.00  0.00    +0.143 C 
ATOM     15  N   UNL     1      -2.486  -0.297   0.012  0.00  0.00    -0.156 NA
BRANCH  14  21
ATOM     16  C   UNL     1      -0.013   1.076   0.008  0.00  0.00    +0.011 A 
ATOM     17  C   UNL     1       1.170   1.783   0.001  0.00  0.00    +0.023 A 
ATOM     18  C   UNL     1       1.153   3.169   0.008  0.00  0.00    +0.071 A 
ATOM     19  C   UNL     1      -0.051   3.855   0.023  0.00  0.00    +0.145 A 
ATOM     20  C   UNL     1      -1.242   3.164   0.030  0.00  0.00    +0.043 A 
ATOM     21  C   UNL     1      -1.235   1.762   0.017  0.00  0.00    -0.003 A 
ATOM     22 CL   UNL     1       2.649   4.050  -0.001  0.00  0.00    -0.081 Cl
BRANCH  19  23
ATOM     23  N   UNL     1      -0.057   5.335   0.031  0.00  0.00    +0.058 N 
ATOM     24  O   UNL     1      -1.114   5.940   0.044  0.00  0.00    -0.126 OA
ATOM     25  O   UNL     1       0.995   5.949   0.024  0.00  0.00    -0.126 OA
ENDBRANCH  19  23
ENDBRANCH  14  21
ENDBRANCH   1  15
TORSDOF 3
