REMARK  Name = ZINC20874715
REMARK  13 active torsions:
REMARK  status: ('A' for Active; 'I' for Inactive)
REMARK    1  A    between atoms: C_1  and  C_2
REMARK    2  A    between atoms: C_2  and  O_3
REMARK    3  A    between atoms: O_3  and  C_4
REMARK    4  A    between atoms: C_6  and  C_20
REMARK    5  A    between atoms: C_9  and  O_10
REMARK    6  A    between atoms: O_10  and  C_11
REMARK    7  A    between atoms: C_11  and  C_12
REMARK    8  A    between atoms: C_15  and  C_18
REMARK    9  A    between atoms: C_20  and  N_21
REMARK   10  A    between atoms: N_21  and  C_22
REMARK   11  A    between atoms: C_22  and  C_23
REMARK   12  A    between atoms: C_23  and  C_25
REMARK   13  A    between atoms: C_23  and  O_26
REMARK                            x       y       z     vdW  Elec       q    Type
REMARK                         _______ _______ _______ _____ _____    ______ ____
ROOT
ATOM      1  C   UNL     1       1.812   2.382   1.202  0.00  0.00    +0.163 A 
ATOM      2  C   UNL     1       3.040   3.024   1.188  0.00  0.00    +0.051 A 
ATOM      3  C   UNL     1       3.636   3.351  -0.015  0.00  0.00    -0.060 A 
ATOM      4  C   UNL     1       3.013   3.034  -1.208  0.00  0.00    +0.021 A 
ATOM      5  C   UNL     1       1.789   2.389  -1.202  0.00  0.00    +0.063 A 
ATOM      6  C   UNL     1       1.186   2.059   0.002  0.00  0.00    +0.176 A 
ATOM      7 BR   UNL     1       0.940   1.957  -2.835  0.00  0.00    -0.046 Br
ENDROOT
BRANCH   1   8
ATOM      8  O   UNL     1       1.221   2.065   2.385  0.00  0.00    -0.489 OA
BRANCH   8  10
ATOM      9  C   UNL     1       1.108   1.994   4.798  0.00  0.00    +0.048 C 
ATOM     10  C   UNL     1       1.921   2.428   3.577  0.00  0.00    +0.226 C 
ENDBRANCH   8  10
ENDBRANCH   1   8
BRANCH   6  11
ATOM     11  O   UNL     1      -0.017   1.425   0.010  0.00  0.00    -0.483 OA
BRANCH  11  12
ATOM     12  C   UNL     1       0.002  -0.004   0.002  0.00  0.00    +0.264 C 
BRANCH  12  13
ATOM     13  C   UNL     1      -1.412  -0.526   0.013  0.00  0.00    -0.010 A 
ATOM     14  C   UNL     1      -2.047  -0.777   1.215  0.00  0.00    +0.007 A 
ATOM     15  C   UNL     1      -3.345  -1.251   1.224  0.00  0.00    +0.004 A 
ATOM     16  C   UNL     1      -4.005  -1.483   0.032  0.00  0.00    -0.050 A 
ATOM     17  C   UNL     1      -3.369  -1.237  -1.170  0.00  0.00    +0.004 A 
ATOM     18  C   UNL     1      -2.072  -0.758  -1.179  0.00  0.00    +0.007 A 
ATOM     19  C   UNL     1      -5.419  -2.005   0.043  0.00  0.00    +0.044 C 
ENDBRANCH  12  13
ENDBRANCH  11  12
ENDBRANCH   6  11
BRANCH   3  20
ATOM     20  C   UNL     1       4.969   4.054  -0.028  0.00  0.00    -0.047 C 
BRANCH  20  21
ATOM     21  N   UNL     1       4.756   5.507  -0.019  0.00  0.00    +0.383 N 
ATOM     22  H   UNL     1       4.180   5.798  -0.910  0.00  0.00    -0.085 HD
ATOM     23  H   UNL     1       4.200   5.792   0.886  0.00  0.00    -0.085 HD
BRANCH  21  24
ATOM     24  C   UNL     1       6.037   6.227  -0.031  0.00  0.00    -0.051 C 
BRANCH  24  25
ATOM     25  C   UNL     1       5.775   7.734  -0.022  0.00  0.00    +0.095 C 
ATOM     26  C   UNL     1       7.102   8.483  -0.160  0.00  0.00    +0.035 C 
BRANCH  25  27
ATOM     27  O   UNL     1       5.146   8.101   1.207  0.00  0.00    -0.394 OA
ATOM     28  H   UNL     1       4.880   9.152   1.397  0.00  0.00    +0.210 HD
ENDBRANCH  25  27
ENDBRANCH  24  25
ENDBRANCH  21  24
ENDBRANCH  20  21
ENDBRANCH   3  20
TORSDOF 10
