REMARK  Name = ZINC12573416
REMARK  9 active torsions:
REMARK  status: ('A' for Active; 'I' for Inactive)
REMARK    1  A    between atoms: C_1  and  C_2
REMARK    2  A    between atoms: C_4  and  O_9
REMARK    3  A    between atoms: O_9  and  C_10
REMARK    4  A    between atoms: C_10  and  C_11
REMARK    5  A    between atoms: N_13  and  C_14
REMARK    6  A    between atoms: C_14  and  N_16
REMARK    7  A    between atoms: N_16  and  N_17
REMARK    8  A    between atoms: C_18  and  C_20
REMARK    9  A    between atoms: C_29  and  O_30
REMARK                            x       y       z     vdW  Elec       q    Type
REMARK                         _______ _______ _______ _____ _____    ______ ____
ROOT
ATOM      1  N   UNL     1      -3.133  -3.649   0.012  0.00  0.00    -0.245 N 
ATOM      2  H   UNL     1      -4.043  -3.985   0.019  0.00  0.00    +0.172 HD
ENDROOT
BRANCH   1   3
ATOM      3  N   UNL     1      -2.056  -4.545  -0.003  0.00  0.00    -0.231 N 
ATOM      4  C   UNL     1      -2.284  -5.873  -0.008  0.00  0.00    +0.264 C 
ATOM      5  O   UNL     1      -3.425  -6.294   0.001  0.00  0.00    -0.269 OA
ATOM      6  H   UNL     1      -1.146  -4.209  -0.010  0.00  0.00    +0.173 HD
BRANCH   4   7
ATOM      7  C   UNL     1      -1.149  -6.816  -0.024  0.00  0.00    +0.080 A 
ATOM      8  C   UNL     1       0.149  -6.332  -0.039  0.00  0.00    +0.025 A 
ATOM      9  C   UNL     1       1.222  -7.234  -0.049  0.00  0.00    -0.017 A 
ATOM     10  C   UNL     1       2.553  -6.777  -0.059  0.00  0.00    +0.008 A 
ATOM     11  C   UNL     1       3.574  -7.676  -0.075  0.00  0.00    +0.001 A 
ATOM     12  C   UNL     1       3.322  -9.047  -0.080  0.00  0.00    +0.001 A 
ATOM     13  C   UNL     1       2.049  -9.527  -0.070  0.00  0.00    +0.008 A 
ATOM     14  C   UNL     1       0.966  -8.629  -0.054  0.00  0.00    -0.014 A 
ATOM     15  C   UNL     1      -0.359  -9.095  -0.044  0.00  0.00    +0.054 A 
ATOM     16  C   UNL     1      -1.393  -8.206  -0.029  0.00  0.00    +0.130 A 
BRANCH  16  17
ATOM     17  O   UNL     1      -2.671  -8.663  -0.019  0.00  0.00    -0.506 OA
ATOM     18  H   UNL     1      -3.050  -8.791  -0.899  0.00  0.00    +0.292 HD
ENDBRANCH  16  17
ENDBRANCH   4   7
ENDBRANCH   1   3
BRANCH   1  19
ATOM     19  C   UNL     1      -2.904  -2.321   0.017  0.00  0.00    +0.153 C 
ATOM     20  S   UNL     1      -4.221  -1.226   0.036  0.00  0.00    -0.017 S 
BRANCH  19  23
ATOM     21  C   UNL     1      -1.412  -0.526   0.013  0.00  0.00    +0.256 C 
ATOM     22  O   UNL     1      -2.344   0.250   0.026  0.00  0.00    -0.272 OA
ATOM     23  N   UNL     1      -1.640  -1.854   0.008  0.00  0.00    -0.264 N 
ATOM     24  H   UNL     1      -0.894  -2.474  -0.003  0.00  0.00    +0.157 HD
BRANCH  21  25
ATOM     25  C   UNL     1       0.002  -0.004   0.002  0.00  0.00    +0.324 C 
BRANCH  25  26
ATOM     26  O   UNL     1      -0.017   1.425   0.010  0.00  0.00    -0.483 OA
BRANCH  26  30
ATOM     27  C   UNL     1       2.524   5.592   0.007  0.00  0.00    +0.045 C 
ATOM     28  C   UNL     1       2.463   4.086   0.000  0.00  0.00    -0.033 A 
ATOM     29  C   UNL     1       1.240   3.444   0.009  0.00  0.00    +0.050 A 
ATOM     30  C   UNL     1       1.185   2.058   0.002  0.00  0.00    +0.122 A 
ATOM     31  C   UNL     1       2.360   1.319  -0.008  0.00  0.00    +0.047 A 
ATOM     32  C   UNL     1       3.580   1.965  -0.022  0.00  0.00    +0.019 A 
ATOM     33  C   UNL     1       3.633   3.348  -0.015  0.00  0.00    +0.021 A 
ATOM     34 BR   UNL     1       5.306   4.229  -0.027  0.00  0.00    -0.050 Br
ENDBRANCH  26  30
ENDBRANCH  25  26
ENDBRANCH  21  25
ENDBRANCH  19  23
ENDBRANCH   1  19
TORSDOF 8
