REMARK  Name = ZINC00987518
REMARK  6 active torsions:
REMARK  status: ('A' for Active; 'I' for Inactive)
REMARK    1  A    between atoms: C_1  and  C_2
REMARK    2  A    between atoms: C_2  and  C_3
REMARK    3  A    between atoms: C_10  and  N_25
REMARK    4  A    between atoms: C_11  and  C_23
REMARK    5  A    between atoms: C_12  and  C_14
REMARK    6  A    between atoms: C_17  and  O_21
REMARK                            x       y       z     vdW  Elec       q    Type
REMARK                         _______ _______ _______ _____ _____    ______ ____
ROOT
ATOM      1  C   UNL     1       2.465   1.255  -0.816  0.00  0.00    +0.070 A 
ATOM      2  C   UNL     1       1.399   1.613  -0.003  0.00  0.00    +0.049 A 
ATOM      3  C   UNL     1       1.830   2.585   0.857  0.00  0.00    +0.222 A 
ATOM      4  N   UNL     1       3.122   2.824   0.584  0.00  0.00    -0.246 N 
ATOM      5  H   UNL     1       3.709   3.487   1.049  0.00  0.00    +0.192 HD
ATOM      6  N   UNL     1       3.503   1.978  -0.469  0.00  0.00    -0.176 NA
ATOM      7  O   UNL     1       1.022   3.149   1.789  0.00  0.00    -0.423 OA
ATOM      8  C   UNL     1      -0.155   2.542   2.044  0.00  0.00    +0.200 C 
ATOM      9  C   UNL     1      -0.690   1.579   1.262  0.00  0.00    +0.098 C 
ATOM     10  C   UNL     1      -0.013   1.086   0.008  0.00  0.00    +0.101 C 
ENDROOT
BRANCH  10  11
ATOM     11  C   UNL     1      -0.753   1.591  -1.203  0.00  0.00    -0.032 A 
ATOM     12  C   UNL     1      -0.904   2.951  -1.403  0.00  0.00    +0.023 A 
ATOM     13  C   UNL     1      -1.579   3.417  -2.515  0.00  0.00    +0.061 A 
ATOM     14  C   UNL     1      -2.115   2.518  -3.427  0.00  0.00    +0.145 A 
ATOM     15  C   UNL     1      -1.967   1.154  -3.222  0.00  0.00    +0.061 A 
ATOM     16  C   UNL     1      -1.286   0.693  -2.110  0.00  0.00    +0.023 A 
ATOM     17 BR   UNL     1      -2.696  -0.074  -4.461  0.00  0.00    -0.046 Br
ATOM     18 BR   UNL     1      -1.777   5.277  -2.792  0.00  0.00    -0.046 Br
BRANCH  14  19
ATOM     19  O   UNL     1      -2.783   2.974  -4.520  0.00  0.00    -0.505 OA
ATOM     20  H   UNL     1      -3.732   3.093  -4.379  0.00  0.00    +0.292 HD
ENDBRANCH  14  19
ENDBRANCH  10  11
BRANCH   8  21
ATOM     21  N   UNL     1      -0.851   2.926   3.164  0.00  0.00    -0.328 N 
ATOM     22  H   UNL     1      -0.493   3.616   3.745  0.00  0.00    +0.145 HD
ATOM     23  H   UNL     1      -1.701   2.509   3.374  0.00  0.00    +0.145 HD
ENDBRANCH   8  21
BRANCH   1  25
ATOM     24  C   UNL     1       2.039   0.878  -3.230  0.00  0.00    +0.010 C 
ATOM     25  C   UNL     1       2.435   0.217  -1.908  0.00  0.00    +0.054 C 
ENDBRANCH   1  25
BRANCH   9  26
ATOM     26  C   UNL     1      -1.947   1.005   1.638  0.00  0.00    +0.101 C 
ATOM     27  N   UNL     1      -2.944   0.549   1.936  0.00  0.00    -0.191 NA
ENDBRANCH   9  26
TORSDOF 5
