REMARK  Name = ZINC39676193
REMARK  5 active torsions:
REMARK  status: ('A' for Active; 'I' for Inactive)
REMARK    1  A    between atoms: C_11  and  C_13
REMARK    2  A    between atoms: C_13  and  N_14
REMARK    3  A    between atoms: C_15  and  C_17
REMARK    4  A    between atoms: C_28  and  C_30
REMARK    5  A    between atoms: C_35  and  C_36
REMARK                            x       y       z     vdW  Elec       q    Type
REMARK                         _______ _______ _______ _____ _____    ______ ____
ROOT
ATOM      1  C   UNL     1       8.283  -1.570   0.045  0.00  0.00    +0.100 C 
ATOM      2  C   UNL     1       8.136  -0.454   1.104  0.00  0.00    +0.121 C 
ATOM      3  N   UNL     1       9.142  -0.787   2.140  0.00  0.00    -0.296 N 
ATOM      4  C   UNL     1      10.318  -1.265   1.373  0.00  0.00    +0.115 C 
ATOM      5  C   UNL     1       9.717  -2.097   0.223  0.00  0.00    -0.004 C 
ATOM      6  C   UNL     1      10.520  -1.885  -1.057  0.00  0.00    -0.010 C 
ATOM      7  C   UNL     1      11.924  -2.470  -0.876  0.00  0.00    -0.082 C 
ATOM      8  N   UNL     1      11.824  -3.901  -0.568  0.00  0.00    +0.379 N 
ATOM      9  C   UNL     1      11.132  -4.091   0.712  0.00  0.00    -0.082 C 
ATOM     10  C   UNL     1       9.694  -3.575   0.598  0.00  0.00    -0.010 C 
ATOM     11  C   UNL     1       9.017  -0.678   3.478  0.00  0.00    +0.247 C 
ATOM     12  O   UNL     1       9.972  -0.897   4.197  0.00  0.00    -0.270 OA
ATOM     13  H   UNL     1      11.309  -4.367  -1.300  0.00  0.00    -0.086 HD
ATOM     14  H   UNL     1      12.751  -4.297  -0.509  0.00  0.00    -0.086 HD
ENDROOT
BRANCH  11  15
ATOM     15  C   UNL     1       7.718  -0.294   4.070  0.00  0.00    +0.049 A 
ATOM     16  C   UNL     1       6.904   0.640   3.428  0.00  0.00    +0.013 A 
ATOM     17  C   UNL     1       5.693   0.994   3.985  0.00  0.00    +0.001 A 
ATOM     18  C   UNL     1       5.284   0.425   5.178  0.00  0.00    +0.001 A 
ATOM     19  C   UNL     1       6.086  -0.502   5.820  0.00  0.00    +0.013 A 
ATOM     20  C   UNL     1       7.297  -0.869   5.270  0.00  0.00    +0.067 A 
BRANCH  20  21
ATOM     21  C   UNL     1       8.167  -1.883   5.968  0.00  0.00    +0.418 C 
ATOM     22  F   UNL     1       7.536  -2.310   7.141  0.00  0.00    -0.166 F 
ATOM     23  F   UNL     1       8.374  -2.979   5.123  0.00  0.00    -0.166 F 
ATOM     24  F   UNL     1       9.399  -1.300   6.285  0.00  0.00    -0.166 F 
ENDBRANCH  20  21
ENDBRANCH  11  15
BRANCH   1  26
ATOM     25  N   UNL     1       6.847  -3.433  -0.721  0.00  0.00    -0.308 N 
ATOM     26  C   UNL     1       7.285  -2.670   0.300  0.00  0.00    +0.219 C 
ATOM     27  O   UNL     1       6.876  -2.869   1.425  0.00  0.00    -0.275 OA
ATOM     28  H   UNL     1       7.174  -3.273  -1.620  0.00  0.00    +0.149 HD
BRANCH  25  29
ATOM     29  C   UNL     1       5.876  -4.502  -0.473  0.00  0.00    +0.178 C 
BRANCH  29  40
ATOM     30  C   UNL     1       5.357  -6.595  -6.489  0.00  0.00    +0.001 A 
ATOM     31  C   UNL     1       6.252  -5.535  -6.422  0.00  0.00    +0.002 A 
ATOM     32  C   UNL     1       6.526  -4.918  -5.222  0.00  0.00    +0.028 A 
ATOM     33  C   UNL     1       5.897  -5.362  -4.056  0.00  0.00    +0.078 A 
ATOM     34  C   UNL     1       4.987  -6.440  -4.129  0.00  0.00    +0.065 A 
ATOM     35  C   UNL     1       4.724  -7.051  -5.353  0.00  0.00    +0.015 A 
ATOM     36  C   UNL     1       4.343  -6.884  -2.884  0.00  0.00    +0.259 A 
ATOM     37  O   UNL     1       3.549  -7.807  -2.877  0.00  0.00    -0.267 OA
ATOM     38  N   UNL     1       4.666  -6.226  -1.746  0.00  0.00    -0.309 N 
ATOM     39  H   UNL     1       4.260  -6.491  -0.906  0.00  0.00    +0.170 HD
ATOM     40  C   UNL     1       5.554  -5.198  -1.770  0.00  0.00    +0.128 A 
ATOM     41  N   UNL     1       6.138  -4.784  -2.853  0.00  0.00    -0.232 NA
ENDBRANCH  29  40
ENDBRANCH  25  29
ENDBRANCH   1  26
TORSDOF 5
