REMARK  Name = ZINC36618838
REMARK  7 active torsions:
REMARK  status: ('A' for Active; 'I' for Inactive)
REMARK    1  A    between atoms: C_1  and  N_2
REMARK    2  A    between atoms: N_2  and  C_3
REMARK    3  A    between atoms: N_2  and  C_4
REMARK    4  A    between atoms: C_7  and  C_10
REMARK    5  A    between atoms: C_13  and  C_24
REMARK    6  A    between atoms: C_19  and  N_23
REMARK    7  A    between atoms: C_20  and  C_21
REMARK                            x       y       z     vdW  Elec       q    Type
REMARK                         _______ _______ _______ _____ _____    ______ ____
ROOT
ATOM      1  C   UNL     1      -0.013  -2.891  -4.979  0.00  0.00    +0.102 C 
ATOM      2  C   UNL     1       1.134  -2.370  -5.807  0.00  0.00    +0.054 A 
ATOM      3  C   UNL     1       2.507  -2.569  -5.640  0.00  0.00    +0.102 A 
ATOM      4  N   UNL     1       3.132  -1.919  -6.604  0.00  0.00    -0.171 NA
ATOM      5  N   UNL     1       2.169  -1.290  -7.408  0.00  0.00    -0.246 N 
ATOM      6  H   UNL     1       2.348  -0.743  -8.189  0.00  0.00    +0.192 HD
ATOM      7  C   UNL     1       0.951  -1.579  -6.904  0.00  0.00    +0.223 A 
ATOM      8  O   UNL     1      -0.277  -1.201  -7.339  0.00  0.00    -0.423 OA
ATOM      9  C   UNL     1      -1.346  -1.845  -6.827  0.00  0.00    +0.200 C 
ATOM     10  C   UNL     1      -1.293  -2.645  -5.738  0.00  0.00    +0.098 C 
ENDROOT
BRANCH   3  11
ATOM     11  C   UNL     1       3.150  -3.370  -4.569  0.00  0.00    +0.021 A 
ATOM     12  C   UNL     1       2.687  -4.652  -4.281  0.00  0.00    +0.011 A 
ATOM     13  C   UNL     1       3.288  -5.393  -3.284  0.00  0.00    +0.001 A 
ATOM     14  C   UNL     1       4.349  -4.865  -2.570  0.00  0.00    +0.001 A 
ATOM     15  C   UNL     1       4.814  -3.594  -2.851  0.00  0.00    +0.020 A 
ATOM     16  C   UNL     1       4.223  -2.845  -3.851  0.00  0.00    +0.050 A 
ATOM     17 CL   UNL     1       4.812  -1.251  -4.207  0.00  0.00    -0.083 Cl
ENDBRANCH   3  11
BRANCH   1  21
ATOM     18  C   UNL     1      -0.137  -0.836  -1.234  0.00  0.00    +0.029 A 
ATOM     19  C   UNL     1      -0.036  -2.221  -1.265  0.00  0.00    +0.023 A 
ATOM     20  C   UNL     1       0.004  -2.882  -2.477  0.00  0.00    +0.006 A 
ATOM     21  C   UNL     1      -0.057  -2.167  -3.659  0.00  0.00    -0.034 A 
ATOM     22  C   UNL     1      -0.158  -0.788  -3.631  0.00  0.00    +0.006 A 
ATOM     23  C   UNL     1      -0.203  -0.121  -2.423  0.00  0.00    +0.023 A 
BRANCH  18  25
ATOM     24  C   UNL     1      -0.290   1.296   0.021  0.00  0.00    +0.129 C 
ATOM     25  N   UNL     1      -0.177  -0.164  -0.010  0.00  0.00    -0.336 N 
ATOM     26  C   UNL     1      -0.107  -0.920   1.243  0.00  0.00    +0.129 C 
ENDBRANCH  18  25
ENDBRANCH   1  21
BRANCH   9  27
ATOM     27  N   UNL     1      -2.558  -1.679  -7.449  0.00  0.00    -0.328 N 
ATOM     28  H   UNL     1      -2.628  -1.112  -8.232  0.00  0.00    +0.145 HD
ATOM     29  H   UNL     1      -3.346  -2.130  -7.104  0.00  0.00    +0.145 HD
ENDBRANCH   9  27
BRANCH  10  30
ATOM     30  C   UNL     1      -2.494  -3.282  -5.289  0.00  0.00    +0.101 C 
ATOM     31  N   UNL     1      -3.447  -3.787  -4.933  0.00  0.00    -0.191 NA
ENDBRANCH  10  30
TORSDOF 5
