REMARK  Name = ZINC02326265
REMARK  8 active torsions:
REMARK  status: ('A' for Active; 'I' for Inactive)
REMARK    1  A    between atoms: C_1  and  N_2
REMARK    2  A    between atoms: C_6  and  C_7
REMARK    3  A    between atoms: N_8  and  N_9
REMARK    4  A    between atoms: C_10  and  C_12
REMARK    5  A    between atoms: C_12  and  S_13
REMARK    6  A    between atoms: S_13  and  C_14
REMARK    7  A    between atoms: C_17  and  C_25
REMARK    8  A    between atoms: N_18  and  C_19
REMARK                            x       y       z     vdW  Elec       q    Type
REMARK                         _______ _______ _______ _____ _____    ______ ____
ROOT
ATOM      1  C   UNL     1       2.565   4.530   0.002  0.00  0.00    +0.197 A 
ATOM      2  N   UNL     1       3.676   3.828  -0.013  0.00  0.00    -0.122 NA
ATOM      3  N   UNL     1       4.695   4.611  -0.019  0.00  0.00    -0.128 NA
ATOM      4  C   UNL     1       4.299   5.863  -0.008  0.00  0.00    +0.169 A 
ATOM      5  N   UNL     1       2.921   5.851   0.000  0.00  0.00    -0.270 N 
ENDROOT
BRANCH   4   6
ATOM      6  C   UNL     1       5.168   7.059  -0.010  0.00  0.00    +0.020 A 
ATOM      7  C   UNL     1       4.638   8.310   0.309  0.00  0.00    +0.012 A 
ATOM      8  C   UNL     1       5.455   9.422   0.311  0.00  0.00    +0.016 A 
ATOM      9  C   UNL     1       6.795   9.300  -0.014  0.00  0.00    +0.018 A 
ATOM     10  C   UNL     1       7.325   8.062  -0.337  0.00  0.00    +0.016 A 
ATOM     11  C   UNL     1       6.520   6.943  -0.337  0.00  0.00    +0.012 A 
ATOM     12 BR   UNL     1       7.906  10.830  -0.017  0.00  0.00    -0.050 Br
ENDBRANCH   4   6
BRANCH   5  13
ATOM     13  C   UNL     1       2.064   6.960   0.008  0.00  0.00    +0.051 A 
ATOM     14  C   UNL     1       2.035   7.824  -1.078  0.00  0.00    +0.026 A 
ATOM     15  C   UNL     1       1.186   8.914  -1.070  0.00  0.00    +0.002 A 
ATOM     16  C   UNL     1       0.372   9.149   0.023  0.00  0.00    +0.000 A 
ATOM     17  C   UNL     1       0.402   8.293   1.109  0.00  0.00    +0.002 A 
ATOM     18  C   UNL     1       1.246   7.199   1.104  0.00  0.00    +0.026 A 
ENDBRANCH   5  13
BRANCH   1  19
ATOM     19  S   UNL     1       0.924   3.890   0.014  0.00  0.00    -0.076 S 
BRANCH  19  20
ATOM     20  C   UNL     1       1.278   2.115   0.001  0.00  0.00    +0.174 C 
BRANCH  20  22
ATOM     21  N   UNL     1       0.002  -0.004   0.002  0.00  0.00    -0.206 N 
ATOM     22  C   UNL     1      -0.016   1.344   0.009  0.00  0.00    +0.242 C 
ATOM     23  O   UNL     1      -1.075   1.936   0.018  0.00  0.00    -0.273 OA
ATOM     24  H   UNL     1       0.849  -0.478  -0.009  0.00  0.00    +0.177 HD
BRANCH  21  26
ATOM     25  C   UNL     1      -1.184  -2.021   0.003  0.00  0.00    +0.156 C 
ATOM     26  N   UNL     1      -1.202  -0.721   0.010  0.00  0.00    -0.186 NA
BRANCH  25  32
ATOM     27  C   UNL     1      -1.470  -5.104  -0.011  0.00  0.00    +0.149 C 
ATOM     28  N   UNL     1      -2.574  -4.140   0.004  0.00  0.00    -0.349 N 
ATOM     29  C   UNL     1      -3.900  -4.451   0.015  0.00  0.00    +0.086 A 
ATOM     30  C   UNL     1      -4.616  -3.305   0.028  0.00  0.00    +0.020 A 
ATOM     31  C   UNL     1      -3.712  -2.233   0.032  0.00  0.00    +0.029 A 
ATOM     32  C   UNL     1      -2.444  -2.772   0.011  0.00  0.00    +0.061 A 
ENDBRANCH  25  32
ENDBRANCH  21  26
ENDBRANCH  20  22
ENDBRANCH  19  20
ENDBRANCH   1  19
TORSDOF 7
