REMARK  Name = ZINC02829696
REMARK  5 active torsions:
REMARK  status: ('A' for Active; 'I' for Inactive)
REMARK    1  A    between atoms: C_4  and  C_7
REMARK    2  A    between atoms: C_16  and  C_23
REMARK    3  A    between atoms: N_18  and  C_19
REMARK    4  A    between atoms: C_19  and  C_20
REMARK    5  A    between atoms: C_28  and  O_29
REMARK                            x       y       z     vdW  Elec       q    Type
REMARK                         _______ _______ _______ _____ _____    ______ ____
ROOT
ATOM      1  C   UNL     1       3.776  -0.853   0.178  0.00  0.00    -0.001 C 
ATOM      2  C   UNL     1       3.961  -1.353   1.586  0.00  0.00    -0.035 A 
ATOM      3  C   UNL     1       4.509  -0.518   2.543  0.00  0.00    +0.019 A 
ATOM      4  C   UNL     1       4.681  -0.968   3.840  0.00  0.00    +0.018 A 
ATOM      5  C   UNL     1       4.307  -2.254   4.187  0.00  0.00    +0.017 A 
ATOM      6  C   UNL     1       3.760  -3.094   3.236  0.00  0.00    +0.024 A 
ATOM      7  C   UNL     1       3.587  -2.643   1.935  0.00  0.00    +0.028 A 
ATOM      8  N   UNL     1       3.035  -3.491   0.965  0.00  0.00    -0.353 N 
ATOM      9  C   UNL     1       2.614  -2.895  -0.312  0.00  0.00    +0.053 C 
ATOM     10  N   UNL     1       3.674  -1.977  -0.757  0.00  0.00    +0.409 N 
ATOM     11 BR   UNL     1       5.432   0.179   5.143  0.00  0.00    -0.050 Br
ATOM     12  H   UNL     1       2.934  -4.441   1.131  0.00  0.00    +0.145 HD
ATOM     13  H   UNL     1       3.451  -1.629  -1.678  0.00  0.00    -0.076 HD
ENDROOT
BRANCH   1  17
ATOM     14  C   UNL     1       0.207   1.485  -0.030  0.00  0.00    +0.000 A 
ATOM     15  C   UNL     1       0.535   0.827   1.141  0.00  0.00    +0.000 A 
ATOM     16  C   UNL     1       1.690   0.070   1.208  0.00  0.00    +0.002 A 
ATOM     17  C   UNL     1       2.517  -0.029   0.105  0.00  0.00    -0.057 A 
ATOM     18  C   UNL     1       2.188   0.629  -1.066  0.00  0.00    +0.002 A 
ATOM     19  C   UNL     1       1.034   1.387  -1.133  0.00  0.00    +0.000 A 
ENDBRANCH   1  17
BRANCH   9  20
ATOM     20  C   UNL     1       2.414  -3.980  -1.339  0.00  0.00    -0.003 A 
ATOM     21  C   UNL     1       3.087  -5.181  -1.215  0.00  0.00    +0.007 A 
ATOM     22  C   UNL     1       2.904  -6.177  -2.157  0.00  0.00    +0.000 A 
ATOM     23  C   UNL     1       2.048  -5.974  -3.224  0.00  0.00    +0.004 A 
ATOM     24  C   UNL     1       1.373  -4.776  -3.351  0.00  0.00    +0.045 A 
ATOM     25  C   UNL     1       1.550  -3.777  -2.405  0.00  0.00    +0.120 A 
BRANCH  25  26
ATOM     26  O   UNL     1       0.883  -2.599  -2.525  0.00  0.00    -0.507 OA
ATOM     27  H   UNL     1       1.357  -1.929  -3.037  0.00  0.00    +0.292 HD
ENDBRANCH  25  26
ENDBRANCH   9  20
BRANCH  10  28
ATOM     28  C   UNL     1       4.955  -2.694  -0.802  0.00  0.00    +0.053 C 
BRANCH  28  29
ATOM     29  C   UNL     1       6.006  -1.807  -1.418  0.00  0.00    +0.340 C 
ATOM     30  O   UNL     1       5.694  -0.724  -1.883  0.00  0.00    -0.249 OA
ATOM     31  O   UNL     1       7.170  -2.171  -1.450  0.00  0.00    -0.249 OA
ENDBRANCH  28  29
ENDBRANCH  10  28
TORSDOF 5
