REMARK  Name = ZINC20206429
REMARK  9 active torsions:
REMARK  status: ('A' for Active; 'I' for Inactive)
REMARK    1  A    between atoms: C_1  and  C_2
REMARK    2  A    between atoms: C_6  and  O_8
REMARK    3  A    between atoms: O_8  and  C_9
REMARK    4  A    between atoms: C_9  and  C_10
REMARK    5  A    between atoms: C_10  and  C_11
REMARK    6  A    between atoms: C_11  and  N_12
REMARK    7  A    between atoms: N_12  and  C_13
REMARK    8  A    between atoms: N_12  and  C_14
REMARK    9  A    between atoms: C_23  and  O_25
REMARK                            x       y       z     vdW  Elec       q    Type
REMARK                         _______ _______ _______ _____ _____    ______ ____
ROOT
ATOM      1  C   UNL     1       0.772  -0.370   1.198  0.00  0.00    -0.008 C 
ATOM      2  C   UNL     1       0.098   0.167   2.442  0.00  0.00    -0.055 A 
ATOM      3  C   UNL     1      -1.004  -0.300   3.138  0.00  0.00    +0.002 A 
ATOM      4  C   UNL     1      -1.449   0.363   4.265  0.00  0.00    +0.000 A 
ATOM      5  C   UNL     1      -0.792   1.500   4.700  0.00  0.00    +0.000 A 
ATOM      6  C   UNL     1       0.307   1.968   4.007  0.00  0.00    +0.004 A 
ATOM      7  C   UNL     1       0.755   1.304   2.877  0.00  0.00    -0.037 A 
ATOM      8  C   UNL     1       1.912   1.603   1.955  0.00  0.00    +0.017 C 
ATOM      9  C   UNL     1       2.162   0.304   1.168  0.00  0.00    +0.116 C 
ATOM     10  C   UNL     1       1.551   2.734   0.996  0.00  0.00    -0.005 C 
ATOM     11  C   UNL     1       2.751   3.035   0.094  0.00  0.00    -0.082 C 
ATOM     12  N   UNL     1       3.906   3.403   0.923  0.00  0.00    +0.379 N 
ATOM     13  C   UNL     1       4.303   2.297   1.804  0.00  0.00    -0.082 C 
ATOM     14  C   UNL     1       3.155   1.971   2.763  0.00  0.00    -0.005 C 
ATOM     15  H   UNL     1       4.758   3.656   0.274  0.00  0.00    -0.086 HD
ATOM     16  H   UNL     1       3.649   4.272   1.546  0.00  0.00    -0.086 HD
ENDROOT
BRANCH   1  17
ATOM     17  N   UNL     1       0.002  -0.004   0.002  0.00  0.00    +0.384 N 
ATOM     18  C   UNL     1      -1.402  -0.414   0.135  0.00  0.00    -0.095 C 
ATOM     19  H   UNL     1       0.027   1.091  -0.094  0.00  0.00    -0.081 HD
BRANCH  17  20
ATOM     20  C   UNL     1       0.605  -0.577  -1.208  0.00  0.00    -0.075 C 
BRANCH  20  21
ATOM     21  C   UNL     1       0.112   0.190  -2.437  0.00  0.00    +0.022 C 
BRANCH  21  22
ATOM     22  C   UNL     1       0.740  -0.407  -3.698  0.00  0.00    +0.227 C 
BRANCH  22  23
ATOM     23  O   UNL     1       0.279   0.309  -4.845  0.00  0.00    -0.492 OA
BRANCH  23  29
ATOM     24  C   UNL     1       0.373   0.845  -9.695  0.00  0.00    +0.044 C 
ATOM     25  C   UNL     1       0.814   0.139  -8.439  0.00  0.00    -0.047 A 
ATOM     26  C   UNL     1       1.695  -0.924  -8.518  0.00  0.00    +0.003 A 
ATOM     27  C   UNL     1       2.102  -1.575  -7.368  0.00  0.00    +0.004 A 
ATOM     28  C   UNL     1       1.629  -1.163  -6.136  0.00  0.00    +0.045 A 
ATOM     29  C   UNL     1       0.745  -0.097  -6.055  0.00  0.00    +0.121 A 
ATOM     30  C   UNL     1       0.334   0.550  -7.211  0.00  0.00    +0.049 A 
ENDBRANCH  23  29
ENDBRANCH  22  23
ENDBRANCH  21  22
ENDBRANCH  20  21
ENDBRANCH  17  20
ENDBRANCH   1  17
BRANCH   9  31
ATOM     31  O   UNL     1       3.137  -0.511   1.820  0.00  0.00    -0.392 OA
ATOM     32  H   UNL     1       4.182  -0.173   1.885  0.00  0.00    +0.210 HD
ENDBRANCH   9  31
TORSDOF 7
