REMARK  Name = ZINC32697563
REMARK  8 active torsions:
REMARK  status: ('A' for Active; 'I' for Inactive)
REMARK    1  A    between atoms: C_1  and  O_2
REMARK    2  A    between atoms: O_2  and  C_3
REMARK    3  A    between atoms: C_6  and  C_11
REMARK    4  A    between atoms: C_8  and  O_9
REMARK    5  A    between atoms: O_9  and  C_10
REMARK    6  A    between atoms: C_17  and  C_19
REMARK    7  A    between atoms: C_19  and  S_20
REMARK    8  A    between atoms: S_20  and  C_21
REMARK                            x       y       z     vdW  Elec       q    Type
REMARK                         _______ _______ _______ _____ _____    ______ ____
ROOT
ATOM      1  C   UNL     1       4.091  11.779   0.028  0.00  0.00    +0.080 A 
ATOM      2  C   UNL     1       5.455  11.691   0.014  0.00  0.00    +0.076 A 
ATOM      3  S   UNL     1       5.671   9.916   0.009  0.00  0.00    -0.060 S 
ATOM      4  C   UNL     1       3.938   9.480   0.016  0.00  0.00    +0.165 A 
ATOM      5  N   UNL     1       3.367  10.670   0.029  0.00  0.00    -0.225 NA
ATOM      6  N   UNL     1       3.348   8.222   0.015  0.00  0.00    -0.264 N 
ATOM      7  C   UNL     1       4.118   7.116   0.001  0.00  0.00    +0.229 C 
ATOM      8  O   UNL     1       5.326   7.219  -0.011  0.00  0.00    -0.275 OA
ATOM      9  H   UNL     1       2.252   8.128   0.026  0.00  0.00    +0.157 HD
ENDROOT
BRANCH   1  13
ATOM     10  C   UNL     1       2.191  15.589   0.066  0.00  0.00    +0.162 A 
ATOM     11  C   UNL     1       3.570  15.502  -0.053  0.00  0.00    +0.050 A 
ATOM     12  C   UNL     1       4.188  14.268  -0.065  0.00  0.00    +0.014 A 
ATOM     13  C   UNL     1       3.427  13.106   0.042  0.00  0.00    +0.005 A 
ATOM     14  C   UNL     1       2.041  13.191   0.155  0.00  0.00    +0.059 A 
ATOM     15  C   UNL     1       1.426  14.431   0.173  0.00  0.00    +0.162 A 
BRANCH  10  17
ATOM     16  C   UNL     1       2.432  17.953  -0.037  0.00  0.00    +0.277 C 
ATOM     17  O   UNL     1       1.586  16.806   0.077  0.00  0.00    -0.491 OA
ENDBRANCH  10  17
BRANCH  15  18
ATOM     18  O   UNL     1       0.074  14.518   0.289  0.00  0.00    -0.491 OA
ATOM     19  C   UNL     1      -0.649  13.289   0.395  0.00  0.00    +0.277 C 
ENDBRANCH  15  18
ENDBRANCH   1  13
BRANCH   7  20
ATOM     20  C   UNL     1       3.478   5.752  -0.000  0.00  0.00    +0.173 C 
BRANCH  20  21
ATOM     21  S   UNL     1       4.766   4.481  -0.020  0.00  0.00    -0.078 S 
BRANCH  21  22
ATOM     22  C   UNL     1       3.766   3.030  -0.018  0.00  0.00    +0.170 A 
ATOM     23  N   UNL     1       4.378   1.814  -0.031  0.00  0.00    -0.301 N 
ATOM     24  H   UNL     1       5.477   1.752  -0.043  0.00  0.00    +0.171 HD
ATOM     25  C   UNL     1       3.696   0.645  -0.030  0.00  0.00    +0.261 A 
ATOM     26  O   UNL     1       4.262  -0.435  -0.041  0.00  0.00    -0.267 OA
ATOM     27  C   UNL     1       2.267   0.755  -0.015  0.00  0.00    +0.075 A 
ATOM     28  C   UNL     1       1.312  -0.341  -0.012  0.00  0.00    -0.023 A 
ATOM     29  C   UNL     1       0.002  -0.004   0.002  0.00  0.00    -0.004 A 
ATOM     30  S   UNL     1      -0.022   1.771   0.012  0.00  0.00    -0.073 S 
ATOM     31  C   UNL     1       1.719   2.058  -0.003  0.00  0.00    +0.117 A 
ATOM     32  N   UNL     1       2.447   3.168  -0.005  0.00  0.00    -0.216 NA
ATOM     33  C   UNL     1      -1.173  -0.932   0.007  0.00  0.00    +0.043 C 
ATOM     34  C   UNL     1      -0.687  -2.336  -0.379  0.00  0.00    +0.005 C 
ATOM     35  C   UNL     1       0.560  -2.666   0.446  0.00  0.00    +0.005 C 
ATOM     36  C   UNL     1       1.735  -1.808  -0.023  0.00  0.00    +0.037 C 
ENDBRANCH  21  22
ENDBRANCH  20  21
ENDBRANCH   7  20
TORSDOF 6
