REMARK  Name = ZINC18259378
REMARK  7 active torsions:
REMARK  status: ('A' for Active; 'I' for Inactive)
REMARK    1  A    between atoms: C_1  and  C_2
REMARK    2  A    between atoms: C_2  and  C_4
REMARK    3  A    between atoms: C_2  and  S_20
REMARK    4  A    between atoms: C_10  and  C_15
REMARK    5  A    between atoms: S_20  and  C_21
REMARK    6  A    between atoms: C_24  and  C_27
REMARK    7  A    between atoms: N_25  and  C_26
REMARK                            x       y       z     vdW  Elec       q    Type
REMARK                         _______ _______ _______ _____ _____    ______ ____
ROOT
ATOM      1  C   UNL     1       0.557   0.932   5.398  0.00  0.00    +0.027 C 
ATOM      2  C   UNL     1       1.453   1.929   4.659  0.00  0.00    +0.117 C 
ENDROOT
BRANCH   2   3
ATOM      3  C   UNL     1       2.840   1.889   5.247  0.00  0.00    +0.124 A 
ATOM      4  N   UNL     1       3.183   2.784   6.209  0.00  0.00    -0.309 N 
ATOM      5  H   UNL     1       2.530   3.437   6.505  0.00  0.00    +0.170 HD
ATOM      6  C   UNL     1       4.411   2.782   6.760  0.00  0.00    +0.260 A 
ATOM      7  O   UNL     1       4.703   3.592   7.623  0.00  0.00    -0.267 OA
ATOM      8  C   UNL     1       5.368   1.815   6.318  0.00  0.00    +0.083 A 
ATOM      9  C   UNL     1       6.745   1.612   6.755  0.00  0.00    +0.039 A 
ATOM     10  C   UNL     1       7.470   0.617   6.184  0.00  0.00    +0.059 A 
ATOM     11  S   UNL     1       6.331  -0.106   5.019  0.00  0.00    -0.076 S 
ATOM     12  C   UNL     1       4.924   0.931   5.321  0.00  0.00    +0.116 A 
ATOM     13  N   UNL     1       3.690   0.991   4.827  0.00  0.00    -0.225 NA
BRANCH   9  14
ATOM     14  C   UNL     1       7.338   2.473   7.798  0.00  0.00    +0.136 A 
ATOM     15  C   UNL     1       7.995   2.044   8.909  0.00  0.00    +0.050 A 
ATOM     16  C   UNL     1       8.391   3.197   9.618  0.00  0.00    +0.042 A 
ATOM     17  C   UNL     1       7.954   4.261   8.917  0.00  0.00    +0.196 A 
ATOM     18  O   UNL     1       7.318   3.820   7.817  0.00  0.00    -0.463 OA
ENDBRANCH   9  14
ENDBRANCH   2   3
BRANCH   2  19
ATOM     19  S   UNL     1       1.528   1.488   2.905  0.00  0.00    -0.075 S 
BRANCH  19  20
ATOM     20  C   UNL     1      -0.152   1.756   2.450  0.00  0.00    +0.192 A 
ATOM     21  N   UNL     1      -1.119   2.164   3.241  0.00  0.00    -0.122 NA
ATOM     22  N   UNL     1      -2.220   2.252   2.584  0.00  0.00    -0.128 NA
ATOM     23  C   UNL     1      -2.023   1.912   1.332  0.00  0.00    +0.165 A 
ATOM     24  N   UNL     1      -0.694   1.578   1.209  0.00  0.00    -0.305 N 
ATOM     25  C   UNL     1      -0.002   1.130  -0.003  0.00  0.00    +0.153 C 
BRANCH  23  26
ATOM     26  C   UNL     1      -3.038   1.889   0.257  0.00  0.00    +0.019 A 
ATOM     27  C   UNL     1      -4.208   2.639   0.383  0.00  0.00    +0.013 A 
ATOM     28  C   UNL     1      -5.149   2.619  -0.626  0.00  0.00    +0.021 A 
ATOM     29  C   UNL     1      -4.939   1.847  -1.756  0.00  0.00    +0.041 A 
ATOM     30  C   UNL     1      -3.782   1.097  -1.884  0.00  0.00    +0.021 A 
ATOM     31  C   UNL     1      -2.832   1.114  -0.885  0.00  0.00    +0.013 A 
ATOM     32 CL   UNL     1      -6.131   1.820  -3.018  0.00  0.00    -0.084 Cl
ENDBRANCH  23  26
ENDBRANCH  19  20
ENDBRANCH   2  19
TORSDOF 5
