REMARK  Name = ZINC44167737
REMARK  10 active torsions:
REMARK  status: ('A' for Active; 'I' for Inactive)
REMARK    1  A    between atoms: C_1  and  C_2
REMARK    2  A    between atoms: C_5  and  C_8
REMARK    3  A    between atoms: C_8  and  C_9
REMARK    4  A    between atoms: C_9  and  N_10
REMARK    5  A    between atoms: C_11  and  C_13
REMARK    6  A    between atoms: C_18  and  C_21
REMARK    7  A    between atoms: C_24  and  O_29
REMARK    8  A    between atoms: C_26  and  O_27
REMARK    9  A    between atoms: O_27  and  C_28
REMARK   10  A    between atoms: O_29  and  C_30
REMARK                            x       y       z     vdW  Elec       q    Type
REMARK                         _______ _______ _______ _____ _____    ______ ____
ROOT
ATOM      1  C   UNL     1       2.723  -8.397  -0.059  0.00  0.00    +0.027 C 
ATOM      2  C   UNL     1       2.010  -8.923   1.193  0.00  0.00    +0.062 C 
ATOM      3  S   UNL     1       1.992 -10.741   1.118  0.00  0.00    -0.163 S 
ATOM      4  C   UNL     1       3.730 -11.142   0.758  0.00  0.00    +0.058 C 
ATOM      5  C   UNL     1       4.186 -10.285  -0.428  0.00  0.00    -0.026 C 
ATOM      6  N   UNL     1       4.110  -8.866  -0.073  0.00  0.00    +0.392 N 
ATOM      7  H   UNL     1       4.633  -8.328  -0.747  0.00  0.00    -0.084 HD
ATOM      8  H   UNL     1       4.514  -8.731   0.842  0.00  0.00    -0.084 HD
ENDROOT
BRANCH   5   9
ATOM      9  C   UNL     1       5.608 -10.635  -0.783  0.00  0.00    -0.019 A 
ATOM     10  C   UNL     1       6.652  -9.894  -0.263  0.00  0.00    +0.009 A 
ATOM     11  C   UNL     1       7.957 -10.212  -0.586  0.00  0.00    +0.046 A 
ATOM     12  C   UNL     1       8.222 -11.279  -1.433  0.00  0.00    +0.124 A 
ATOM     13  C   UNL     1       7.177 -12.024  -1.956  0.00  0.00    +0.091 A 
ATOM     14  C   UNL     1       5.869 -11.705  -1.626  0.00  0.00    +0.125 A 
BRANCH  14  15
ATOM     15  O   UNL     1       4.842 -12.438  -2.132  0.00  0.00    -0.495 OA
ATOM     16  C   UNL     1       5.184 -13.525  -2.994  0.00  0.00    +0.277 C 
ENDBRANCH  14  15
BRANCH  12  17
ATOM     17  O   UNL     1       9.506 -11.591  -1.751  0.00  0.00    -0.495 OA
ATOM     18  C   UNL     1      10.533 -10.780  -1.177  0.00  0.00    +0.277 C 
ENDBRANCH  12  17
ENDBRANCH   5   9
BRANCH   1  20
ATOM     19  N   UNL     1       1.527  -6.231  -0.040  0.00  0.00    -0.316 N 
ATOM     20  C   UNL     1       2.703  -6.890  -0.050  0.00  0.00    +0.200 C 
ATOM     21  O   UNL     1       3.745  -6.270  -0.053  0.00  0.00    -0.278 OA
ATOM     22  H   UNL     1       0.694  -6.727  -0.038  0.00  0.00    +0.149 HD
BRANCH  19  23
ATOM     23  C   UNL     1       1.508  -4.767  -0.032  0.00  0.00    +0.109 C 
BRANCH  23  24
ATOM     24  C   UNL     1       0.059  -4.275  -0.021  0.00  0.00    +0.054 C 
BRANCH  24  29
ATOM     25  C   UNL     1      -0.018   1.503   0.010  0.00  0.00    +0.044 C 
ATOM     26  C   UNL     1       0.002  -0.004   0.002  0.00  0.00    -0.050 A 
ATOM     27  C   UNL     1       0.006  -0.689  -1.199  0.00  0.00    +0.003 A 
ATOM     28  C   UNL     1       0.025  -2.071  -1.206  0.00  0.00    +0.004 A 
ATOM     29  C   UNL     1       0.040  -2.768  -0.013  0.00  0.00    -0.046 A 
ATOM     30  C   UNL     1       0.037  -2.084   1.188  0.00  0.00    +0.004 A 
ATOM     31  C   UNL     1       0.023  -0.702   1.195  0.00  0.00    +0.003 A 
ENDBRANCH  24  29
ENDBRANCH  23  24
ENDBRANCH  19  23
ENDBRANCH   1  20
TORSDOF 7
