REMARK  Name = ZINC12878667
REMARK  7 active torsions:
REMARK  status: ('A' for Active; 'I' for Inactive)
REMARK    1  A    between atoms: C_1  and  C_2
REMARK    2  A    between atoms: C_2  and  C_4
REMARK    3  A    between atoms: C_10  and  C_31
REMARK    4  A    between atoms: C_21  and  C_28
REMARK    5  A    between atoms: C_24  and  O_27
REMARK    6  A    between atoms: C_33  and  C_35
REMARK    7  A    between atoms: C_33  and  C_36
REMARK                            x       y       z     vdW  Elec       q    Type
REMARK                         _______ _______ _______ _____ _____    ______ ____
ROOT
ATOM      1  C   UNL     1       2.159   2.627  -5.657  0.00  0.00    +0.161 C 
ATOM      2  C   UNL     1       3.539   2.650  -4.936  0.00  0.00    +0.162 C 
ATOM      3  C   UNL     1       3.232   2.612  -3.414  0.00  0.00    +0.039 C 
ATOM      4  C   UNL     1       1.842   1.970  -3.357  0.00  0.00    +0.004 C 
ATOM      5  C   UNL     1       1.123   2.671  -4.541  0.00  0.00    +0.010 C 
ATOM      6  C   UNL     1      -0.174   1.925  -4.791  0.00  0.00    +0.010 C 
ATOM      7  C   UNL     1      -1.051   2.095  -3.540  0.00  0.00    +0.005 C 
ATOM      8  C   UNL     1      -0.340   1.587  -2.290  0.00  0.00    -0.000 C 
ATOM      9  C   UNL     1       1.030   2.258  -2.108  0.00  0.00    -0.001 C 
ATOM     10  C   UNL     1       1.719   1.665  -0.878  0.00  0.00    +0.042 C 
ATOM     11  C   UNL     1       0.859   1.922   0.361  0.00  0.00    +0.183 C 
ATOM     12  C   UNL     1      -0.510   1.265   0.180  0.00  0.00    +0.065 C 
ATOM     13  C   UNL     1      -1.200   1.853  -1.053  0.00  0.00    -0.011 C 
ATOM     14  C   UNL     1      -2.571   1.197  -1.232  0.00  0.00    +0.011 C 
ATOM     15  C   UNL     1      -3.429   1.459   0.007  0.00  0.00    +0.032 C 
ATOM     16  C   UNL     1      -2.739   0.869   1.239  0.00  0.00    +0.116 C 
ATOM     17  C   UNL     1      -1.370   1.527   1.418  0.00  0.00    +0.053 C 
ATOM     18  C   UNL     1      -1.376   3.362  -0.868  0.00  0.00    +0.013 C 
ATOM     19 BR   UNL     1      -0.281  -0.673  -0.060  0.00  0.00    -0.081 Br
ATOM     20  F   UNL     1       1.490   1.380   1.486  0.00  0.00    -0.244 F 
ATOM     21  C   UNL     1       0.820   4.125  -4.174  0.00  0.00    +0.015 C 
ATOM     22  O   UNL     1       4.157   1.396  -5.295  0.00  0.00    -0.343 OA
ATOM     23  C   UNL     1       3.502   0.994  -6.517  0.00  0.00    +0.166 C 
ATOM     24  O   UNL     1       2.117   1.349  -6.322  0.00  0.00    -0.332 OA
ATOM     25  C   UNL     1       3.642  -0.515  -6.725  0.00  0.00    +0.074 C 
ATOM     26  C   UNL     1       4.086   1.755  -7.710  0.00  0.00    +0.074 C 
ENDROOT
BRANCH   1  28
ATOM     27  C   UNL     1       1.069   3.647  -7.798  0.00  0.00    +0.089 C 
ATOM     28  C   UNL     1       2.011   3.769  -6.628  0.00  0.00    +0.165 C 
ATOM     29  O   UNL     1       2.649   4.783  -6.470  0.00  0.00    -0.295 OA
ENDBRANCH   1  28
BRANCH  16  30
ATOM     30  O   UNL     1      -2.571  -0.539   1.063  0.00  0.00    -0.392 OA
ATOM     31  H   UNL     1      -3.401  -1.021   0.942  0.00  0.00    +0.210 HD
ENDBRANCH  16  30
TORSDOF 2
