REMARK  Name = ZINC38705645
REMARK  11 active torsions:
REMARK  status: ('A' for Active; 'I' for Inactive)
REMARK    1  A    between atoms: C_1  and  C_2
REMARK    2  A    between atoms: C_2  and  C_3
REMARK    3  A    between atoms: C_3  and  N_4
REMARK    4  A    between atoms: C_5  and  C_24
REMARK    5  A    between atoms: C_8  and  C_15
REMARK    6  A    between atoms: C_16  and  C_23
REMARK    7  A    between atoms: C_18  and  C_22
REMARK    8  A    between atoms: C_20  and  O_21
REMARK    9  A    between atoms: C_28  and  O_30
REMARK   10  A    between atoms: O_30  and  C_31
REMARK   11  A    between atoms: C_31  and  C_32
REMARK                            x       y       z     vdW  Elec       q    Type
REMARK                         _______ _______ _______ _____ _____    ______ ____
ROOT
ATOM      1  N   UNL     1       0.815  -2.029  -1.249  0.00  0.00    -0.285 N 
ATOM      2  C   UNL     1       1.788  -2.928  -0.614  0.00  0.00    +0.141 C 
ATOM      3  C   UNL     1       1.335  -4.326  -0.935  0.00  0.00    +0.035 A 
ATOM      4  C   UNL     1       1.564  -5.699  -0.802  0.00  0.00    +0.102 A 
ATOM      5  N   UNL     1       0.602  -6.324  -1.451  0.00  0.00    -0.173 NA
ATOM      6  N   UNL     1      -0.212  -5.482  -1.981  0.00  0.00    -0.272 N 
ATOM      7  H   UNL     1      -0.995  -5.716  -2.504  0.00  0.00    +0.189 HD
ATOM      8  C   UNL     1       0.188  -4.207  -1.696  0.00  0.00    +0.126 A 
ATOM      9  C   UNL     1      -0.112  -2.781  -1.870  0.00  0.00    +0.265 C 
ATOM     10  O   UNL     1      -1.062  -2.342  -2.489  0.00  0.00    -0.268 OA
ENDROOT
BRANCH   4  11
ATOM     11  C   UNL     1       2.684  -6.336  -0.066  0.00  0.00    +0.047 A 
ATOM     12  C   UNL     1       3.441  -7.335  -0.672  0.00  0.00    -0.037 A 
ATOM     13  C   UNL     1       4.483  -7.924   0.016  0.00  0.00    +0.007 A 
ATOM     14  C   UNL     1       4.778  -7.525   1.307  0.00  0.00    -0.047 A 
ATOM     15  C   UNL     1       4.033  -6.534   1.919  0.00  0.00    +0.049 A 
ATOM     16  C   UNL     1       2.989  -5.931   1.237  0.00  0.00    +0.127 A 
ATOM     17  C   UNL     1       5.917  -8.174   2.051  0.00  0.00    +0.044 C 
ATOM     18  C   UNL     1       3.123  -7.774  -2.079  0.00  0.00    +0.044 C 
BRANCH  16  19
ATOM     19  O   UNL     1       2.259  -4.953   1.835  0.00  0.00    -0.506 OA
ATOM     20  H   UNL     1       1.539  -5.283   2.389  0.00  0.00    +0.292 HD
ENDBRANCH  16  19
ENDBRANCH   4  11
BRANCH   2  21
ATOM     21  C   UNL     1       3.164  -2.684  -1.178  0.00  0.00    -0.019 A 
ATOM     22  C   UNL     1       3.334  -2.535  -2.542  0.00  0.00    +0.006 A 
ATOM     23  C   UNL     1       4.595  -2.311  -3.063  0.00  0.00    +0.004 A 
ATOM     24  C   UNL     1       5.689  -2.238  -2.222  0.00  0.00    +0.045 A 
ATOM     25  C   UNL     1       5.520  -2.388  -0.853  0.00  0.00    +0.121 A 
ATOM     26  C   UNL     1       4.253  -2.605  -0.332  0.00  0.00    +0.051 A 
BRANCH  25  27
ATOM     27  O   UNL     1       6.594  -2.315  -0.023  0.00  0.00    -0.492 OA
BRANCH  27  28
ATOM     28  C   UNL     1       7.867  -2.083  -0.629  0.00  0.00    +0.225 C 
ATOM     29  C   UNL     1       8.946  -2.034   0.455  0.00  0.00    +0.048 C 
ENDBRANCH  27  28
ENDBRANCH  25  27
ENDBRANCH   2  21
BRANCH   1  30
ATOM     30  C   UNL     1       0.845  -0.565  -1.208  0.00  0.00    +0.109 C 
BRANCH  30  32
ATOM     31  C   UNL     1       0.092   1.456   0.054  0.00  0.00    +0.005 C 
ATOM     32  C   UNL     1       0.061  -0.073   0.011  0.00  0.00    +0.016 C 
ENDBRANCH  30  32
ENDBRANCH   1  30
TORSDOF 7
