REMARK  Name = ZINC41585981
REMARK  10 active torsions:
REMARK  status: ('A' for Active; 'I' for Inactive)
REMARK    1  A    between atoms: C_1  and  C_2
REMARK    2  A    between atoms: C_2  and  C_3
REMARK    3  A    between atoms: C_3  and  O_4
REMARK    4  A    between atoms: O_4  and  C_5
REMARK    5  A    between atoms: C_5  and  C_7
REMARK    6  A    between atoms: C_10  and  O_13
REMARK    7  A    between atoms: O_13  and  C_14
REMARK    8  A    between atoms: C_23  and  O_38
REMARK    9  A    between atoms: C_24  and  C_25
REMARK   10  A    between atoms: C_25  and  N_26
REMARK                            x       y       z     vdW  Elec       q    Type
REMARK                         _______ _______ _______ _____ _____    ______ ____
ROOT
ATOM      1  C   UNL     1       2.154  -8.714  -3.687  0.00  0.00    +0.210 A 
ATOM      2  C   UNL     1       2.804  -8.021  -4.643  0.00  0.00    +0.245 A 
ATOM      3  O   UNL     1       3.459  -8.614  -5.649  0.00  0.00    -0.459 OA
ATOM      4  C   UNL     1       3.519  -9.954  -5.782  0.00  0.00    +0.147 A 
ATOM      5  C   UNL     1       2.877 -10.779  -4.840  0.00  0.00    +0.068 A 
ATOM      6  C   UNL     1       2.157 -10.137  -3.727  0.00  0.00    +0.235 A 
ATOM      7  O   UNL     1       1.585 -10.797  -2.876  0.00  0.00    -0.283 OA
ATOM      8  C   UNL     1       2.933 -12.167  -4.966  0.00  0.00    +0.019 A 
ATOM      9  C   UNL     1       3.615 -12.726  -6.010  0.00  0.00    +0.046 A 
ATOM     10  C   UNL     1       4.254 -11.917  -6.947  0.00  0.00    +0.125 A 
ATOM     11  C   UNL     1       4.207 -10.537  -6.836  0.00  0.00    +0.051 A 
ENDROOT
BRANCH  10  12
ATOM     12  O   UNL     1       4.928 -12.487  -7.979  0.00  0.00    -0.506 OA
ATOM     13  H   UNL     1       4.387 -12.637  -8.767  0.00  0.00    +0.292 HD
ENDBRANCH  10  12
BRANCH   1  14
ATOM     14  O   UNL     1       1.505  -8.057  -2.687  0.00  0.00    -0.449 OA
BRANCH  14  18
ATOM     15  C   UNL     1      -2.612  -8.317  -2.554  0.00  0.00    +0.059 A 
ATOM     16  C   UNL     1      -1.909  -8.876  -3.625  0.00  0.00    +0.018 A 
ATOM     17  C   UNL     1      -0.536  -8.788  -3.666  0.00  0.00    +0.047 A 
ATOM     18  C   UNL     1       0.151  -8.143  -2.643  0.00  0.00    +0.129 A 
ATOM     19  C   UNL     1      -0.544  -7.586  -1.576  0.00  0.00    +0.047 A 
ATOM     20  C   UNL     1      -1.918  -7.665  -1.531  0.00  0.00    +0.018 A 
BRANCH  15  21
ATOM     21  C   UNL     1      -4.083  -8.410  -2.506  0.00  0.00    +0.339 C 
ATOM     22  O   UNL     1      -4.693  -7.919  -1.577  0.00  0.00    -0.245 OA
BRANCH  21  23
ATOM     23  O   UNL     1      -4.751  -9.039  -3.493  0.00  0.00    -0.461 OA
BRANCH  23  24
ATOM     24  C   UNL     1      -6.175  -9.091  -3.383  0.00  0.00    +0.232 C 
BRANCH  24  26
ATOM     25  C   UNL     1      -8.277  -9.895  -4.468  0.00  0.00    +0.007 C 
ATOM     26  C   UNL     1      -6.753  -9.839  -4.586  0.00  0.00    +0.038 C 
ENDBRANCH  24  26
ENDBRANCH  23  24
ENDBRANCH  21  23
ENDBRANCH  15  21
ENDBRANCH  14  18
ENDBRANCH   1  14
BRANCH  11  27
ATOM     27  C   UNL     1       4.902  -9.673  -7.857  0.00  0.00    +0.127 C 
BRANCH  27  28
ATOM     28  N   UNL     1       6.281  -9.415  -7.422  0.00  0.00    -0.295 NA
ATOM     29  C   UNL     1       6.305  -8.608  -6.195  0.00  0.00    +0.103 C 
ATOM     30  C   UNL     1       7.744  -8.514  -5.677  0.00  0.00    +0.122 C 
ATOM     31  N   UNL     1       8.601  -8.018  -6.764  0.00  0.00    -0.314 N 
ATOM     32  C   UNL     1       8.530  -8.693  -8.069  0.00  0.00    +0.122 C 
ATOM     33  C   UNL     1       7.060  -8.779  -8.493  0.00  0.00    +0.103 C 
ATOM     34  C   UNL     1       9.455  -6.940  -6.563  0.00  0.00    +0.099 A 
ATOM     35  C   UNL     1       9.600  -6.402  -5.288  0.00  0.00    +0.042 A 
ATOM     36  C   UNL     1      10.453  -5.330  -5.103  0.00  0.00    +0.005 A 
ATOM     37  C   UNL     1      11.137  -4.830  -6.204  0.00  0.00    +0.018 A 
ATOM     38  C   UNL     1      10.946  -5.412  -7.440  0.00  0.00    +0.084 A 
ATOM     39  N   UNL     1      10.129  -6.438  -7.587  0.00  0.00    -0.350 N 
ATOM     40  H   UNL     1      10.016  -6.831  -8.466  0.00  0.00    +0.166 HD
ENDBRANCH  27  28
ENDBRANCH  11  27
TORSDOF 9
