REMARK  Name = ZINC00918365
REMARK  12 active torsions:
REMARK  status: ('A' for Active; 'I' for Inactive)
REMARK    1  A    between atoms: C_1  and  C_2
REMARK    2  A    between atoms: C_2  and  O_3
REMARK    3  A    between atoms: O_3  and  C_4
REMARK    4  A    between atoms: C_4  and  C_6
REMARK    5  A    between atoms: C_9  and  S_12
REMARK    6  A    between atoms: S_12  and  N_15
REMARK    7  A    between atoms: N_15  and  C_16
REMARK    8  A    between atoms: N_15  and  C_31
REMARK    9  A    between atoms: C_16  and  C_17
REMARK   10  A    between atoms: C_21  and  O_29
REMARK   11  A    between atoms: O_29  and  C_30
REMARK   12  A    between atoms: C_31  and  C_32
REMARK                            x       y       z     vdW  Elec       q    Type
REMARK                         _______ _______ _______ _____ _____    ______ ____
ROOT
ATOM      1  N   UNL     1      -0.721   1.571  -1.179  0.00  0.00    -0.170 NA
ENDROOT
BRANCH   1   2
ATOM      2  S   UNL     1      -1.847   0.610  -1.921  0.00  0.00    +0.061 S 
ATOM      3  O   UNL     1      -1.937   1.056  -3.268  0.00  0.00    -0.153 OA
ATOM      4  O   UNL     1      -1.523  -0.731  -1.583  0.00  0.00    -0.153 OA
BRANCH   2   8
ATOM      5  C   UNL     1      -5.851   1.502   0.005  0.00  0.00    +0.059 A 
ATOM      6  C   UNL     1      -5.431   2.230  -1.109  0.00  0.00    +0.017 A 
ATOM      7  C   UNL     1      -4.211   1.954  -1.691  0.00  0.00    +0.029 A 
ATOM      8  C   UNL     1      -3.404   0.957  -1.172  0.00  0.00    +0.106 A 
ATOM      9  C   UNL     1      -3.815   0.228  -0.071  0.00  0.00    +0.029 A 
ATOM     10  C   UNL     1      -5.031   0.497   0.524  0.00  0.00    +0.017 A 
BRANCH   5  11
ATOM     11  C   UNL     1      -7.155   1.792   0.634  0.00  0.00    +0.339 C 
ATOM     12  O   UNL     1      -7.866   2.667   0.181  0.00  0.00    -0.245 OA
BRANCH  11  13
ATOM     13  O   UNL     1      -7.557   1.088   1.709  0.00  0.00    -0.461 OA
BRANCH  13  15
ATOM     14  C   UNL     1      -9.133   0.528   3.480  0.00  0.00    +0.048 C 
ATOM     15  C   UNL     1      -8.851   1.428   2.275  0.00  0.00    +0.229 C 
ENDBRANCH  13  15
ENDBRANCH  11  13
ENDBRANCH   5  11
ENDBRANCH   2   8
ENDBRANCH   1   2
BRANCH   1  16
ATOM     16  C   UNL     1      -0.013   1.086   0.008  0.00  0.00    +0.150 C 
BRANCH  16  17
ATOM     17  C   UNL     1      -0.718   1.572   1.248  0.00  0.00    +0.033 A 
ATOM     18  C   UNL     1      -1.632   0.779   1.860  0.00  0.00    +0.020 A 
ATOM     19  C   UNL     1      -2.296   1.278   3.065  0.00  0.00    +0.002 A 
ATOM     20  C   UNL     1      -3.244   0.502   3.741  0.00  0.00    +0.055 A 
ATOM     21  C   UNL     1      -3.856   1.006   4.871  0.00  0.00    +0.121 A 
ATOM     22  C   UNL     1      -3.534   2.278   5.338  0.00  0.00    +0.047 A 
ATOM     23  C   UNL     1      -2.602   3.051   4.681  0.00  0.00    +0.030 A 
ATOM     24  C   UNL     1      -1.974   2.563   3.540  0.00  0.00    +0.049 A 
ATOM     25  N   UNL     1      -1.038   3.322   2.868  0.00  0.00    -0.322 N 
ATOM     26  H   UNL     1      -0.809   4.235   3.206  0.00  0.00    +0.169 HD
ATOM     27  C   UNL     1      -0.429   2.853   1.764  0.00  0.00    +0.254 A 
ATOM     28  O   UNL     1       0.392   3.552   1.196  0.00  0.00    -0.268 OA
BRANCH  21  29
ATOM     29  O   UNL     1      -4.778   0.256   5.532  0.00  0.00    -0.495 OA
ATOM     30  C   UNL     1      -5.373   0.837   6.695  0.00  0.00    +0.277 C 
ENDBRANCH  21  29
ENDBRANCH  16  17
ENDBRANCH   1  16
BRANCH   1  31
ATOM     31  C   UNL     1      -0.434   2.906  -1.709  0.00  0.00    +0.141 C 
BRANCH  31  32
ATOM     32  C   UNL     1       0.777   2.835  -2.641  0.00  0.00    +0.134 C 
ATOM     33  C   UNL     1       1.152   4.247  -3.144  0.00  0.00    +0.035 C 
ATOM     34  C   UNL     1       1.591   4.019  -4.608  0.00  0.00    +0.031 C 
ATOM     35  C   UNL     1       1.429   2.497  -4.816  0.00  0.00    +0.160 C 
ATOM     36  O   UNL     1       0.450   2.090  -3.834  0.00  0.00    -0.375 OA
ENDBRANCH  31  32
ENDBRANCH   1  31
TORSDOF 10
