REMARK  Name = ZINC22611946
REMARK  9 active torsions:
REMARK  status: ('A' for Active; 'I' for Inactive)
REMARK    1  A    between atoms: C_1  and  C_2
REMARK    2  A    between atoms: C_3  and  C_24
REMARK    3  A    between atoms: C_4  and  C_14
REMARK    4  A    between atoms: C_16  and  O_22
REMARK    5  A    between atoms: C_17  and  O_21
REMARK    6  A    between atoms: O_22  and  C_23
REMARK    7  A    between atoms: C_24  and  O_26
REMARK    8  A    between atoms: O_26  and  C_27
REMARK    9  A    between atoms: C_27  and  C_28
REMARK                            x       y       z     vdW  Elec       q    Type
REMARK                         _______ _______ _______ _____ _____    ______ ____
ROOT
ATOM      1  C   UNL     1       5.955   2.963   1.068  0.00  0.00    +0.061 C 
ATOM      2  C   UNL     1       5.588   1.841   2.004  0.00  0.00    +0.016 C 
ATOM      3  C   UNL     1       4.346   1.327   1.975  0.00  0.00    +0.065 C 
ATOM      4  C   UNL     1       3.946   0.208   2.891  0.00  0.00    +0.092 C 
ATOM      5  C   UNL     1       4.912   0.073   4.039  0.00  0.00    +0.024 C 
ATOM      6  C   UNL     1       6.136   0.639   3.980  0.00  0.00    +0.015 C 
ATOM      7  N   UNL     1       6.520   1.353   2.877  0.00  0.00    -0.321 N 
ATOM      8  C   UNL     1       7.113   0.497   5.121  0.00  0.00    +0.051 C 
ATOM      9  C   UNL     1       6.347   0.393   6.442  0.00  0.00    +0.014 C 
ATOM     10  C   UNL     1       5.403  -0.811   6.364  0.00  0.00    +0.080 C 
ATOM     11  C   UNL     1       4.500  -0.649   5.172  0.00  0.00    +0.162 C 
ATOM     12  O   UNL     1       3.394  -1.152   5.190  0.00  0.00    -0.292 OA
ATOM     13  H   UNL     1       7.590   1.532   2.696  0.00  0.00    +0.152 HD
ENDROOT
BRANCH   4  14
ATOM     14  C   UNL     1       3.925  -1.084   2.114  0.00  0.00    -0.030 A 
ATOM     15  C   UNL     1       2.751  -1.809   2.014  0.00  0.00    +0.054 A 
ATOM     16  C   UNL     1       2.730  -2.997   1.300  0.00  0.00    +0.163 A 
ATOM     17  C   UNL     1       3.890  -3.457   0.686  0.00  0.00    +0.177 A 
ATOM     18  C   UNL     1       5.063  -2.726   0.791  0.00  0.00    +0.086 A 
ATOM     19  C   UNL     1       5.076  -1.538   1.500  0.00  0.00    +0.028 A 
ATOM     20 CL   UNL     1       6.513  -3.297   0.026  0.00  0.00    -0.080 Cl
BRANCH  17  21
ATOM     21  O   UNL     1       3.874  -4.623  -0.015  0.00  0.00    -0.502 OA
ATOM     22  H   UNL     1       4.792  -4.986  -0.500  0.00  0.00    +0.292 HD
ENDBRANCH  17  21
BRANCH  16  23
ATOM     23  O   UNL     1       1.577  -3.711   1.201  0.00  0.00    -0.491 OA
ATOM     24  C   UNL     1       0.425  -3.177   1.857  0.00  0.00    +0.277 C 
ENDBRANCH  16  23
ENDBRANCH   4  14
BRANCH   3  25
ATOM     25  C   UNL     1       3.398   1.854   1.068  0.00  0.00    +0.338 C 
ATOM     26  O   UNL     1       3.675   2.832   0.399  0.00  0.00    -0.245 OA
BRANCH  25  27
ATOM     27  O   UNL     1       2.186   1.274   0.946  0.00  0.00    -0.457 OA
BRANCH  27  28
ATOM     28  C   UNL     1       1.277   1.859   0.011  0.00  0.00    +0.259 C 
BRANCH  28  29
ATOM     29  C   UNL     1      -0.014   1.083   0.011  0.00  0.00    +0.006 C 
ATOM     30  C   UNL     1      -1.160   1.717   0.027  0.00  0.00    +0.007 C 
ENDBRANCH  28  29
ENDBRANCH  27  28
ENDBRANCH  25  27
ENDBRANCH   3  25
TORSDOF 7
