REMARK  Name = ZINC40320524
REMARK  3 active torsions:
REMARK  status: ('A' for Active; 'I' for Inactive)
REMARK    1  A    between atoms: C_3  and  S_9
REMARK    2  A    between atoms: C_4  and  N_8
REMARK    3  A    between atoms: S_9  and  N_12
REMARK                            x       y       z     vdW  Elec       q    Type
REMARK                         _______ _______ _______ _____ _____    ______ ____
ROOT
ATOM      1  S   UNL     1       3.867   2.242   0.140  0.00  0.00    +0.062 S 
ATOM      2  O   UNL     1       4.900   1.827  -0.743  0.00  0.00    -0.153 OA
ATOM      3  O   UNL     1       3.271   3.530   0.064  0.00  0.00    -0.153 OA
ENDROOT
BRANCH   1   4
ATOM      4  N   UNL     1       4.465   2.087   1.676  0.00  0.00    -0.180 NA
ATOM      5  C   UNL     1       4.029   2.986   2.757  0.00  0.00    +0.091 C 
ATOM      6  C   UNL     1       3.584   2.122   3.939  0.00  0.00    -0.061 C 
ATOM      7  N   UNL     1       4.670   1.210   4.333  0.00  0.00    +0.383 N 
ATOM      8  C   UNL     1       4.228   0.475   5.527  0.00  0.00    -0.078 C 
ATOM      9  C   UNL     1       5.339  -0.450   6.021  0.00  0.00    -0.019 C 
ATOM     10  C   UNL     1       5.672  -1.456   4.914  0.00  0.00    -0.003 C 
ATOM     11  C   UNL     1       6.090  -0.682   3.662  0.00  0.00    -0.014 C 
ATOM     12  C   UNL     1       4.969   0.275   3.243  0.00  0.00    -0.053 C 
ATOM     13  C   UNL     1       5.445   1.045   2.009  0.00  0.00    +0.094 C 
ATOM     14  H   UNL     1       5.497   1.746   4.553  0.00  0.00    -0.081 HD
ENDBRANCH   1   4
BRANCH   1  17
ATOM     15  C   UNL     1       1.671  -0.913  -1.032  0.00  0.00    +0.017 A 
ATOM     16  C   UNL     1       2.695   0.006  -0.898  0.00  0.00    +0.031 A 
ATOM     17  C   UNL     1       2.560   1.072  -0.030  0.00  0.00    +0.126 A 
ATOM     18  C   UNL     1       1.393   1.221   0.709  0.00  0.00    +0.052 A 
ATOM     19  C   UNL     1       0.365   0.297   0.572  0.00  0.00    +0.040 A 
ATOM     20  C   UNL     1       0.507  -0.768  -0.298  0.00  0.00    +0.020 A 
ATOM     21 BR   UNL     1      -0.891  -2.027  -0.485  0.00  0.00    -0.050 Br
BRANCH  18  22
ATOM     22  N   UNL     1       1.253   2.298   1.587  0.00  0.00    -0.356 N 
ATOM     23  H   UNL     1       1.914   3.009   1.592  0.00  0.00    +0.142 HD
ATOM     24  H   UNL     1       0.496   2.336   2.192  0.00  0.00    +0.142 HD
ENDBRANCH  18  22
ENDBRANCH   1  17
TORSDOF 3
