REMARK  Name = ZINC40427410
REMARK  8 active torsions:
REMARK  status: ('A' for Active; 'I' for Inactive)
REMARK    1  A    between atoms: C_1  and  N_2
REMARK    2  A    between atoms: C_6  and  C_8
REMARK    3  A    between atoms: C_8  and  C_9
REMARK    4  A    between atoms: C_9  and  N_10
REMARK    5  A    between atoms: C_11  and  C_13
REMARK    6  A    between atoms: C_13  and  N_14
REMARK    7  A    between atoms: C_20  and  C_22
REMARK    8  A    between atoms: N_27  and  C_28
REMARK                            x       y       z     vdW  Elec       q    Type
REMARK                         _______ _______ _______ _____ _____    ______ ____
ROOT
ATOM      1  N   UNL     1       7.246   1.511  -1.431  0.00  0.00    -0.291 NA
ATOM      2  C   UNL     1       6.719   2.199  -2.617  0.00  0.00    +0.104 C 
ATOM      3  C   UNL     1       7.382   3.574  -2.744  0.00  0.00    +0.123 C 
ATOM      4  N   UNL     1       8.841   3.393  -2.728  0.00  0.00    -0.294 N 
ATOM      5  C   UNL     1       9.432   2.597  -1.641  0.00  0.00    +0.123 C 
ATOM      6  C   UNL     1       8.688   1.259  -1.558  0.00  0.00    +0.104 C 
ATOM      7  C   UNL     1       9.617   3.942  -3.683  0.00  0.00    +0.266 C 
ATOM      8  O   UNL     1       9.106   4.486  -4.644  0.00  0.00    -0.268 OA
ENDROOT
BRANCH   7   9
ATOM      9  C   UNL     1      11.083   3.884  -3.564  0.00  0.00    +0.135 A 
ATOM     10  C   UNL     1      11.882   4.278  -4.608  0.00  0.00    +0.081 A 
ATOM     11  S   UNL     1      13.504   3.998  -3.910  0.00  0.00    -0.060 S 
ATOM     12  C   UNL     1      12.965   3.391  -2.318  0.00  0.00    +0.163 A 
ATOM     13  N   UNL     1      11.654   3.453  -2.438  0.00  0.00    -0.220 NA
ATOM     14  N   UNL     1      13.726   2.970  -1.239  0.00  0.00    -0.294 N 
ATOM     15  H   UNL     1      13.294   2.580  -0.464  0.00  0.00    +0.154 HD
BRANCH  14  16
ATOM     16  C   UNL     1      15.116   3.109  -1.268  0.00  0.00    +0.034 A 
ATOM     17  C   UNL     1      15.694   4.198  -1.909  0.00  0.00    +0.023 A 
ATOM     18  C   UNL     1      17.068   4.333  -1.937  0.00  0.00    +0.003 A 
ATOM     19  C   UNL     1      17.870   3.386  -1.326  0.00  0.00    +0.020 A 
ATOM     20  C   UNL     1      17.298   2.300  -0.687  0.00  0.00    +0.043 A 
ATOM     21  C   UNL     1      15.923   2.163  -0.650  0.00  0.00    +0.043 A 
ATOM     22 CL   UNL     1      18.309   1.113   0.077  0.00  0.00    -0.083 Cl
ENDBRANCH  14  16
ENDBRANCH   7   9
BRANCH   1  23
ATOM     23  C   UNL     1       6.514   0.264  -1.176  0.00  0.00    +0.180 C 
BRANCH  23  25
ATOM     24  N   UNL     1       4.224  -0.412  -0.531  0.00  0.00    -0.314 N 
ATOM     25  C   UNL     1       5.088   0.584  -0.809  0.00  0.00    +0.227 C 
ATOM     26  O   UNL     1       4.718   1.738  -0.765  0.00  0.00    -0.274 OA
ATOM     27  H   UNL     1       4.520  -1.335  -0.567  0.00  0.00    +0.149 HD
BRANCH  24  28
ATOM     28  C   UNL     1       2.837  -0.101  -0.174  0.00  0.00    +0.102 C 
BRANCH  28  29
ATOM     29  C   UNL     1       2.075  -1.401   0.091  0.00  0.00    +0.003 C 
BRANCH  29  35
ATOM     30  C   UNL     1      -0.059   1.010  -0.530  0.00  0.00    -0.096 C 
ATOM     31  N   UNL     1      -0.071  -0.451  -0.681  0.00  0.00    +0.380 N 
ATOM     32  C   UNL     1      -1.463  -0.937  -0.703  0.00  0.00    -0.079 C 
ATOM     33  C   UNL     1      -1.621  -1.926   0.471  0.00  0.00    -0.020 C 
ATOM     34  C   UNL     1      -0.163  -2.378   0.746  0.00  0.00    -0.017 C 
ATOM     35  C   UNL     1       0.627  -1.075   0.463  0.00  0.00    -0.068 C 
ATOM     36  H   UNL     1       0.390  -0.708  -1.541  0.00  0.00    -0.082 HD
ENDBRANCH  29  35
ENDBRANCH  28  29
ENDBRANCH  24  28
ENDBRANCH  23  25
ENDBRANCH   1  23
TORSDOF 7
