REMARK  Name = ZINC11454391
REMARK  5 active torsions:
REMARK  status: ('A' for Active; 'I' for Inactive)
REMARK    1  A    between atoms: N_9  and  C_30
REMARK    2  A    between atoms: C_10  and  S_12
REMARK    3  A    between atoms: S_12  and  C_13
REMARK    4  A    between atoms: C_13  and  C_14
REMARK    5  A    between atoms: C_18  and  C_27
REMARK                            x       y       z     vdW  Elec       q    Type
REMARK                         _______ _______ _______ _____ _____    ______ ____
ROOT
ATOM      1  S   UNL     1      -4.660  -0.668  -3.713  0.00  0.00    -0.078 S 
ENDROOT
BRANCH   1  11
ATOM      2  C   UNL     1     -10.358  -2.574  -0.897  0.00  0.00    +0.001 A 
ATOM      3  C   UNL     1      -9.539  -1.937   0.027  0.00  0.00    +0.002 A 
ATOM      4  C   UNL     1      -8.311  -1.459  -0.333  0.00  0.00    +0.028 A 
ATOM      5  C   UNL     1      -7.869  -1.611  -1.651  0.00  0.00    +0.079 A 
ATOM      6  C   UNL     1      -8.705  -2.259  -2.589  0.00  0.00    +0.065 A 
ATOM      7  C   UNL     1      -9.953  -2.738  -2.193  0.00  0.00    +0.015 A 
ATOM      8  C   UNL     1      -8.218  -2.407  -3.967  0.00  0.00    +0.267 A 
ATOM      9  O   UNL     1      -8.892  -2.957  -4.819  0.00  0.00    -0.267 OA
ATOM     10  N   UNL     1      -6.992  -1.910  -4.253  0.00  0.00    -0.253 N 
ATOM     11  C   UNL     1      -6.249  -1.296  -3.283  0.00  0.00    +0.177 A 
ATOM     12  N   UNL     1      -6.662  -1.158  -2.047  0.00  0.00    -0.223 NA
BRANCH  10  13
ATOM     13  C   UNL     1      -6.481  -2.026  -5.553  0.00  0.00    +0.087 A 
ATOM     14  C   UNL     1      -5.727  -3.136  -5.908  0.00  0.00    +0.029 A 
ATOM     15  C   UNL     1      -5.227  -3.249  -7.191  0.00  0.00    +0.002 A 
ATOM     16  C   UNL     1      -5.469  -2.254  -8.120  0.00  0.00    +0.003 A 
ATOM     17  C   UNL     1      -6.215  -1.144  -7.770  0.00  0.00    +0.040 A 
ATOM     18  C   UNL     1      -6.723  -1.026  -6.489  0.00  0.00    +0.147 A 
ATOM     19  F   UNL     1      -7.451   0.059  -6.146  0.00  0.00    -0.203 F 
ENDBRANCH  10  13
ENDBRANCH   1  11
BRANCH   1  20
ATOM     20  C   UNL     1      -4.147   0.010  -2.115  0.00  0.00    +0.173 C 
BRANCH  20  21
ATOM     21  C   UNL     1      -2.775   0.618  -2.245  0.00  0.00    +0.230 C 
ATOM     22  O   UNL     1      -2.242   0.686  -3.332  0.00  0.00    -0.274 OA
ATOM     23  N   UNL     1      -2.140   1.087  -1.152  0.00  0.00    -0.264 N 
ATOM     24  C   UNL     1      -2.811   1.135   0.158  0.00  0.00    +0.168 C 
ATOM     25  C   UNL     1      -2.447   2.473   0.818  0.00  0.00    +0.276 C 
ATOM     26  O   UNL     1      -1.025   2.558   0.938  0.00  0.00    -0.476 OA
ATOM     27  C   UNL     1      -0.280   2.283  -0.168  0.00  0.00    +0.143 A 
ATOM     28  C   UNL     1      -0.814   1.548  -1.224  0.00  0.00    +0.078 A 
ATOM     29  C   UNL     1      -0.042   1.272  -2.341  0.00  0.00    +0.027 A 
ATOM     30  C   UNL     1       1.262   1.730  -2.407  0.00  0.00    +0.002 A 
ATOM     31  C   UNL     1       1.793   2.461  -1.361  0.00  0.00    +0.004 A 
ATOM     32  C   UNL     1       1.027   2.739  -0.244  0.00  0.00    +0.047 A 
BRANCH  25  33
ATOM     33  C   UNL     1      -3.075   2.549   2.185  0.00  0.00    +0.253 C 
ATOM     34  O   UNL     1      -2.374   2.579   3.174  0.00  0.00    -0.272 OA
ATOM     35  N   UNL     1      -4.417   2.584   2.309  0.00  0.00    -0.326 N 
ATOM     36  H   UNL     1      -4.978   2.561   1.518  0.00  0.00    +0.145 HD
ATOM     37  H   UNL     1      -4.822   2.634   3.189  0.00  0.00    +0.145 HD
ENDBRANCH  25  33
ENDBRANCH  20  21
ENDBRANCH   1  20
TORSDOF 5
