REMARK  Name = ZINC08768417
REMARK  4 active torsions:
REMARK  status: ('A' for Active; 'I' for Inactive)
REMARK    1  A    between atoms: C_3  and  S_8
REMARK    2  A    between atoms: S_8  and  N_11
REMARK    3  A    between atoms: C_16  and  N_17
REMARK    4  A    between atoms: C_16  and  N_52
REMARK                            x       y       z     vdW  Elec       q    Type
REMARK                         _______ _______ _______ _____ _____    ______ ____
ROOT
ATOM      1  N   UNL     1      -2.640  -2.421  -3.608  0.00  0.00    -0.180 NA
ATOM      2  C   UNL     1      -2.098  -3.390  -2.643  0.00  0.00    +0.091 C 
ATOM      3  C   UNL     1      -2.080  -2.738  -1.256  0.00  0.00    -0.059 C 
ATOM      4  C   UNL     1      -2.039  -0.511  -2.217  0.00  0.00    -0.059 C 
ATOM      5  C   UNL     1      -2.055  -1.072  -3.643  0.00  0.00    +0.091 C 
ATOM      6  N   UNL     1      -1.328  -1.467  -1.339  0.00  0.00    +0.395 N 
ATOM      7  H   UNL     1      -0.399  -1.655  -1.735  0.00  0.00    -0.079 HD
ENDROOT
BRANCH   1   8
ATOM      8  S   UNL     1      -3.877  -2.838  -4.627  0.00  0.00    +0.061 S 
ATOM      9  O   UNL     1      -3.793  -1.966  -5.745  0.00  0.00    -0.153 OA
ATOM     10  O   UNL     1      -3.836  -4.252  -4.759  0.00  0.00    -0.153 OA
BRANCH   8  13
ATOM     11  C   UNL     1      -7.181  -3.100  -2.354  0.00  0.00    +0.003 A 
ATOM     12  C   UNL     1      -6.000  -3.403  -3.007  0.00  0.00    +0.028 A 
ATOM     13  C   UNL     1      -5.385  -2.453  -3.800  0.00  0.00    +0.107 A 
ATOM     14  C   UNL     1      -5.956  -1.203  -3.950  0.00  0.00    +0.043 A 
ATOM     15  C   UNL     1      -7.140  -0.901  -3.302  0.00  0.00    +0.020 A 
ATOM     16  C   UNL     1      -7.752  -1.851  -2.504  0.00  0.00    +0.015 A 
ATOM     17 BR   UNL     1      -7.922   0.808  -3.508  0.00  0.00    -0.050 Br
ENDBRANCH   8  13
ENDBRANCH   1   8
BRANCH   6  18
ATOM     18  C   UNL     1      -1.167  -0.887   0.010  0.00  0.00    +0.074 C 
BRANCH  18  19
ATOM     19  N   UNL     1       0.002  -0.004   0.002  0.00  0.00    -0.230 N 
ATOM     20  C   UNL     1      -0.016   1.348   0.009  0.00  0.00    +0.345 A 
ATOM     21  O   UNL     1      -1.007   2.057   0.018  0.00  0.00    -0.245 OA
ATOM     22  N   UNL     1       1.256   1.763  -0.001  0.00  0.00    -0.279 N 
ATOM     23  C   UNL     1       2.079   0.650  -0.016  0.00  0.00    +0.134 A 
ATOM     24  N   UNL     1       1.348  -0.406  -0.014  0.00  0.00    -0.156 NA
ATOM     25  C   UNL     1       3.591   0.754  -0.032  0.00  0.00    +0.076 C 
ATOM     26  C   UNL     1       4.002   1.363  -1.376  0.00  0.00    +0.008 C 
ATOM     27  C   UNL     1       3.872   2.868  -1.366  0.00  0.00    +0.002 C 
ATOM     28  C   UNL     1       2.455   3.390  -1.345  0.00  0.00    +0.022 C 
ATOM     29  C   UNL     1       1.777   3.140   0.005  0.00  0.00    +0.128 C 
ENDBRANCH  18  19
ENDBRANCH   6  18
TORSDOF 4
