REMARK  Name = ZINC35545825
REMARK  5 active torsions:
REMARK  status: ('A' for Active; 'I' for Inactive)
REMARK    1  A    between atoms: C_1  and  C_2
REMARK    2  A    between atoms: C_2  and  N_3
REMARK    3  A    between atoms: N_3  and  C_4
REMARK    4  A    between atoms: C_4  and  C_6
REMARK    5  A    between atoms: C_4  and  C_13
REMARK                            x       y       z     vdW  Elec       q    Type
REMARK                         _______ _______ _______ _____ _____    ______ ____
ROOT
ATOM      1  C   UNL     1       0.733  -1.960   1.184  0.00  0.00    -0.010 C 
ENDROOT
BRANCH   1   2
ATOM      2  C   UNL     1       1.543  -2.445   0.010  0.00  0.00    -0.055 A 
ATOM      3  C   UNL     1       2.715  -1.793  -0.335  0.00  0.00    +0.004 A 
ATOM      4  C   UNL     1       3.464  -2.230  -1.410  0.00  0.00    +0.028 A 
ATOM      5  C   UNL     1       3.041  -3.326  -2.146  0.00  0.00    +0.067 A 
ATOM      6  C   UNL     1       1.860  -3.983  -1.798  0.00  0.00    +0.067 A 
ATOM      7  C   UNL     1       1.117  -3.541  -0.714  0.00  0.00    +0.030 A 
ATOM      8  N   UNL     1       1.699  -5.028  -2.705  0.00  0.00    -0.306 N 
ATOM      9  H   UNL     1       0.965  -5.663  -2.715  0.00  0.00    +0.170 HD
ATOM     10  C   UNL     1       2.735  -5.008  -3.564  0.00  0.00    +0.325 A 
ATOM     11  O   UNL     1       2.898  -5.788  -4.483  0.00  0.00    -0.247 OA
ATOM     12  N   UNL     1       3.562  -3.992  -3.253  0.00  0.00    -0.306 N 
ATOM     13  H   UNL     1       4.380  -3.763  -3.720  0.00  0.00    +0.170 HD
ENDBRANCH   1   2
BRANCH   1  14
ATOM     14  C   UNL     1       1.352  -2.461   2.463  0.00  0.00    -0.056 A 
ATOM     15  C   UNL     1       2.447  -1.811   3.002  0.00  0.00    +0.002 A 
ATOM     16  C   UNL     1       3.016  -2.270   4.175  0.00  0.00    +0.001 A 
ATOM     17  C   UNL     1       2.489  -3.379   4.810  0.00  0.00    +0.014 A 
ATOM     18  C   UNL     1       1.394  -4.029   4.272  0.00  0.00    +0.014 A 
ATOM     19  C   UNL     1       0.822  -3.566   3.101  0.00  0.00    +0.016 A 
ATOM     20  I   UNL     1       0.596  -5.711   5.234  0.00  0.00    -0.044 I 
ENDBRANCH   1  14
BRANCH   1  21
ATOM     21  N   UNL     1       0.713  -0.491   1.192  0.00  0.00    +0.386 N 
ATOM     22  H   UNL     1       1.659  -0.141   1.185  0.00  0.00    -0.085 HD
ATOM     23  H   UNL     1       0.240  -0.165   2.022  0.00  0.00    -0.085 HD
BRANCH  21  25
ATOM     24  C   UNL     1      -0.019   1.526   0.010  0.00  0.00    -0.017 C 
ATOM     25  C   UNL     1       0.002  -0.004   0.002  0.00  0.00    -0.085 C 
ENDBRANCH  21  25
ENDBRANCH   1  21
TORSDOF 4
