REMARK  Name = ZINC01077883
REMARK  6 active torsions:
REMARK  status: ('A' for Active; 'I' for Inactive)
REMARK    1  A    between atoms: C_4  and  N_7
REMARK    2  A    between atoms: C_10  and  C_15
REMARK    3  A    between atoms: C_15  and  S_16
REMARK    4  A    between atoms: S_16  and  C_17
REMARK    5  A    between atoms: C_20  and  C_28
REMARK    6  A    between atoms: N_21  and  C_22
REMARK                            x       y       z     vdW  Elec       q    Type
REMARK                         _______ _______ _______ _____ _____    ______ ____
ROOT
ATOM      1  S   UNL     1       3.850  -1.130  -0.993  0.00  0.00    -0.078 S 
ENDROOT
BRANCH   1   2
ATOM      2  C   UNL     1       5.435  -1.886  -0.853  0.00  0.00    +0.197 A 
ATOM      3  N   UNL     1       6.058  -2.190   0.264  0.00  0.00    -0.122 NA
ATOM      4  N   UNL     1       7.195  -2.730   0.003  0.00  0.00    -0.128 NA
ATOM      5  C   UNL     1       7.370  -2.804  -1.296  0.00  0.00    +0.171 A 
ATOM      6  N   UNL     1       6.246  -2.270  -1.886  0.00  0.00    -0.270 N 
BRANCH   5   7
ATOM      7  C   UNL     1       8.549  -3.360  -1.993  0.00  0.00    +0.038 A 
ATOM      8  C   UNL     1       9.145  -2.651  -3.037  0.00  0.00    +0.013 A 
ATOM      9  C   UNL     1      10.245  -3.175  -3.684  0.00  0.00    +0.001 A 
ATOM     10  C   UNL     1      10.758  -4.402  -3.300  0.00  0.00    +0.001 A 
ATOM     11  C   UNL     1      10.173  -5.111  -2.267  0.00  0.00    +0.021 A 
ATOM     12  C   UNL     1       9.075  -4.595  -1.607  0.00  0.00    +0.052 A 
ATOM     13 CL   UNL     1       8.346  -5.482  -0.305  0.00  0.00    -0.083 Cl
ENDBRANCH   5   7
BRANCH   6  14
ATOM     14  C   UNL     1       5.987  -2.144  -3.258  0.00  0.00    +0.051 A 
ATOM     15  C   UNL     1       5.816  -3.279  -4.040  0.00  0.00    +0.026 A 
ATOM     16  C   UNL     1       5.556  -3.152  -5.391  0.00  0.00    +0.002 A 
ATOM     17  C   UNL     1       5.476  -1.897  -5.966  0.00  0.00    +0.000 A 
ATOM     18  C   UNL     1       5.651  -0.765  -5.191  0.00  0.00    +0.002 A 
ATOM     19  C   UNL     1       5.906  -0.886  -3.838  0.00  0.00    +0.026 A 
ENDBRANCH   6  14
ENDBRANCH   1   2
BRANCH   1  20
ATOM     20  C   UNL     1       3.434  -0.945   0.759  0.00  0.00    +0.153 C 
BRANCH  20  24
ATOM     21  N   UNL     1       0.676   2.963   1.133  0.00  0.00    -0.284 N 
ATOM     22  C   UNL     1       0.780   1.587   1.066  0.00  0.00    +0.224 A 
ATOM     23  N   UNL     1       1.977   1.015   0.953  0.00  0.00    -0.198 NA
ATOM     24  C   UNL     1       2.078  -0.301   0.888  0.00  0.00    +0.146 A 
ATOM     25  N   UNL     1       0.993  -1.054   0.938  0.00  0.00    -0.199 NA
ATOM     26  C   UNL     1      -0.207  -0.489   1.052  0.00  0.00    +0.217 A 
ATOM     27  N   UNL     1      -0.313   0.834   1.116  0.00  0.00    -0.181 NA
ATOM     28  N   UNL     1      -1.339  -1.276   1.103  0.00  0.00    -0.327 N 
ATOM     29  H   UNL     1       1.476   3.509   1.168  0.00  0.00    +0.155 HD
ATOM     30  H   UNL     1      -2.213  -0.863   1.187  0.00  0.00    +0.145 HD
ATOM     31  H   UNL     1      -1.262  -2.241   1.056  0.00  0.00    +0.145 HD
BRANCH  21  35
ATOM     32  C   UNL     1      -3.079   4.767   1.180  0.00  0.00    +0.000 A 
ATOM     33  C   UNL     1      -2.028   5.342   1.871  0.00  0.00    +0.002 A 
ATOM     34  C   UNL     1      -0.782   4.746   1.858  0.00  0.00    +0.023 A 
ATOM     35  C   UNL     1      -0.585   3.569   1.149  0.00  0.00    +0.034 A 
ATOM     36  C   UNL     1      -1.641   2.997   0.451  0.00  0.00    +0.023 A 
ATOM     37  C   UNL     1      -2.885   3.595   0.472  0.00  0.00    +0.002 A 
ENDBRANCH  21  35
ENDBRANCH  20  24
ENDBRANCH   1  20
TORSDOF 6
