REMARK  Name = ZINC20599264
REMARK  9 active torsions:
REMARK  status: ('A' for Active; 'I' for Inactive)
REMARK    1  A    between atoms: C_1  and  C_2
REMARK    2  A    between atoms: C_2  and  C_3
REMARK    3  A    between atoms: C_2  and  N_4
REMARK    4  A    between atoms: C_10  and  C_12
REMARK    5  A    between atoms: C_12  and  C_13
REMARK    6  A    between atoms: N_15  and  C_16
REMARK    7  A    between atoms: C_16  and  C_17
REMARK    8  A    between atoms: C_17  and  C_18
REMARK    9  A    between atoms: C_18  and  N_19
REMARK                            x       y       z     vdW  Elec       q    Type
REMARK                         _______ _______ _______ _____ _____    ______ ____
ROOT
ATOM      1  C   UNL     1      -0.677   1.790   3.459  0.00  0.00    +0.212 C 
ATOM      2  O   UNL     1      -1.674   2.408   3.768  0.00  0.00    -0.276 OA
ATOM      3  N   UNL     1      -0.325   1.683   2.163  0.00  0.00    -0.315 N 
ATOM      4  H   UNL     1       0.579   1.123   1.883  0.00  0.00    +0.149 HD
ENDROOT
BRANCH   1   5
ATOM      5  C   UNL     1       0.168   1.142   4.525  0.00  0.00    +0.089 C 
BRANCH   5  12
ATOM      6  N   UNL     1      -0.398   2.967   6.054  0.00  0.00    +0.390 N 
ATOM      7  C   UNL     1      -1.131   3.346   7.273  0.00  0.00    -0.058 C 
ATOM      8  C   UNL     1      -2.615   3.032   7.071  0.00  0.00    +0.085 C 
ATOM      9  N   UNL     1      -2.776   1.663   6.591  0.00  0.00    -0.318 N 
ATOM     10  C   UNL     1      -1.778   0.962   6.044  0.00  0.00    +0.200 C 
ATOM     11  O   UNL     1      -2.007  -0.160   5.643  0.00  0.00    -0.278 OA
ATOM     12  C   UNL     1      -0.384   1.506   5.905  0.00  0.00    +0.028 C 
ATOM     13  H   UNL     1      -3.753   1.163   6.673  0.00  0.00    +0.149 HD
ATOM     14  H   UNL     1      -0.915   3.400   5.185  0.00  0.00    -0.080 HD
BRANCH   6  16
ATOM     15  C   UNL     1       0.914   5.033   5.960  0.00  0.00    -0.013 C 
ATOM     16  C   UNL     1       0.968   3.508   6.072  0.00  0.00    -0.074 C 
ATOM     17  C   UNL     1       1.654   3.116   7.382  0.00  0.00    -0.013 C 
ENDBRANCH   6  16
ENDBRANCH   5  12
ENDBRANCH   1   5
BRANCH   3  18
ATOM     18  C   UNL     1      -1.147   2.314   1.126  0.00  0.00    +0.106 C 
BRANCH  18  19
ATOM     19  C   UNL     1      -0.530   2.043  -0.248  0.00  0.00    +0.040 C 
BRANCH  19  20
ATOM     20  C   UNL     1      -1.388   2.702  -1.330  0.00  0.00    +0.123 C 
BRANCH  20  21
ATOM     21  N   UNL     1      -0.798   2.443  -2.646  0.00  0.00    -0.347 N 
ATOM     22  C   UNL     1       0.052   3.288  -3.306  0.00  0.00    +0.087 A 
ATOM     23  C   UNL     1       0.407   2.751  -4.484  0.00  0.00    +0.027 A 
ATOM     24  C   UNL     1      -0.271   1.456  -4.587  0.00  0.00    -0.000 A 
ATOM     25  C   UNL     1      -1.012   1.310  -3.400  0.00  0.00    +0.049 A 
ATOM     26  C   UNL     1      -1.767   0.159  -3.205  0.00  0.00    +0.026 A 
ATOM     27  C   UNL     1      -1.778  -0.824  -4.171  0.00  0.00    +0.002 A 
ATOM     28  C   UNL     1      -1.043  -0.677  -5.338  0.00  0.00    +0.001 A 
ATOM     29  C   UNL     1      -0.301   0.451  -5.554  0.00  0.00    +0.010 A 
ENDBRANCH  20  21
ENDBRANCH  19  20
ENDBRANCH  18  19
ENDBRANCH   3  18
TORSDOF 7
