REMARK  Name = ZINC35098374
REMARK  13 active torsions:
REMARK  status: ('A' for Active; 'I' for Inactive)
REMARK    1  A    between atoms: C_1  and  C_2
REMARK    2  A    between atoms: C_2  and  C_3
REMARK    3  A    between atoms: C_3  and  C_4
REMARK    4  A    between atoms: C_4  and  N_5
REMARK    5  A    between atoms: C_13  and  C_15
REMARK    6  A    between atoms: C_16  and  C_18
REMARK    7  A    between atoms: C_18  and  C_20
REMARK    8  A    between atoms: C_18  and  N_25
REMARK    9  A    between atoms: C_20  and  C_22
REMARK   10  A    between atoms: C_20  and  C_23
REMARK   11  A    between atoms: C_23  and  C_24
REMARK   12  A    between atoms: C_26  and  C_28
REMARK   13  A    between atoms: C_29  and  C_30
REMARK                            x       y       z     vdW  Elec       q    Type
REMARK                         _______ _______ _______ _____ _____    ______ ____
ROOT
ATOM      1  N   UNL     1      -3.334  -1.606  -0.404  0.00  0.00    -0.299 N 
ATOM      2  C   UNL     1      -3.337  -2.954  -0.385  0.00  0.00    +0.303 C 
ATOM      3  O   UNL     1      -2.299  -3.567  -0.548  0.00  0.00    -0.253 OA
ATOM      4  N   UNL     1      -4.490  -3.623  -0.186  0.00  0.00    -0.280 N 
ATOM      5  C   UNL     1      -5.768  -2.902  -0.105  0.00  0.00    +0.128 C 
ATOM      6  C   UNL     1      -6.454  -3.267   1.217  0.00  0.00    +0.127 C 
ATOM      7  N   UNL     1      -6.455  -4.730   1.357  0.00  0.00    -0.297 N 
ATOM      8  C   UNL     1      -5.177  -5.451   1.276  0.00  0.00    +0.130 C 
ATOM      9  C   UNL     1      -4.492  -5.086  -0.052  0.00  0.00    +0.092 C 
ATOM     10  C   UNL     1      -5.262  -5.707  -1.219  0.00  0.00    +0.030 C 
ATOM     11  C   UNL     1      -7.609  -5.399   1.556  0.00  0.00    +0.236 C 
ATOM     12  O   UNL     1      -7.589  -6.594   1.763  0.00  0.00    -0.274 OA
ATOM     13  H   UNL     1      -4.170  -1.119  -0.348  0.00  0.00    +0.150 HD
ENDROOT
BRANCH   1  14
ATOM     14  C   UNL     1      -2.067  -0.878  -0.509  0.00  0.00    +0.106 C 
BRANCH  14  15
ATOM     15  C   UNL     1      -2.342   0.627  -0.509  0.00  0.00    +0.018 C 
BRANCH  15  17
ATOM     16  C   UNL     1      -1.295   2.893  -0.619  0.00  0.00    +0.004 C 
ATOM     17  C   UNL     1      -1.020   1.388  -0.619  0.00  0.00    -0.002 C 
ENDBRANCH  15  17
ENDBRANCH  14  15
ENDBRANCH   1  14
BRANCH  11  18
ATOM     18  C   UNL     1      -8.923  -4.662   1.521  0.00  0.00    +0.162 C 
BRANCH  18  19
ATOM     19  N   UNL     1     -10.000  -5.599   1.194  0.00  0.00    -0.300 N 
ATOM     20  C   UNL     1     -11.134  -5.150   0.621  0.00  0.00    +0.238 C 
ATOM     21  O   UNL     1     -11.263  -3.965   0.375  0.00  0.00    -0.271 OA
ATOM     22  H   UNL     1      -9.897  -6.544   1.389  0.00  0.00    +0.150 HD
BRANCH  20  23
ATOM     23  C   UNL     1     -12.210  -6.087   0.294  0.00  0.00    +0.068 C 
ATOM     24  C   UNL     1     -13.345  -5.637  -0.279  0.00  0.00    +0.013 C 
BRANCH  24  25
ATOM     25  C   UNL     1     -14.427  -6.579  -0.608  0.00  0.00    -0.025 A 
ATOM     26  C   UNL     1     -14.285  -7.940  -0.323  0.00  0.00    +0.008 A 
ATOM     27  C   UNL     1     -15.303  -8.816  -0.633  0.00  0.00    +0.001 A 
ATOM     28  C   UNL     1     -16.464  -8.351  -1.227  0.00  0.00    +0.000 A 
ATOM     29  C   UNL     1     -16.612  -7.005  -1.513  0.00  0.00    +0.001 A 
ATOM     30  C   UNL     1     -15.605  -6.116  -1.203  0.00  0.00    +0.008 A 
ENDBRANCH  24  25
ENDBRANCH  20  23
ENDBRANCH  18  19
BRANCH  18  31
ATOM     31  C   UNL     1      -9.192  -4.034   2.890  0.00  0.00    +0.015 C 
ATOM     32  C   UNL     1     -10.451  -3.169   2.816  0.00  0.00    +0.010 C 
BRANCH  31  33
ATOM     33  C   UNL     1      -9.393  -5.140   3.928  0.00  0.00    +0.002 C 
ATOM     34  C   UNL     1      -9.537  -4.515   5.317  0.00  0.00    +0.004 C 
ENDBRANCH  31  33
ENDBRANCH  18  31
ENDBRANCH  11  18
TORSDOF 9
