REMARK  Name = ZINC66346671
REMARK  4 active torsions:
REMARK  status: ('A' for Active; 'I' for Inactive)
REMARK    1  A    between atoms: C_6  and  C_7
REMARK    2  A    between atoms: C_7  and  C_9
REMARK    3  A    between atoms: C_7  and  N_14
REMARK    4  A    between atoms: N_17  and  N_18
REMARK                            x       y       z     vdW  Elec       q    Type
REMARK                         _______ _______ _______ _____ _____    ______ ____
ROOT
ATOM      1  N   UNL     1      -1.180  -1.929  -0.884  0.00  0.00    -0.287 N 
ATOM      2  C   UNL     1      -2.287  -2.465  -1.436  0.00  0.00    +0.317 C 
ATOM      3  O   UNL     1      -3.379  -1.990  -1.191  0.00  0.00    -0.251 OA
ATOM      4  N   UNL     1      -2.183  -3.527  -2.260  0.00  0.00    -0.219 N 
ATOM      5  H   UNL     1      -0.309  -2.308  -1.080  0.00  0.00    +0.151 HD
ATOM      6  H   UNL     1      -2.980  -3.912  -2.657  0.00  0.00    +0.174 HD
ENDROOT
BRANCH   4   7
ATOM      7  N   UNL     1      -0.925  -4.074  -2.542  0.00  0.00    -0.246 N 
ATOM      8  C   UNL     1      -0.818  -5.170  -3.392  0.00  0.00    +0.157 A 
ATOM      9  C   UNL     1       0.433  -5.720  -3.671  0.00  0.00    +0.050 A 
ATOM     10  C   UNL     1       0.487  -6.811  -4.524  0.00  0.00    +0.045 A 
ATOM     11  C   UNL     1      -0.708  -7.288  -5.048  0.00  0.00    +0.152 A 
ATOM     12  N   UNL     1      -1.847  -6.705  -4.730  0.00  0.00    -0.136 NA
ATOM     13  N   UNL     1      -1.903  -5.698  -3.936  0.00  0.00    -0.132 NA
ATOM     14 CL   UNL     1      -0.701  -8.652  -6.122  0.00  0.00    -0.060 Cl
ATOM     15  H   UNL     1      -0.128  -3.688  -2.145  0.00  0.00    +0.172 HD
ENDBRANCH   4   7
BRANCH   1  16
ATOM     16  C   UNL     1      -1.293  -0.775   0.011  0.00  0.00    +0.136 C 
BRANCH  16  22
ATOM     17  C   UNL     1      -0.017   1.378   0.010  0.00  0.00    +0.007 A 
ATOM     18  C   UNL     1       1.171   2.086   0.002  0.00  0.00    +0.020 A 
ATOM     19  C   UNL     1       2.378   1.410  -0.013  0.00  0.00    +0.041 A 
ATOM     20  C   UNL     1       2.396   0.027  -0.021  0.00  0.00    +0.020 A 
ATOM     21  C   UNL     1       1.208  -0.679  -0.013  0.00  0.00    +0.007 A 
ATOM     22  C   UNL     1       0.002  -0.004   0.002  0.00  0.00    -0.023 A 
ATOM     23 CL   UNL     1       3.870   2.298  -0.023  0.00  0.00    -0.084 Cl
ENDBRANCH  16  22
BRANCH  16  24
ATOM     24  C   UNL     1      -1.584  -1.251   1.410  0.00  0.00    -0.016 A 
ATOM     25  C   UNL     1      -2.487  -0.574   2.208  0.00  0.00    +0.013 A 
ATOM     26  C   UNL     1      -2.727  -1.029   3.462  0.00  0.00    +0.045 A 
ATOM     27  S   UNL     1      -1.659  -2.457   3.547  0.00  0.00    -0.105 S 
ATOM     28  C   UNL     1      -0.970  -2.354   1.904  0.00  0.00    +0.051 A 
ENDBRANCH  16  24
ENDBRANCH   1  16
TORSDOF 4
