REMARK  Name = ZINC44552232
REMARK  9 active torsions:
REMARK  status: ('A' for Active; 'I' for Inactive)
REMARK    1  A    between atoms: C_1  and  C_2
REMARK    2  A    between atoms: C_2  and  O_3
REMARK    3  A    between atoms: O_3  and  C_4
REMARK    4  A    between atoms: C_4  and  C_20
REMARK    5  A    between atoms: C_11  and  C_18
REMARK    6  A    between atoms: C_11  and  C_19
REMARK    7  A    between atoms: C_23  and  N_26
REMARK    8  A    between atoms: N_26  and  C_27
REMARK    9  A    between atoms: N_26  and  C_33
REMARK                            x       y       z     vdW  Elec       q    Type
REMARK                         _______ _______ _______ _____ _____    ______ ____
ROOT
ATOM      1  C   UNL     1       0.917  -1.229   1.003  0.00  0.00    +0.145 C 
ATOM      2  C   UNL     1      -0.483  -1.730   0.791  0.00  0.00    -0.003 A 
ATOM      3  C   UNL     1      -1.297  -1.060  -0.111  0.00  0.00    +0.007 A 
ATOM      4  C   UNL     1      -2.590  -1.486  -0.335  0.00  0.00    +0.000 A 
ATOM      5  C   UNL     1      -3.079  -2.587   0.343  0.00  0.00    +0.000 A 
ATOM      6  C   UNL     1      -2.270  -3.255   1.240  0.00  0.00    +0.005 A 
ATOM      7  C   UNL     1      -0.969  -2.828   1.466  0.00  0.00    -0.031 A 
ATOM      8  C   UNL     1      -0.126  -3.587   2.450  0.00  0.00    +0.016 C 
ATOM      9  C   UNL     1       0.976  -2.738   3.015  0.00  0.00    -0.031 A 
ATOM     10  C   UNL     1       1.462  -1.639   2.341  0.00  0.00    -0.003 A 
ATOM     11  C   UNL     1       2.482  -0.883   2.901  0.00  0.00    +0.007 A 
ATOM     12  C   UNL     1       3.011  -1.224   4.129  0.00  0.00    +0.000 A 
ATOM     13  C   UNL     1       2.524  -2.327   4.805  0.00  0.00    +0.000 A 
ATOM     14  C   UNL     1       1.510  -3.080   4.249  0.00  0.00    +0.005 A 
ATOM     15  C   UNL     1       0.489  -4.799   1.748  0.00  0.00    +0.021 C 
ATOM     16  C   UNL     1      -1.015  -4.075   3.595  0.00  0.00    +0.021 C 
ENDROOT
BRANCH   1  17
ATOM     17  C   UNL     1       1.804  -1.787  -0.080  0.00  0.00    -0.007 A 
ATOM     18  C   UNL     1       1.862  -1.165  -1.314  0.00  0.00    +0.009 A 
ATOM     19  C   UNL     1       2.674  -1.673  -2.308  0.00  0.00    +0.024 A 
ATOM     20  C   UNL     1       3.434  -2.810  -2.068  0.00  0.00    +0.039 A 
ATOM     21  C   UNL     1       3.375  -3.433  -0.827  0.00  0.00    +0.024 A 
ATOM     22  C   UNL     1       2.564  -2.917   0.164  0.00  0.00    +0.009 A 
BRANCH  20  23
ATOM     23  N   UNL     1       4.258  -3.328  -3.072  0.00  0.00    -0.269 N 
BRANCH  23  24
ATOM     24  C   UNL     1       4.407  -2.637  -4.279  0.00  0.00    +0.039 A 
ATOM     25  C   UNL     1       5.075  -1.419  -4.306  0.00  0.00    +0.024 A 
ATOM     26  C   UNL     1       5.221  -0.740  -5.500  0.00  0.00    +0.002 A 
ATOM     27  C   UNL     1       4.702  -1.270  -6.667  0.00  0.00    +0.000 A 
ATOM     28  C   UNL     1       4.036  -2.482  -6.643  0.00  0.00    +0.002 A 
ATOM     29  C   UNL     1       3.892  -3.170  -5.454  0.00  0.00    +0.024 A 
ENDBRANCH  23  24
BRANCH  23  30
ATOM     30  C   UNL     1       4.932  -4.535  -2.871  0.00  0.00    +0.039 A 
ATOM     31  C   UNL     1       4.220  -5.726  -2.790  0.00  0.00    +0.024 A 
ATOM     32  C   UNL     1       4.889  -6.917  -2.591  0.00  0.00    +0.002 A 
ATOM     33  C   UNL     1       6.267  -6.926  -2.472  0.00  0.00    +0.000 A 
ATOM     34  C   UNL     1       6.979  -5.744  -2.552  0.00  0.00    +0.002 A 
ATOM     35  C   UNL     1       6.317  -4.549  -2.756  0.00  0.00    +0.024 A 
ENDBRANCH  23  30
ENDBRANCH  20  23
ENDBRANCH   1  17
BRANCH   1  36
ATOM     36  O   UNL     1       0.919   0.197   0.917  0.00  0.00    -0.360 OA
BRANCH  36  38
ATOM     37  C   UNL     1       0.283   2.357   1.796  0.00  0.00    +0.034 C 
ATOM     38  C   UNL     1       0.115   0.840   1.908  0.00  0.00    +0.158 C 
ENDBRANCH  36  38
ENDBRANCH   1  36
TORSDOF 6
