REMARK  Name = ZINC06300791
REMARK  11 active torsions:
REMARK  status: ('A' for Active; 'I' for Inactive)
REMARK    1  A    between atoms: C_1  and  C_2
REMARK    2  A    between atoms: C_4  and  C_42
REMARK    3  A    between atoms: C_9  and  C_14
REMARK    4  A    between atoms: C_14  and  C_16
REMARK    5  A    between atoms: C_14  and  N_28
REMARK    6  A    between atoms: N_20  and  C_21
REMARK    7  A    between atoms: C_21  and  C_22
REMARK    8  A    between atoms: N_28  and  C_29
REMARK    9  A    between atoms: N_28  and  C_36
REMARK   10  A    between atoms: C_29  and  C_30
REMARK   11  A    between atoms: C_36  and  C_37
REMARK                            x       y       z     vdW  Elec       q    Type
REMARK                         _______ _______ _______ _____ _____    ______ ____
ROOT
ATOM      1  C   UNL     1       0.682  -6.178   3.463  0.00  0.00    +0.040 C 
ENDROOT
BRANCH   1  10
ATOM      2  C   UNL     1       0.713  -0.972  -1.877  0.00  0.00    +0.044 C 
ATOM      3  C   UNL     1       0.941  -2.391  -1.423  0.00  0.00    -0.050 A 
ATOM      4  C   UNL     1       1.383  -3.342  -2.334  0.00  0.00    +0.008 A 
ATOM      5  C   UNL     1       1.598  -4.645  -1.941  0.00  0.00    -0.026 A 
ATOM      6  C   UNL     1       1.373  -5.014  -0.619  0.00  0.00    +0.052 A 
ATOM      7  C   UNL     1       0.926  -4.047   0.301  0.00  0.00    -0.001 A 
ATOM      8  C   UNL     1       0.718  -2.729  -0.119  0.00  0.00    +0.013 A 
ATOM      9  C   UNL     1       0.691  -4.445   1.690  0.00  0.00    +0.017 A 
ATOM     10  C   UNL     1       0.914  -5.736   2.041  0.00  0.00    +0.011 A 
ATOM     11  C   UNL     1       1.362  -6.666   1.079  0.00  0.00    +0.251 A 
ATOM     12  O   UNL     1       1.556  -7.821   1.416  0.00  0.00    -0.268 OA
ATOM     13  N   UNL     1       1.581  -6.310  -0.199  0.00  0.00    -0.322 N 
ATOM     14  H   UNL     1       1.888  -6.975  -0.834  0.00  0.00    +0.169 HD
ATOM     15  C   UNL     1       2.076  -5.667  -2.940  0.00  0.00    +0.046 C 
ENDBRANCH   1  10
BRANCH   1  16
ATOM     16  C   UNL     1      -0.397  -7.229   3.492  0.00  0.00    +0.143 A 
ATOM     17  N   UNL     1      -0.354  -8.412   2.927  0.00  0.00    -0.115 NA
ATOM     18  N   UNL     1      -1.464  -9.014   3.179  0.00  0.00    -0.023 NA
ATOM     19  N   UNL     1      -2.216  -8.247   3.890  0.00  0.00    -0.044 NA
ATOM     20  N   UNL     1      -1.591  -7.139   4.108  0.00  0.00    -0.228 N 
BRANCH  20  21
ATOM     21  C   UNL     1      -2.088  -5.997   4.879  0.00  0.00    +0.178 C 
BRANCH  21  22
ATOM     22  C   UNL     1      -2.838  -5.042   3.949  0.00  0.00    +0.140 C 
ATOM     23  C   UNL     1      -3.450  -3.872   4.760  0.00  0.00    +0.035 C 
ATOM     24  C   UNL     1      -3.555  -2.777   3.663  0.00  0.00    +0.031 C 
ATOM     25  C   UNL     1      -2.314  -3.065   2.792  0.00  0.00    +0.160 C 
ATOM     26  O   UNL     1      -1.925  -4.425   3.027  0.00  0.00    -0.375 OA
ENDBRANCH  21  22
ENDBRANCH  20  21
ENDBRANCH   1  16
BRANCH   1  27
ATOM     27  N   UNL     1       1.925  -6.737   4.011  0.00  0.00    +0.397 N 
ATOM     28  H   UNL     1       2.261  -7.469   3.403  0.00  0.00    -0.079 HD
BRANCH  27  29
ATOM     29  C   UNL     1       2.938  -5.677   4.108  0.00  0.00    -0.041 C 
BRANCH  29  30
ATOM     30  C   UNL     1       3.488  -5.381   2.736  0.00  0.00    -0.064 A 
ATOM     31  C   UNL     1       4.012  -6.403   1.967  0.00  0.00    +0.002 A 
ATOM     32  C   UNL     1       4.518  -6.132   0.709  0.00  0.00    +0.000 A 
ATOM     33  C   UNL     1       4.498  -4.839   0.221  0.00  0.00    +0.000 A 
ATOM     34  C   UNL     1       3.974  -3.817   0.990  0.00  0.00    +0.000 A 
ATOM     35  C   UNL     1       3.464  -4.089   2.246  0.00  0.00    +0.002 A 
ENDBRANCH  29  30
ENDBRANCH  27  29
BRANCH  27  36
ATOM     36  C   UNL     1       1.666  -7.290   5.347  0.00  0.00    -0.001 C 
BRANCH  36  37
ATOM     37  C   UNL     1       1.098  -8.680   5.213  0.00  0.00    +0.089 A 
ATOM     38  C   UNL     1       1.809  -9.806   5.021  0.00  0.00    +0.042 A 
ATOM     39  C   UNL     1       0.881 -10.870   4.954  0.00  0.00    +0.041 A 
ATOM     40  C   UNL     1      -0.342 -10.331   5.109  0.00  0.00    +0.195 A 
ATOM     41  O   UNL     1      -0.204  -9.005   5.271  0.00  0.00    -0.470 OA
ENDBRANCH  36  37
ENDBRANCH  27  36
ENDBRANCH   1  27
TORSDOF 9
