REMARK  Name = ZINC01668536
REMARK  5 active torsions:
REMARK  status: ('A' for Active; 'I' for Inactive)
REMARK    1  A    between atoms: C_1  and  C_2
REMARK    2  A    between atoms: C_2  and  N_3
REMARK    3  A    between atoms: C_7  and  C_8
REMARK    4  A    between atoms: C_11  and  O_14
REMARK    5  A    between atoms: O_14  and  C_15
REMARK                            x       y       z     vdW  Elec       q    Type
REMARK                         _______ _______ _______ _____ _____    ______ ____
ROOT
ATOM      1  N   UNL     1       3.825   6.097   0.305  0.00  0.00    -0.256 N 
ATOM      2  C   UNL     1       2.567   5.697   0.231  0.00  0.00    +0.258 C 
ATOM      3  O   UNL     1       1.642   6.488   0.265  0.00  0.00    -0.269 OA
ATOM      4  C   UNL     1       2.340   4.244   0.105  0.00  0.00    +0.077 C 
ATOM      5  C   UNL     1       1.175   3.555   0.010  0.00  0.00    +0.028 C 
ATOM      6  S   UNL     1       4.023   3.640   0.120  0.00  0.00    -0.061 S 
ATOM      7  C   UNL     1       4.847   5.217   0.268  0.00  0.00    +0.121 C 
ATOM      8  S   UNL     1       6.527   5.535   0.350  0.00  0.00    -0.027 S 
ENDROOT
BRANCH   5   9
ATOM      9  C   UNL     1       1.193   2.119  -0.298  0.00  0.00    -0.024 A 
ATOM     10  C   UNL     1       0.014   1.368  -0.217  0.00  0.00    +0.011 A 
ATOM     11  C   UNL     1       0.038   0.022  -0.507  0.00  0.00    +0.046 A 
ATOM     12  C   UNL     1       1.229  -0.591  -0.878  0.00  0.00    +0.120 A 
ATOM     13  C   UNL     1       2.402   0.150  -0.960  0.00  0.00    +0.046 A 
ATOM     14  C   UNL     1       2.390   1.496  -0.673  0.00  0.00    +0.011 A 
BRANCH  12  15
ATOM     15  O   UNL     1       1.246  -1.919  -1.163  0.00  0.00    -0.495 OA
ATOM     16  C   UNL     1       2.503  -2.485  -1.538  0.00  0.00    +0.277 C 
ENDBRANCH  12  15
ENDBRANCH   5   9
BRANCH   1  18
ATOM     17  C   UNL     1       4.170   7.908   1.912  0.00  0.00    +0.025 C 
ATOM     18  C   UNL     1       4.116   7.527   0.431  0.00  0.00    +0.111 C 
ENDBRANCH   1  18
TORSDOF 3
