REMARK  Name = ZINC09381763
REMARK  3 active torsions:
REMARK  status: ('A' for Active; 'I' for Inactive)
REMARK    1  A    between atoms: C_7  and  C_16
REMARK    2  A    between atoms: C_9  and  C_11
REMARK    3  A    between atoms: N_18  and  N_19
REMARK                            x       y       z     vdW  Elec       q    Type
REMARK                         _______ _______ _______ _____ _____    ______ ____
ROOT
ATOM      1  C   UNL     1       2.438   4.360   0.002  0.00  0.00    +0.261 C 
ATOM      2  O   UNL     1       3.513   3.799   0.080  0.00  0.00    -0.269 OA
ATOM      3  N   UNL     1       2.385   5.704  -0.093  0.00  0.00    -0.231 N 
ATOM      4  H   UNL     1       1.527   6.152  -0.156  0.00  0.00    +0.173 HD
ENDROOT
BRANCH   3   5
ATOM      5  N   UNL     1       3.569   6.453  -0.101  0.00  0.00    -0.242 N 
ATOM      6  C   UNL     1       3.514   7.829  -0.198  0.00  0.00    +0.176 A 
ATOM      7  N   UNL     1       2.461   8.606  -0.296  0.00  0.00    -0.221 NA
ATOM      8  C   UNL     1       2.557   9.952  -0.380  0.00  0.00    +0.115 A 
ATOM      9  C   UNL     1       1.510  10.899  -0.484  0.00  0.00    +0.150 A 
ATOM     10  C   UNL     1       1.784  12.241  -0.566  0.00  0.00    +0.040 A 
ATOM     11  C   UNL     1       3.088  12.716  -0.550  0.00  0.00    +0.004 A 
ATOM     12  C   UNL     1       4.135  11.818  -0.450  0.00  0.00    +0.017 A 
ATOM     13  C   UNL     1       3.870  10.474  -0.367  0.00  0.00    +0.044 A 
ATOM     14  S   UNL     1       4.860   9.005  -0.229  0.00  0.00    -0.051 S 
ATOM     15  F   UNL     1       0.227  10.476  -0.502  0.00  0.00    -0.203 F 
ATOM     16  H   UNL     1       4.427   6.005  -0.038  0.00  0.00    +0.172 HD
ENDBRANCH   3   5
BRANCH   1  23
ATOM     17  C   UNL     1       2.399   0.034  -0.065  0.00  0.00    +0.001 A 
ATOM     18  C   UNL     1       1.193  -0.662  -0.057  0.00  0.00    +0.002 A 
ATOM     19  C   UNL     1       0.002  -0.004  -0.027  0.00  0.00    +0.028 A 
ATOM     20  C   UNL     1      -0.017   1.403  -0.005  0.00  0.00    +0.072 A 
ATOM     21  C   UNL     1       1.214   2.106  -0.013  0.00  0.00    +0.013 A 
ATOM     22  C   UNL     1       2.419   1.397  -0.043  0.00  0.00    +0.011 A 
ATOM     23  C   UNL     1       1.188   3.569   0.010  0.00  0.00    +0.049 A 
ATOM     24  C   UNL     1      -0.053   4.185   0.039  0.00  0.00    +0.042 A 
ATOM     25  C   UNL     1      -1.216   3.393   0.046  0.00  0.00    +0.079 A 
ATOM     26  N   UNL     1      -1.169   2.075   0.019  0.00  0.00    -0.246 NA
BRANCH  25  27
ATOM     27  C   UNL     1      -2.531   4.060   0.077  0.00  0.00    +0.038 A 
ATOM     28  C   UNL     1      -3.783   3.501   0.083  0.00  0.00    +0.017 A 
ATOM     29  C   UNL     1      -4.879   4.332   0.120  0.00  0.00    +0.008 A 
ATOM     30  C   UNL     1      -4.689   5.678   0.137  0.00  0.00    +0.046 A 
ATOM     31  S   UNL     1      -2.908   5.805   0.110  0.00  0.00    -0.095 S 
ENDBRANCH  25  27
ENDBRANCH   1  23
TORSDOF 3
