REMARK  Name = ZINC04025510
REMARK  2 active torsions:
REMARK  status: ('A' for Active; 'I' for Inactive)
REMARK    1  A    between atoms: N_14  and  C_15
REMARK    2  A    between atoms: C_15  and  C_16
REMARK                            x       y       z     vdW  Elec       q    Type
REMARK                         _______ _______ _______ _____ _____    ______ ____
ROOT
ATOM      1  C   UNL     1      -0.294   1.232  -0.017  0.00  0.00    +0.001 A 
ATOM      2  C   UNL     1       0.815   2.030  -0.243  0.00  0.00    +0.001 A 
ATOM      3  C   UNL     1       2.070   1.467  -0.385  0.00  0.00    +0.012 A 
ATOM      4  C   UNL     1       2.224   0.084  -0.299  0.00  0.00    +0.030 A 
ATOM      5  C   UNL     1       1.094  -0.725  -0.058  0.00  0.00    +0.034 A 
ATOM      6  C   UNL     1      -0.161  -0.141   0.075  0.00  0.00    +0.012 A 
ATOM      7  C   UNL     1       1.257  -2.193   0.060  0.00  0.00    +0.209 C 
ATOM      8  O   UNL     1       0.356  -2.902   0.460  0.00  0.00    -0.285 OA
ATOM      9  C   UNL     1       2.583  -2.760  -0.336  0.00  0.00    +0.108 C 
ATOM     10  C   UNL     1       3.801  -1.931   0.031  0.00  0.00    +0.203 C 
ATOM     11  C   UNL     1       3.558  -0.522  -0.463  0.00  0.00    +0.187 C 
ATOM     12  O   UNL     1       4.452   0.104  -0.990  0.00  0.00    -0.290 OA
ATOM     13 CL   UNL     1       4.021  -1.923   1.821  0.00  0.00    -0.106 Cl
ATOM     14  N   UNL     1       2.686  -3.888  -0.952  0.00  0.00    -0.274 NA
ENDROOT
BRANCH  14  15
ATOM     15  C   UNL     1       1.482  -4.584  -1.412  0.00  0.00    +0.255 C 
BRANCH  15  16
ATOM     16  C   UNL     1       1.328  -5.899  -0.646  0.00  0.00    +0.409 C 
ATOM     17  F   UNL     1       1.217  -5.631   0.723  0.00  0.00    -0.169 F 
ATOM     18  F   UNL     1       0.178  -6.564  -1.085  0.00  0.00    -0.169 F 
ATOM     19  F   UNL     1       2.448  -6.706  -0.874  0.00  0.00    -0.169 F 
ENDBRANCH  15  16
ENDBRANCH  14  15
TORSDOF 2
