REMARK  Name = ZINC17734679
REMARK  6 active torsions:
REMARK  status: ('A' for Active; 'I' for Inactive)
REMARK    1  A    between atoms: C_3  and  N_8
REMARK    2  A    between atoms: C_12  and  S_14
REMARK    3  A    between atoms: S_14  and  C_15
REMARK    4  A    between atoms: C_15  and  C_16
REMARK    5  A    between atoms: C_19  and  C_25
REMARK    6  A    between atoms: C_21  and  N_22
REMARK                            x       y       z     vdW  Elec       q    Type
REMARK                         _______ _______ _______ _____ _____    ______ ____
ROOT
ATOM      1  S   UNL     1      -1.345  -1.051  -0.278  0.00  0.00    -0.092 S 
ENDROOT
BRANCH   1   6
ATOM      2  N   UNL     1       3.511   2.115  -0.321  0.00  0.00    -0.292 N 
ATOM      3  C   UNL     1       2.235   1.568  -0.263  0.00  0.00    +0.187 A 
ATOM      4  N   UNL     1       1.081   2.162  -0.031  0.00  0.00    -0.125 NA
ATOM      5  N   UNL     1      -0.080   1.423  -0.018  0.00  0.00    -0.133 NA
ATOM      6  C   UNL     1      -0.032   0.123  -0.236  0.00  0.00    +0.160 A 
ATOM      7  S   UNL     1       1.719  -0.129  -0.481  0.00  0.00    -0.024 S 
ATOM      8  H   UNL     1       4.264   1.564  -0.586  0.00  0.00    +0.154 HD
BRANCH   2  11
ATOM      9  C   UNL     1       3.019   5.441   1.163  0.00  0.00    +0.003 A 
ATOM     10  C   UNL     1       2.819   4.112   0.845  0.00  0.00    +0.023 A 
ATOM     11  C   UNL     1       3.711   3.460   0.003  0.00  0.00    +0.034 A 
ATOM     12  C   UNL     1       4.804   4.145  -0.513  0.00  0.00    +0.038 A 
ATOM     13  C   UNL     1       4.995   5.476  -0.195  0.00  0.00    +0.020 A 
ATOM     14  C   UNL     1       4.104   6.123   0.644  0.00  0.00    +0.015 A 
ATOM     15 BR   UNL     1       6.477   6.413  -0.901  0.00  0.00    -0.050 Br
ENDBRANCH   2  11
ENDBRANCH   1   6
BRANCH   1  16
ATOM     16  C   UNL     1      -2.829  -0.063   0.057  0.00  0.00    +0.113 C 
BRANCH  16  17
ATOM     17  C   UNL     1      -4.041  -0.958   0.050  0.00  0.00    -0.007 A 
ATOM     18  C   UNL     1      -4.551  -1.436   1.244  0.00  0.00    +0.007 A 
ATOM     19  C   UNL     1      -5.661  -2.255   1.245  0.00  0.00    +0.013 A 
ATOM     20  C   UNL     1      -6.270  -2.602   0.037  0.00  0.00    +0.039 A 
ATOM     21  C   UNL     1      -5.750  -2.116  -1.164  0.00  0.00    +0.046 A 
ATOM     22  C   UNL     1      -4.643  -1.293  -1.150  0.00  0.00    +0.131 A 
BRANCH  20  23
ATOM     23  C   UNL     1      -7.459  -3.479   0.030  0.00  0.00    +0.242 C 
ATOM     24  O   UNL     1      -7.987  -3.779  -1.022  0.00  0.00    -0.270 OA
ATOM     25  N   UNL     1      -7.958  -3.947   1.192  0.00  0.00    -0.325 N 
ATOM     26  H   UNL     1      -7.537  -3.708   2.032  0.00  0.00    +0.145 HD
ATOM     27  H   UNL     1      -8.739  -4.523   1.187  0.00  0.00    +0.145 HD
ENDBRANCH  20  23
BRANCH  22  28
ATOM     28  N   UNL     1      -4.094  -0.772  -2.422  0.00  0.00    +0.057 N 
ATOM     29  O   UNL     1      -4.692  -0.962  -3.466  0.00  0.00    -0.126 OA
ATOM     30  O   UNL     1      -3.045  -0.154  -2.425  0.00  0.00    -0.126 OA
ENDBRANCH  22  28
ENDBRANCH  16  17
ENDBRANCH   1  16
TORSDOF 6
