REMARK  Name = ZINC20134466
REMARK  10 active torsions:
REMARK  status: ('A' for Active; 'I' for Inactive)
REMARK    1  A    between atoms: C_1  and  C_2
REMARK    2  A    between atoms: C_5  and  C_9
REMARK    3  A    between atoms: C_6  and  C_8
REMARK    4  A    between atoms: C_9  and  S_10
REMARK    5  A    between atoms: S_10  and  C_11
REMARK    6  A    between atoms: C_22  and  C_24
REMARK    7  A    between atoms: C_24  and  C_25
REMARK    8  A    between atoms: C_24  and  C_26
REMARK    9  A    between atoms: C_30  and  C_32
REMARK   10  A    between atoms: C_30  and  C_33
REMARK                            x       y       z     vdW  Elec       q    Type
REMARK                         _______ _______ _______ _____ _____    ______ ____
ROOT
ATOM      1  C   UNL     1       0.002  -0.004   0.002  0.00  0.00    +0.171 A 
ATOM      2  N   UNL     1       1.175  -0.697  -0.013  0.00  0.00    -0.302 N 
ATOM      3  H   UNL     1       1.164  -1.797  -0.019  0.00  0.00    +0.171 HD
ATOM      4  C   UNL     1       2.352  -0.036  -0.019  0.00  0.00    +0.258 A 
ATOM      5  O   UNL     1       3.408  -0.648  -0.032  0.00  0.00    -0.267 OA
ATOM      6  C   UNL     1       2.339   1.363  -0.011  0.00  0.00    +0.065 A 
ATOM      7  C   UNL     1       1.120   2.019   0.002  0.00  0.00    +0.134 A 
ATOM      8  N   UNL     1      -0.016   1.313   0.009  0.00  0.00    -0.208 NA
ATOM      9  N   UNL     1       1.087   3.400   0.005  0.00  0.00    -0.302 N 
ATOM     10  C   UNL     1       2.176   4.123  -0.396  0.00  0.00    +0.017 C 
ATOM     11  C   UNL     1       3.405   3.566  -0.432  0.00  0.00    +0.020 C 
ATOM     12  C   UNL     1       3.625   2.134  -0.013  0.00  0.00    +0.065 C 
ATOM     13  C   UNL     1       4.523   4.305  -0.859  0.00  0.00    +0.162 C 
ATOM     14  O   UNL     1       5.617   3.777  -0.869  0.00  0.00    -0.292 OA
ATOM     15  C   UNL     1       4.391   5.736  -1.302  0.00  0.00    +0.086 C 
ATOM     16  C   UNL     1       2.984   5.955  -1.867  0.00  0.00    -0.023 C 
ATOM     17  C   UNL     1       1.966   5.564  -0.794  0.00  0.00    +0.058 C 
ATOM     18  C   UNL     1       2.784   5.082  -3.108  0.00  0.00    +0.011 C 
ATOM     19  C   UNL     1       2.801   7.428  -2.239  0.00  0.00    +0.011 C 
ATOM     20  H   UNL     1       0.179   3.927   0.332  0.00  0.00    +0.153 HD
ENDROOT
BRANCH  12  21
ATOM     21  C   UNL     1       4.226   2.110   1.394  0.00  0.00    -0.005 C 
ATOM     22  C   UNL     1       4.494   0.662   1.810  0.00  0.00    +0.008 C 
ATOM     23  C   UNL     1       5.539   2.895   1.402  0.00  0.00    +0.008 C 
ENDBRANCH  12  21
BRANCH   1  24
ATOM     24  S   UNL     1      -1.522  -0.888   0.012  0.00  0.00    -0.083 S 
BRANCH  24  25
ATOM     25  C   UNL     1      -2.688   0.497   0.031  0.00  0.00    +0.112 C 
BRANCH  25  30
ATOM     26  C   UNL     1      -8.097  -1.538   0.072  0.00  0.00    +0.044 C 
ATOM     27  C   UNL     1      -6.686  -1.008   0.061  0.00  0.00    -0.050 A 
ATOM     28  C   UNL     1      -6.027  -0.771   1.254  0.00  0.00    +0.003 A 
ATOM     29  C   UNL     1      -4.734  -0.284   1.244  0.00  0.00    +0.005 A 
ATOM     30  C   UNL     1      -4.098  -0.034   0.042  0.00  0.00    -0.034 A 
ATOM     31  C   UNL     1      -4.759  -0.266  -1.150  0.00  0.00    -0.046 A 
ATOM     32  C   UNL     1      -6.051  -0.758  -1.140  0.00  0.00    +0.007 A 
ATOM     33  C   UNL     1      -4.068   0.012  -2.461  0.00  0.00    +0.044 C 
ENDBRANCH  25  30
ENDBRANCH  24  25
ENDBRANCH   1  24
TORSDOF 4
