REMARK  Name = ZINC65526730
REMARK  7 active torsions:
REMARK  status: ('A' for Active; 'I' for Inactive)
REMARK    1  A    between atoms: C_1  and  N_2
REMARK    2  A    between atoms: N_2  and  C_3
REMARK    3  A    between atoms: N_2  and  C_4
REMARK    4  A    between atoms: C_4  and  C_5
REMARK    5  A    between atoms: C_7  and  C_12
REMARK    6  A    between atoms: C_10  and  O_11
REMARK    7  A    between atoms: N_22  and  C_23
REMARK                            x       y       z     vdW  Elec       q    Type
REMARK                         _______ _______ _______ _____ _____    ______ ____
ROOT
ATOM      1  C   UNL     1      -1.888  -5.048   2.062  0.00  0.00    +0.063 C 
ATOM      2  C   UNL     1      -3.106  -5.934   1.784  0.00  0.00    +0.109 C 
ATOM      3  C   UNL     1      -2.757  -7.079   0.878  0.00  0.00    +0.219 C 
ATOM      4  O   UNL     1      -3.573  -7.446   0.058  0.00  0.00    -0.275 OA
ATOM      5  N   UNL     1      -1.567  -7.714   0.942  0.00  0.00    -0.270 N 
ATOM      6  C   UNL     1      -0.591  -7.192   1.792  0.00  0.00    +0.127 A 
ATOM      7  C   UNL     1      -0.705  -5.940   2.338  0.00  0.00    +0.020 A 
ATOM      8  C   UNL     1       0.414  -5.712   3.125  0.00  0.00    +0.140 A 
ATOM      9  N   UNL     1       1.179  -6.778   3.065  0.00  0.00    -0.177 NA
ATOM     10  N   UNL     1       0.560  -7.724   2.228  0.00  0.00    -0.247 N 
ATOM     11  H   UNL     1      -1.396  -8.509   0.413  0.00  0.00    +0.156 HD
ENDROOT
BRANCH   1  14
ATOM     12  C   UNL     1      -1.359  -2.014  -0.120  0.00  0.00    -0.022 A 
ATOM     13  C   UNL     1      -1.620  -2.808   0.981  0.00  0.00    +0.009 A 
ATOM     14  C   UNL     1      -1.603  -4.185   0.860  0.00  0.00    -0.039 A 
ATOM     15  C   UNL     1      -1.326  -4.771  -0.361  0.00  0.00    +0.008 A 
ATOM     16  C   UNL     1      -1.065  -3.982  -1.464  0.00  0.00    +0.046 A 
ATOM     17  C   UNL     1      -1.086  -2.599  -1.347  0.00  0.00    +0.118 A 
BRANCH  17  18
ATOM     18  O   UNL     1      -0.835  -1.821  -2.432  0.00  0.00    -0.507 OA
ATOM     19  H   UNL     1       0.099  -1.602  -2.552  0.00  0.00    +0.292 HD
ENDBRANCH  17  18
BRANCH  12  20
ATOM     20  C   UNL     1      -1.376  -0.512   0.012  0.00  0.00    -0.040 C 
BRANCH  20  22
ATOM     21  C   UNL     1      -0.018   1.465   0.010  0.00  0.00    -0.096 C 
ATOM     22  N   UNL     1       0.002  -0.004   0.002  0.00  0.00    +0.379 N 
ATOM     23  C   UNL     1       0.713  -0.491   1.192  0.00  0.00    -0.096 C 
ATOM     24  H   UNL     1       0.474  -0.330  -0.828  0.00  0.00    -0.082 HD
ENDBRANCH  20  22
ENDBRANCH  12  20
ENDBRANCH   1  14
BRANCH  10  25
ATOM     25  C   UNL     1       1.079  -9.052   1.894  0.00  0.00    +0.109 C 
ATOM     26  C   UNL     1       1.316  -9.866   3.183  0.00  0.00    +0.027 C 
ATOM     27  C   UNL     1       2.606 -10.673   2.890  0.00  0.00    +0.002 C 
ATOM     28  C   UNL     1       3.464  -9.666   2.086  0.00  0.00    +0.002 C 
ATOM     29  C   UNL     1       2.445  -8.925   1.197  0.00  0.00    +0.027 C 
ENDBRANCH  10  25
TORSDOF 5
