REMARK  Name = ZINC37201956
REMARK  10 active torsions:
REMARK  status: ('A' for Active; 'I' for Inactive)
REMARK    1  A    between atoms: C_1  and  C_2
REMARK    2  A    between atoms: C_3  and  C_11
REMARK    3  A    between atoms: C_5  and  C_7
REMARK    4  A    between atoms: C_7  and  C_8
REMARK    5  A    between atoms: C_7  and  C_9
REMARK    6  A    between atoms: C_7  and  C_10
REMARK    7  A    between atoms: C_11  and  C_13
REMARK    8  A    between atoms: C_11  and  N_14
REMARK    9  A    between atoms: N_14  and  C_15
REMARK   10  A    between atoms: C_18  and  O_21
REMARK                            x       y       z     vdW  Elec       q    Type
REMARK                         _______ _______ _______ _____ _____    ______ ____
ROOT
ATOM      1  C   UNL     1      -0.027  -0.333  -2.498  0.00  0.00    -0.035 C 
ATOM      2  C   UNL     1      -1.406  -0.413  -3.157  0.00  0.00    -0.008 C 
ENDROOT
BRANCH   1   5
ATOM      3  C   UNL     1      -0.088   0.940   0.339  0.00  0.00    +0.066 C 
ATOM      4  C   UNL     1      -0.089  -0.546   0.086  0.00  0.00    +0.047 A 
ATOM      5  C   UNL     1      -0.061  -1.051  -1.174  0.00  0.00    -0.002 A 
ATOM      6  S   UNL     1      -0.076  -2.803  -0.826  0.00  0.00    -0.078 S 
ATOM      7  C   UNL     1      -0.115  -2.704   0.854  0.00  0.00    +0.084 A 
ATOM      8  N   UNL     1      -0.110  -1.414   1.077  0.00  0.00    -0.248 NA
BRANCH   7   9
ATOM      9  C   UNL     1      -0.143  -3.829   1.857  0.00  0.00    +0.011 C 
ATOM     10  C   UNL     1      -1.412  -3.724   2.705  0.00  0.00    +0.017 C 
ATOM     11  C   UNL     1      -0.131  -5.170   1.120  0.00  0.00    +0.017 C 
ATOM     12  C   UNL     1       1.086  -3.734   2.764  0.00  0.00    +0.017 C 
ENDBRANCH   7   9
ENDBRANCH   1   5
BRANCH   1  13
ATOM     13  N   UNL     1       0.971  -0.965  -3.372  0.00  0.00    +0.386 N 
ATOM     14  H   UNL     1       0.776  -1.952  -3.446  0.00  0.00    -0.085 HD
ATOM     15  H   UNL     1       0.929  -0.544  -4.289  0.00  0.00    -0.085 HD
BRANCH  13  16
ATOM     16  C   UNL     1       2.312  -0.771  -2.804  0.00  0.00    -0.071 C 
ATOM     17  C   UNL     1       2.667   0.717  -2.832  0.00  0.00    -0.013 C 
ATOM     18  C   UNL     1       4.064   0.919  -2.241  0.00  0.00    +0.030 C 
ATOM     19  C   UNL     1       5.085   0.135  -3.067  0.00  0.00    +0.114 C 
ATOM     20  C   UNL     1       4.730  -1.353  -3.039  0.00  0.00    +0.030 C 
ATOM     21  C   UNL     1       3.333  -1.555  -3.631  0.00  0.00    -0.013 C 
BRANCH  19  22
ATOM     22  O   UNL     1       5.067   0.604  -4.417  0.00  0.00    -0.392 OA
ATOM     23  H   UNL     1       5.692   0.150  -4.999  0.00  0.00    +0.210 HD
ENDBRANCH  19  22
ENDBRANCH  13  16
ENDBRANCH   1  13
TORSDOF 5
