REMARK  Name = ZINC14544083
REMARK  7 active torsions:
REMARK  status: ('A' for Active; 'I' for Inactive)
REMARK    1  A    between atoms: C_1  and  O_2
REMARK    2  A    between atoms: O_2  and  C_3
REMARK    3  A    between atoms: C_12  and  C_13
REMARK    4  A    between atoms: C_23  and  O_31
REMARK    5  A    between atoms: C_26  and  O_29
REMARK    6  A    between atoms: O_29  and  C_30
REMARK    7  A    between atoms: O_31  and  C_32
REMARK                            x       y       z     vdW  Elec       q    Type
REMARK                         _______ _______ _______ _____ _____    ______ ____
ROOT
ATOM      1  C   UNL     1      -0.051   4.221   0.026  0.00  0.00    +0.109 C 
ATOM      2  C   UNL     1      -0.630   4.287  -1.389  0.00  0.00    +0.029 C 
ATOM      3  C   UNL     1       0.325   5.157  -2.254  0.00  0.00    +0.033 C 
ATOM      4  C   UNL     1      -0.093   6.576  -1.925  0.00  0.00    -0.030 C 
ATOM      5  C   UNL     1      -1.311   6.597  -1.444  0.00  0.00    -0.022 C 
ATOM      6  C   UNL     1      -1.877   5.197  -1.377  0.00  0.00    +0.052 C 
ATOM      7  C   UNL     1      -2.683   5.011  -0.125  0.00  0.00    +0.026 A 
ATOM      8  C   UNL     1      -3.923   5.643  -0.046  0.00  0.00    +0.126 A 
ATOM      9  C   UNL     1      -4.711   5.510   1.084  0.00  0.00    +0.049 A 
ATOM     10  C   UNL     1      -4.270   4.745   2.148  0.00  0.00    +0.051 A 
ATOM     11  C   UNL     1      -3.042   4.114   2.078  0.00  0.00    +0.141 A 
ATOM     12  C   UNL     1      -2.244   4.244   0.937  0.00  0.00    +0.077 A 
ATOM     13  N   UNL     1      -1.016   3.578   0.918  0.00  0.00    -0.333 N 
ATOM     14  H   UNL     1      -1.136   2.605   0.679  0.00  0.00    +0.147 HD
ENDROOT
BRANCH   1  24
ATOM     15  C   UNL     1       1.190   2.070  -0.171  0.00  0.00    +0.126 A 
ATOM     16  C   UNL     1       2.367   1.315  -0.183  0.00  0.00    +0.046 A 
ATOM     17  C   UNL     1       3.580   1.909  -0.028  0.00  0.00    +0.012 A 
ATOM     18  C   UNL     1       3.656   3.300   0.160  0.00  0.00    -0.017 A 
ATOM     19  C   UNL     1       4.893   3.946   0.330  0.00  0.00    +0.008 A 
ATOM     20  C   UNL     1       4.930   5.294   0.509  0.00  0.00    +0.001 A 
ATOM     21  C   UNL     1       3.758   6.048   0.527  0.00  0.00    +0.001 A 
ATOM     22  C   UNL     1       2.543   5.458   0.366  0.00  0.00    +0.009 A 
ATOM     23  C   UNL     1       2.464   4.067   0.178  0.00  0.00    -0.009 A 
ATOM     24  C   UNL     1       1.228   3.423   0.009  0.00  0.00    +0.022 A 
BRANCH  15  26
ATOM     25  C   UNL     1       0.017   0.031  -0.518  0.00  0.00    +0.277 C 
ATOM     26  O   UNL     1      -0.007   1.448  -0.335  0.00  0.00    -0.495 OA
ENDBRANCH  15  26
ENDBRANCH   1  24
BRANCH  11  27
ATOM     27  O   UNL     1      -2.608   3.361   3.125  0.00  0.00    -0.493 OA
ATOM     28  C   UNL     1      -3.471   3.268   4.260  0.00  0.00    +0.277 C 
ENDBRANCH  11  27
BRANCH   8  29
ATOM     29  O   UNL     1      -4.362   6.397  -1.088  0.00  0.00    -0.495 OA
ATOM     30  C   UNL     1      -5.641   7.019  -0.946  0.00  0.00    +0.277 C 
ENDBRANCH   8  29
TORSDOF 4
