REMARK  Name = ZINC62038854
REMARK  9 active torsions:
REMARK  status: ('A' for Active; 'I' for Inactive)
REMARK    1  A    between atoms: C_1  and  C_2
REMARK    2  A    between atoms: C_3  and  C_27
REMARK    3  A    between atoms: C_10  and  S_11
REMARK    4  A    between atoms: S_11  and  C_12
REMARK    5  A    between atoms: C_12  and  C_14
REMARK    6  A    between atoms: C_12  and  C_15
REMARK    7  A    between atoms: N_17  and  C_18
REMARK    8  A    between atoms: C_20  and  C_25
REMARK    9  A    between atoms: C_23  and  O_24
REMARK                            x       y       z     vdW  Elec       q    Type
REMARK                         _______ _______ _______ _____ _____    ______ ____
ROOT
ATOM      1  C   UNL     1      -0.004   1.486  -0.041  0.00  0.00    +0.052 C 
ATOM      2  C   UNL     1       0.012  -0.021  -0.049  0.00  0.00    -0.003 A 
ATOM      3  C   UNL     1      -1.042  -0.871  -0.041  0.00  0.00    +0.004 A 
ATOM      4  C   UNL     1      -0.786  -2.307  -0.051  0.00  0.00    +0.047 A 
ATOM      5  C   UNL     1       0.577  -2.668  -0.069  0.00  0.00    +0.113 A 
ATOM      6  S   UNL     1       1.424  -1.109  -0.079  0.00  0.00    -0.073 S 
ATOM      7  N   UNL     1       0.954  -3.932  -0.081  0.00  0.00    -0.228 NA
ATOM      8  C   UNL     1       0.055  -4.897  -0.075  0.00  0.00    +0.223 A 
ATOM      9  N   UNL     1      -1.239  -4.632  -0.059  0.00  0.00    -0.228 NA
ATOM     10  C   UNL     1      -1.704  -3.392  -0.046  0.00  0.00    +0.110 A 
ENDROOT
BRANCH   3  11
ATOM     11  C   UNL     1      -2.430  -0.352  -0.021  0.00  0.00    -0.016 A 
ATOM     12  C   UNL     1      -3.248  -0.585   1.084  0.00  0.00    +0.010 A 
ATOM     13  C   UNL     1      -4.540  -0.099   1.097  0.00  0.00    +0.020 A 
ATOM     14  C   UNL     1      -5.024   0.618   0.017  0.00  0.00    +0.041 A 
ATOM     15  C   UNL     1      -4.215   0.852  -1.083  0.00  0.00    +0.020 A 
ATOM     16  C   UNL     1      -2.920   0.376  -1.104  0.00  0.00    +0.010 A 
ATOM     17 CL   UNL     1      -6.649   1.226   0.040  0.00  0.00    -0.084 Cl
ENDBRANCH   3  11
BRANCH  10  18
ATOM     18  S   UNL     1      -3.439  -3.091  -0.023  0.00  0.00    -0.093 S 
BRANCH  18  19
ATOM     19  C   UNL     1      -4.173  -4.750  -0.024  0.00  0.00    +0.136 C 
ATOM     20  C   UNL     1      -3.837  -5.455  -1.339  0.00  0.00    +0.029 C 
BRANCH  19  21
ATOM     21  C   UNL     1      -5.669  -4.638   0.119  0.00  0.00    +0.230 C 
ATOM     22  O   UNL     1      -6.238  -3.627  -0.233  0.00  0.00    -0.274 OA
ATOM     23  N   UNL     1      -6.375  -5.662   0.638  0.00  0.00    -0.282 N 
ATOM     24  H   UNL     1      -5.929  -6.495   0.859  0.00  0.00    +0.155 HD
BRANCH  23  25
ATOM     25  C   UNL     1      -7.752  -5.524   0.858  0.00  0.00    +0.076 A 
ATOM     26  C   UNL     1      -8.518  -4.769  -0.010  0.00  0.00    +0.038 A 
ATOM     27  C   UNL     1      -9.893  -4.633   0.214  0.00  0.00    +0.016 A 
ATOM     28  C   UNL     1     -10.485  -5.263   1.315  0.00  0.00    +0.015 A 
ATOM     29  C   UNL     1      -9.715  -6.014   2.175  0.00  0.00    +0.048 A 
ATOM     30  C   UNL     1      -8.351  -6.154   1.950  0.00  0.00    +0.138 A 
BRANCH  30  31
ATOM     31  O   UNL     1      -7.598  -6.899   2.799  0.00  0.00    -0.505 OA
ATOM     32  H   UNL     1      -7.229  -6.400   3.539  0.00  0.00    +0.292 HD
ENDBRANCH  30  31
BRANCH  27  33
ATOM     33  C   UNL     1     -10.713  -3.832  -0.704  0.00  0.00    +0.258 C 
ATOM     34  O   UNL     1     -11.904  -3.716  -0.509  0.00  0.00    -0.296 OA
ENDBRANCH  27  33
ENDBRANCH  23  25
ENDBRANCH  19  21
ENDBRANCH  18  19
ENDBRANCH  10  18
TORSDOF 7
