REMARK  Name = ZINC39227982
REMARK  5 active torsions:
REMARK  status: ('A' for Active; 'I' for Inactive)
REMARK    1  A    between atoms: C_1  and  C_2
REMARK    2  A    between atoms: C_2  and  C_4
REMARK    3  A    between atoms: C_2  and  N_10
REMARK    4  A    between atoms: C_11  and  C_13
REMARK    5  A    between atoms: C_15  and  O_40
REMARK                            x       y       z     vdW  Elec       q    Type
REMARK                         _______ _______ _______ _____ _____    ______ ____
ROOT
ATOM      1  C   UNL     1      -3.465  -1.164  -1.134  0.00  0.00    +0.107 C 
ATOM      2  C   UNL     1      -4.347  -0.235  -0.295  0.00  0.00    +0.127 C 
ATOM      3  C   UNL     1      -5.785  -0.754  -0.290  0.00  0.00    +0.032 C 
ATOM      4  C   UNL     1      -6.318  -0.818  -1.724  0.00  0.00    +0.004 C 
ATOM      5  C   UNL     1      -5.434  -1.755  -2.546  0.00  0.00    -0.024 C 
ATOM      6  C   UNL     1      -4.002  -1.213  -2.564  0.00  0.00    +0.004 C 
ATOM      7  C   UNL     1      -3.127  -2.123  -3.428  0.00  0.00    -0.005 C 
ATOM      8  C   UNL     1      -3.736  -2.203  -4.829  0.00  0.00    -0.020 C 
ATOM      9  C   UNL     1      -2.896  -3.095  -5.708  0.00  0.00    +0.006 A 
ATOM     10  H   UNL     1      -0.922  -2.602  -5.261  0.00  0.00    +0.166 HD
ATOM     11  C   UNL     1      -3.436  -3.990  -6.568  0.00  0.00    -0.022 A 
ATOM     12  C   UNL     1      -2.340  -4.658  -7.233  0.00  0.00    +0.003 A 
ATOM     13  C   UNL     1      -2.287  -5.661  -8.206  0.00  0.00    +0.010 A 
ATOM     14  C   UNL     1      -1.040  -6.063  -8.617  0.00  0.00    +0.001 A 
ATOM     15  C   UNL     1       0.119  -5.510  -8.100  0.00  0.00    +0.002 A 
ATOM     16  C   UNL     1       0.097  -4.517  -7.135  0.00  0.00    +0.026 A 
ATOM     17  C   UNL     1      -1.155  -4.088  -6.699  0.00  0.00    +0.047 A 
ATOM     18  N   UNL     1      -1.531  -3.149  -5.782  0.00  0.00    -0.359 N 
ATOM     19  C   UNL     1      -4.922  -4.185  -6.736  0.00  0.00    +0.019 C 
ATOM     20  C   UNL     1      -5.636  -2.991  -6.085  0.00  0.00    -0.073 C 
ATOM     21  N   UNL     1      -5.091  -2.764  -4.743  0.00  0.00    +0.386 N 
ATOM     22  C   UNL     1      -5.954  -1.849  -3.982  0.00  0.00    -0.074 C 
ATOM     23  H   UNL     1      -5.048  -3.647  -4.256  0.00  0.00    -0.081 HD
ENDROOT
BRANCH   1  25
ATOM     24  N   UNL     1      -1.372  -0.511   0.012  0.00  0.00    -0.308 N 
ATOM     25  C   UNL     1      -2.051  -0.643  -1.145  0.00  0.00    +0.219 C 
ATOM     26  O   UNL     1      -1.524  -0.341  -2.194  0.00  0.00    -0.275 OA
ATOM     27  H   UNL     1      -1.794  -0.752   0.852  0.00  0.00    +0.149 HD
BRANCH  24  29
ATOM     28  C   UNL     1      -0.019   1.526   0.010  0.00  0.00    +0.033 C 
ATOM     29  C   UNL     1       0.002  -0.004   0.002  0.00  0.00    +0.100 C 
BRANCH  29  30
ATOM     30  C   UNL     1       0.731  -0.503   1.223  0.00  0.00    -0.027 A 
ATOM     31  C   UNL     1       0.081  -0.558   2.442  0.00  0.00    +0.005 A 
ATOM     32  C   UNL     1       0.749  -1.016   3.562  0.00  0.00    +0.000 A 
ATOM     33  C   UNL     1       2.068  -1.420   3.463  0.00  0.00    +0.000 A 
ATOM     34  C   UNL     1       2.718  -1.365   2.244  0.00  0.00    +0.000 A 
ATOM     35  C   UNL     1       2.048  -0.911   1.123  0.00  0.00    +0.005 A 
ENDBRANCH  29  30
ENDBRANCH  24  29
ENDBRANCH   1  25
BRANCH   2  36
ATOM     36  O   UNL     1      -4.319   1.079  -0.856  0.00  0.00    -0.391 OA
ATOM     37  H   UNL     1      -4.857   1.723  -0.375  0.00  0.00    +0.210 HD
ENDBRANCH   2  36
TORSDOF 4
