REMARK  Name = ZINC09381380
REMARK  8 active torsions:
REMARK  status: ('A' for Active; 'I' for Inactive)
REMARK    1  A    between atoms: C_1  and  C_2
REMARK    2  A    between atoms: C_2  and  O_3
REMARK    3  A    between atoms: O_3  and  C_4
REMARK    4  A    between atoms: C_4  and  C_6
REMARK    5  A    between atoms: C_10  and  N_23
REMARK    6  A    between atoms: N_14  and  C_16
REMARK    7  A    between atoms: C_19  and  C_22
REMARK    8  A    between atoms: C_24  and  C_26
REMARK                            x       y       z     vdW  Elec       q    Type
REMARK                         _______ _______ _______ _____ _____    ______ ____
ROOT
ATOM      1  C   UNL     1      -3.469  10.360  -2.425  0.00  0.00    +0.177 A 
ATOM      2  C   UNL     1      -2.582   9.470  -1.620  0.00  0.00    +0.030 A 
ATOM      3  C   UNL     1      -1.894   9.813  -0.486  0.00  0.00    +0.058 A 
ATOM      4  S   UNL     1      -1.045   8.318  -0.036  0.00  0.00    -0.080 S 
ATOM      5  C   UNL     1      -1.584   7.278  -1.305  0.00  0.00    +0.085 A 
ATOM      6  C   UNL     1      -2.417   8.089  -2.080  0.00  0.00    +0.079 A 
ATOM      7  C   UNL     1      -3.127   7.698  -3.262  0.00  0.00    +0.282 A 
ATOM      8  O   UNL     1      -3.024   6.559  -3.680  0.00  0.00    -0.265 OA
ATOM      9  N   UNL     1      -3.902   8.576  -3.913  0.00  0.00    -0.195 N 
ATOM     10  N   UNL     1      -4.063   9.894  -3.489  0.00  0.00    -0.156 NA
ENDROOT
BRANCH   9  11
ATOM     11  C   UNL     1      -4.574   8.155  -5.065  0.00  0.00    +0.069 A 
ATOM     12  C   UNL     1      -3.885   7.481  -6.065  0.00  0.00    +0.028 A 
ATOM     13  C   UNL     1      -4.553   7.062  -7.199  0.00  0.00    +0.005 A 
ATOM     14  C   UNL     1      -5.904   7.321  -7.344  0.00  0.00    -0.050 A 
ATOM     15  C   UNL     1      -6.591   7.996  -6.352  0.00  0.00    +0.005 A 
ATOM     16  C   UNL     1      -5.931   8.414  -5.213  0.00  0.00    +0.028 A 
ATOM     17  C   UNL     1      -6.628   6.868  -8.585  0.00  0.00    +0.044 C 
ENDBRANCH   9  11
BRANCH   5  18
ATOM     18  N   UNL     1      -1.260   5.945  -1.510  0.00  0.00    -0.279 N 
ATOM     19  C   UNL     1      -0.428   5.314  -0.657  0.00  0.00    +0.224 C 
ATOM     20  O   UNL     1       0.036   5.912   0.290  0.00  0.00    -0.275 OA
ATOM     21  H   UNL     1      -1.631   5.466  -2.268  0.00  0.00    +0.155 HD
BRANCH  19  22
ATOM     22  C   UNL     1      -0.076   3.866  -0.881  0.00  0.00    +0.048 C 
ATOM     23  C   UNL     1       0.604   3.711  -2.243  0.00  0.00    +0.019 C 
ATOM     24  C   UNL     1       0.962   2.240  -2.470  0.00  0.00    -0.009 C 
ATOM     25  C   UNL     1       1.913   1.771  -1.367  0.00  0.00    +0.007 C 
ATOM     26  C   UNL     1       1.233   1.926  -0.006  0.00  0.00    -0.009 C 
ATOM     27  C   UNL     1       0.876   3.397   0.221  0.00  0.00    +0.019 C 
ATOM     28  C   UNL     1      -0.041   1.081   0.027  0.00  0.00    +0.007 C 
ATOM     29  C   UNL     1      -0.993   1.550  -1.075  0.00  0.00    -0.009 C 
ATOM     30  C   UNL     1      -0.313   1.395  -2.437  0.00  0.00    +0.007 C 
ATOM     31  C   UNL     1      -1.351   3.020  -0.848  0.00  0.00    +0.019 C 
ENDBRANCH  19  22
ENDBRANCH   5  18
BRANCH   1  32
ATOM     32  C   UNL     1      -3.674  11.762  -2.018  0.00  0.00    +0.360 C 
ATOM     33  O   UNL     1      -3.120  12.195  -1.027  0.00  0.00    -0.243 OA
BRANCH  32  34
ATOM     34  O   UNL     1      -4.476  12.564  -2.747  0.00  0.00    -0.460 OA
BRANCH  34  36
ATOM     35  C   UNL     1      -5.571  14.684  -3.233  0.00  0.00    +0.048 C 
ATOM     36  C   UNL     1      -4.632  13.933  -2.287  0.00  0.00    +0.229 C 
ENDBRANCH  34  36
ENDBRANCH  32  34
ENDBRANCH   1  32
TORSDOF 6
