REMARK  Name = ZINC63490442
REMARK  9 active torsions:
REMARK  status: ('A' for Active; 'I' for Inactive)
REMARK    1  A    between atoms: C_1  and  C_2
REMARK    2  A    between atoms: C_4  and  C_14
REMARK    3  A    between atoms: C_7  and  O_12
REMARK    4  A    between atoms: O_12  and  C_13
REMARK    5  A    between atoms: C_14  and  C_15
REMARK    6  A    between atoms: C_15  and  N_16
REMARK    7  A    between atoms: N_16  and  C_17
REMARK    8  A    between atoms: C_17  and  N_19
REMARK    9  A    between atoms: N_19  and  C_20
REMARK                            x       y       z     vdW  Elec       q    Type
REMARK                         _______ _______ _______ _____ _____    ______ ____
ROOT
ATOM      1  C   UNL     1       0.352  -0.269  -2.664  0.00  0.00    +0.052 C 
ENDROOT
BRANCH   1   4
ATOM      2  C   UNL     1      -0.019   1.526   0.010  0.00  0.00    +0.035 C 
ATOM      3  C   UNL     1       0.002  -0.004   0.002  0.00  0.00    +0.103 C 
ATOM      4  C   UNL     1       0.729  -0.509  -1.224  0.00  0.00    -0.037 C 
ATOM      5  C   UNL     1       1.785  -1.220  -0.768  0.00  0.00    +0.003 A 
ATOM      6  C   UNL     1       2.858  -1.954  -1.447  0.00  0.00    +0.055 A 
ATOM      7  C   UNL     1       3.803  -2.586  -0.711  0.00  0.00    +0.121 A 
ATOM      8  C   UNL     1       3.796  -2.567   0.695  0.00  0.00    +0.047 A 
ATOM      9  C   UNL     1       2.851  -1.919   1.409  0.00  0.00    +0.029 A 
ATOM     10  C   UNL     1       1.779  -1.200   0.713  0.00  0.00    +0.043 A 
ATOM     11  N   UNL     1       0.758  -0.506   1.155  0.00  0.00    -0.378 N 
ATOM     12  H   UNL     1       0.540  -0.349   2.087  0.00  0.00    +0.160 HD
BRANCH   7  13
ATOM     13  O   UNL     1       4.792  -3.263  -1.353  0.00  0.00    -0.495 OA
ATOM     14  C   UNL     1       5.767  -3.915  -0.537  0.00  0.00    +0.277 C 
ENDBRANCH   7  13
ENDBRANCH   1   4
BRANCH   1  15
ATOM     15  C   UNL     1       1.363  -0.963  -3.578  0.00  0.00    +0.107 C 
BRANCH  15  16
ATOM     16  N   UNL     1       0.997  -0.729  -4.977  0.00  0.00    -0.326 N 
ATOM     17  H   UNL     1       0.212  -0.201  -5.192  0.00  0.00    +0.148 HD
BRANCH  16  18
ATOM     18  C   UNL     1       1.750  -1.249  -5.967  0.00  0.00    +0.130 C 
ATOM     19  S   UNL     1       3.135  -2.182  -5.589  0.00  0.00    -0.019 S 
BRANCH  18  20
ATOM     20  N   UNL     1       1.413  -1.035  -7.254  0.00  0.00    -0.324 N 
ATOM     21  H   UNL     1       0.628  -0.506  -7.468  0.00  0.00    +0.148 HD
BRANCH  20  22
ATOM     22  C   UNL     1       2.231  -1.600  -8.330  0.00  0.00    +0.072 C 
ATOM     23  C   UNL     1       1.788  -3.038  -8.606  0.00  0.00    +0.022 C 
ATOM     24  C   UNL     1       2.643  -3.628  -9.730  0.00  0.00    +0.002 C 
ATOM     25  C   UNL     1       2.470  -2.788 -10.997  0.00  0.00    +0.000 C 
ATOM     26  C   UNL     1       2.914  -1.350 -10.720  0.00  0.00    +0.002 C 
ATOM     27  C   UNL     1       2.059  -0.760  -9.597  0.00  0.00    +0.022 C 
ENDBRANCH  20  22
ENDBRANCH  18  20
ENDBRANCH  16  18
ENDBRANCH  15  16
ENDBRANCH   1  15
TORSDOF 7
