REMARK  Name = ZINC60093395
REMARK  14 active torsions:
REMARK  status: ('A' for Active; 'I' for Inactive)
REMARK    1  A    between atoms: C_1  and  C_2
REMARK    2  A    between atoms: C_2  and  C_3
REMARK    3  A    between atoms: C_2  and  C_4
REMARK    4  A    between atoms: C_2  and  C_5
REMARK    5  A    between atoms: C_12  and  C_14
REMARK    6  A    between atoms: C_19  and  C_22
REMARK    7  A    between atoms: N_24  and  C_25
REMARK    8  A    between atoms: C_25  and  C_26
REMARK    9  A    between atoms: C_26  and  C_27
REMARK   10  A    between atoms: C_26  and  C_28
REMARK   11  A    between atoms: C_26  and  C_29
REMARK   12  A    between atoms: C_29  and  N_30
REMARK   13  A    between atoms: N_30  and  C_31
REMARK   14  A    between atoms: N_30  and  C_32
REMARK                            x       y       z     vdW  Elec       q    Type
REMARK                         _______ _______ _______ _____ _____    ______ ____
ROOT
ATOM      1  C   UNL     1       6.175   1.195  -6.514  0.00  0.00    +0.253 C 
ATOM      2  O   UNL     1       5.126   1.208  -5.896  0.00  0.00    -0.269 OA
ATOM      3  N   UNL     1       6.273   0.495  -7.661  0.00  0.00    -0.297 N 
ATOM      4  C   UNL     1       5.076  -0.078  -8.293  0.00  0.00    +0.109 C 
ATOM      5  C   UNL     1       5.310  -1.574  -8.525  0.00  0.00    +0.032 C 
ATOM      6  C   UNL     1       6.598  -1.767  -9.328  0.00  0.00    +0.078 C 
ATOM      7  C   UNL     1       7.783  -1.211  -8.536  0.00  0.00    +0.032 C 
ATOM      8  C   UNL     1       7.577   0.294  -8.307  0.00  0.00    +0.109 C 
ENDROOT
BRANCH   1  15
ATOM      9  C   UNL     1      10.198   4.916  -3.546  0.00  0.00    -0.001 C 
ATOM     10  C   UNL     1      11.366   4.136  -4.156  0.00  0.00    +0.009 C 
ATOM     11  C   UNL     1      10.999   3.744  -5.594  0.00  0.00    +0.043 C 
ATOM     12  C   UNL     1       9.624   3.146  -5.588  0.00  0.00    -0.006 A 
ATOM     13  C   UNL     1       8.706   3.222  -4.582  0.00  0.00    -0.036 A 
ATOM     14  C   UNL     1       7.491   2.587  -4.798  0.00  0.00    +0.024 A 
ATOM     15  C   UNL     1       7.331   1.942  -6.010  0.00  0.00    +0.075 A 
ATOM     16  S   UNL     1       8.899   2.255  -6.800  0.00  0.00    -0.088 S 
ATOM     17  C   UNL     1       9.022   3.973  -3.292  0.00  0.00    +0.040 C 
BRANCH   9  19
ATOM     18  C   UNL     1      11.076   4.439  -1.255  0.00  0.00    +0.011 C 
ATOM     19  C   UNL     1      10.642   5.543  -2.222  0.00  0.00    -0.035 C 
ATOM     20  C   UNL     1       9.478   6.326  -1.613  0.00  0.00    +0.011 C 
ATOM     21  C   UNL     1      11.817   6.489  -2.475  0.00  0.00    +0.011 C 
ENDBRANCH   9  19
ENDBRANCH   1  15
BRANCH   6  22
ATOM     22  C   UNL     1       6.813  -3.236  -9.587  0.00  0.00    +0.216 C 
ATOM     23  O   UNL     1       6.014  -4.049  -9.171  0.00  0.00    -0.276 OA
ATOM     24  N   UNL     1       7.892  -3.647 -10.282  0.00  0.00    -0.315 N 
ATOM     25  H   UNL     1       8.531  -2.997 -10.615  0.00  0.00    +0.149 HD
BRANCH  24  26
ATOM     26  C   UNL     1       8.101  -5.075 -10.534  0.00  0.00    +0.108 C 
BRANCH  26  27
ATOM     27  C   UNL     1       9.389  -5.268 -11.337  0.00  0.00    -0.034 C 
ATOM     28  C   UNL     1       9.275  -4.526 -12.670  0.00  0.00    +0.010 C 
ATOM     29  C   UNL     1      10.573  -4.712 -10.543  0.00  0.00    +0.010 C 
BRANCH  27  30
ATOM     30  C   UNL     1       9.607  -6.759 -11.600  0.00  0.00    -0.072 C 
BRANCH  30  31
ATOM     31  N   UNL     1      10.880  -6.950 -12.309  0.00  0.00    +0.376 N 
ATOM     32  C   UNL     1      11.976  -7.030 -11.334  0.00  0.00    -0.097 C 
ATOM     33  C   UNL     1      10.825  -8.195 -13.087  0.00  0.00    -0.097 C 
ATOM     34  H   UNL     1      11.039  -6.172 -12.931  0.00  0.00    -0.083 HD
ENDBRANCH  30  31
ENDBRANCH  27  30
ENDBRANCH  26  27
ENDBRANCH  24  26
ENDBRANCH   6  22
TORSDOF 7
