REMARK  Name = ZINC39631132
REMARK  11 active torsions:
REMARK  status: ('A' for Active; 'I' for Inactive)
REMARK    1  A    between atoms: C_1  and  C_2
REMARK    2  A    between atoms: C_2  and  C_4
REMARK    3  A    between atoms: C_2  and  N_11
REMARK    4  A    between atoms: C_4  and  C_5
REMARK    5  A    between atoms: C_5  and  C_6
REMARK    6  A    between atoms: C_6  and  C_7
REMARK    7  A    between atoms: C_7  and  C_8
REMARK    8  A    between atoms: C_7  and  C_9
REMARK    9  A    between atoms: C_7  and  O_10
REMARK   10  A    between atoms: C_12  and  C_14
REMARK   11  A    between atoms: C_25  and  C_27
REMARK                            x       y       z     vdW  Elec       q    Type
REMARK                         _______ _______ _______ _____ _____    ______ ____
ROOT
ATOM      1  C   UNL     1     -10.252   5.843  -4.896  0.00  0.00    +0.100 C 
ATOM      2  C   UNL     1     -11.421   6.447  -4.086  0.00  0.00    +0.121 C 
ATOM      3  N   UNL     1     -10.834   6.763  -2.762  0.00  0.00    -0.296 N 
ATOM      4  C   UNL     1      -9.482   7.286  -3.074  0.00  0.00    +0.115 C 
ATOM      5  C   UNL     1      -8.982   6.399  -4.232  0.00  0.00    -0.004 C 
ATOM      6  C   UNL     1      -8.185   7.234  -5.230  0.00  0.00    -0.010 C 
ATOM      7  C   UNL     1      -6.898   7.727  -4.563  0.00  0.00    -0.082 C 
ATOM      8  N   UNL     1      -6.105   6.576  -4.114  0.00  0.00    +0.379 N 
ATOM      9  C   UNL     1      -6.842   5.831  -3.086  0.00  0.00    -0.082 C 
ATOM     10  C   UNL     1      -8.127   5.258  -3.690  0.00  0.00    -0.010 C 
ATOM     11  C   UNL     1     -11.402   6.611  -1.549  0.00  0.00    +0.248 C 
ATOM     12  O   UNL     1     -10.888   7.117  -0.570  0.00  0.00    -0.270 OA
ATOM     13  H   UNL     1      -5.920   5.970  -4.899  0.00  0.00    -0.086 HD
ATOM     14  H   UNL     1      -5.230   6.901  -3.730  0.00  0.00    -0.086 HD
ENDROOT
BRANCH  11  15
ATOM     15  C   UNL     1     -12.648   5.831  -1.409  0.00  0.00    +0.055 A 
ATOM     16  C   UNL     1     -12.595   4.442  -1.276  0.00  0.00    +0.016 A 
ATOM     17  C   UNL     1     -13.761   3.719  -1.146  0.00  0.00    +0.021 A 
ATOM     18  C   UNL     1     -14.986   4.367  -1.148  0.00  0.00    +0.042 A 
ATOM     19  C   UNL     1     -15.047   5.743  -1.280  0.00  0.00    +0.040 A 
ATOM     20  C   UNL     1     -13.886   6.480  -1.404  0.00  0.00    +0.054 A 
ATOM     21 CL   UNL     1     -13.963   8.207  -1.562  0.00  0.00    -0.083 Cl
ATOM     22 CL   UNL     1     -16.450   3.448  -0.984  0.00  0.00    -0.083 Cl
ENDBRANCH  11  15
BRANCH   1  24
ATOM     23  N   UNL     1      -9.715   3.599  -5.787  0.00  0.00    -0.312 N 
ATOM     24  C   UNL     1     -10.275   4.339  -4.809  0.00  0.00    +0.218 C 
ATOM     25  O   UNL     1     -10.797   3.794  -3.860  0.00  0.00    -0.275 OA
ATOM     26  H   UNL     1      -9.245   4.033  -6.515  0.00  0.00    +0.149 HD
BRANCH  23  28
ATOM     27  C   UNL     1      -8.682   1.570  -4.892  0.00  0.00    +0.028 C 
ATOM     28  C   UNL     1      -9.816   2.138  -5.748  0.00  0.00    +0.070 C 
BRANCH  28  29
ATOM     29  C   UNL     1      -9.709   1.582  -7.170  0.00  0.00    +0.022 C 
BRANCH  29  30
ATOM     30  C   UNL     1     -11.051   1.752  -7.886  0.00  0.00    +0.005 C 
BRANCH  30  31
ATOM     31  C   UNL     1     -10.986   1.076  -9.257  0.00  0.00    +0.034 C 
BRANCH  31  32
ATOM     32  C   UNL     1     -12.341   1.209  -9.956  0.00  0.00    +0.061 C 
ATOM     33  C   UNL     1     -12.583   2.674 -10.323  0.00  0.00    +0.041 C 
ATOM     34  C   UNL     1     -12.345   0.357 -11.226  0.00  0.00    +0.041 C 
BRANCH  32  35
ATOM     35  O   UNL     1     -13.376   0.761  -9.078  0.00  0.00    -0.389 OA
ATOM     36  H   UNL     1     -13.494   1.315  -8.295  0.00  0.00    +0.210 HD
ENDBRANCH  32  35
ENDBRANCH  31  32
ENDBRANCH  30  31
ENDBRANCH  29  30
ENDBRANCH  28  29
ENDBRANCH  23  28
ENDBRANCH   1  24
TORSDOF 8
