REMARK  Name = ZINC35747286
REMARK  15 active torsions:
REMARK  status: ('A' for Active; 'I' for Inactive)
REMARK    1  A    between atoms: C_1  and  O_2
REMARK    2  A    between atoms: O_2  and  C_3
REMARK    3  A    between atoms: C_6  and  C_11
REMARK    4  A    between atoms: C_8  and  O_9
REMARK    5  A    between atoms: O_9  and  C_10
REMARK    6  A    between atoms: C_20  and  C_22
REMARK    7  A    between atoms: C_22  and  N_23
REMARK    8  A    between atoms: N_23  and  C_24
REMARK    9  A    between atoms: N_23  and  C_30
REMARK   10  A    between atoms: C_24  and  C_25
REMARK   11  A    between atoms: C_30  and  C_31
REMARK   12  A    between atoms: C_31  and  C_33
REMARK   13  A    between atoms: C_31  and  O_37
REMARK   14  A    between atoms: C_33  and  C_34
REMARK   15  A    between atoms: C_34  and  C_35
REMARK                            x       y       z     vdW  Elec       q    Type
REMARK                         _______ _______ _______ _____ _____    ______ ____
ROOT
ATOM      1  C   UNL     1       2.581  -3.550   4.114  0.00  0.00    +0.004 A 
ATOM      2  C   UNL     1       2.180  -4.685   4.736  0.00  0.00    +0.056 A 
ATOM      3  S   UNL     1       3.424  -4.931   5.989  0.00  0.00    -0.076 S 
ATOM      4  C   UNL     1       4.444  -3.519   5.651  0.00  0.00    +0.116 A 
ATOM      5  C   UNL     1       3.799  -2.893   4.571  0.00  0.00    +0.080 A 
ATOM      6  C   UNL     1       4.425  -1.702   4.081  0.00  0.00    +0.260 A 
ATOM      7  O   UNL     1       3.938  -1.086   3.149  0.00  0.00    -0.267 OA
ATOM      8  N   UNL     1       5.560  -1.274   4.665  0.00  0.00    -0.312 N 
ATOM      9  H   UNL     1       5.988  -0.468   4.337  0.00  0.00    +0.170 HD
ATOM     10  C   UNL     1       6.116  -1.948   5.704  0.00  0.00    +0.094 A 
ATOM     11  N   UNL     1       5.564  -3.032   6.179  0.00  0.00    -0.229 NA
ENDROOT
BRANCH   1  15
ATOM     12  C   UNL     1       0.340  -1.941   0.874  0.00  0.00    +0.162 A 
ATOM     13  C   UNL     1       0.720  -1.124   1.927  0.00  0.00    +0.050 A 
ATOM     14  C   UNL     1       1.447  -1.643   2.979  0.00  0.00    +0.012 A 
ATOM     15  C   UNL     1       1.800  -2.992   2.984  0.00  0.00    -0.013 A 
ATOM     16  C   UNL     1       1.417  -3.814   1.925  0.00  0.00    +0.058 A 
ATOM     17  C   UNL     1       0.685  -3.289   0.876  0.00  0.00    +0.162 A 
BRANCH  12  19
ATOM     18  C   UNL     1      -0.696  -0.033  -0.099  0.00  0.00    +0.277 C 
ATOM     19  O   UNL     1      -0.377  -1.425  -0.161  0.00  0.00    -0.491 OA
ENDBRANCH  12  19
BRANCH  17  20
ATOM     20  O   UNL     1       0.305  -4.090  -0.156  0.00  0.00    -0.491 OA
ATOM     21  C   UNL     1       0.694  -5.464  -0.088  0.00  0.00    +0.277 C 
ENDBRANCH  17  20
ENDBRANCH   1  15
BRANCH  10  22
ATOM     22  C   UNL     1       7.387  -1.430   6.326  0.00  0.00    -0.003 C 
BRANCH  22  23
ATOM     23  N   UNL     1       7.793  -2.319   7.423  0.00  0.00    +0.391 N 
ATOM     24  H   UNL     1       7.032  -2.412   8.079  0.00  0.00    -0.080 HD
BRANCH  23  25
ATOM     25  C   UNL     1       8.136  -3.641   6.880  0.00  0.00    -0.002 C 
BRANCH  25  26
ATOM     26  C   UNL     1       8.413  -4.593   8.015  0.00  0.00    +0.089 A 
ATOM     27  C   UNL     1       7.489  -5.293   8.697  0.00  0.00    +0.042 A 
ATOM     28  C   UNL     1       8.184  -6.053   9.666  0.00  0.00    +0.041 A 
ATOM     29  C   UNL     1       9.491  -5.771   9.518  0.00  0.00    +0.195 A 
ATOM     30  O   UNL     1       9.624  -4.891   8.513  0.00  0.00    -0.470 OA
ENDBRANCH  25  26
ENDBRANCH  23  25
BRANCH  23  31
ATOM     31  C   UNL     1       8.963  -1.752   8.106  0.00  0.00    -0.046 C 
BRANCH  31  32
ATOM     32  C   UNL     1       8.567  -0.443   8.793  0.00  0.00    +0.098 C 
BRANCH  32  33
ATOM     33  O   UNL     1       7.562  -0.706   9.774  0.00  0.00    -0.394 OA
ATOM     34  H   UNL     1       7.860  -1.266  10.504  0.00  0.00    +0.210 HD
ENDBRANCH  32  33
BRANCH  32  35
ATOM     35  C   UNL     1       9.795   0.168   9.472  0.00  0.00    +0.033 C 
BRANCH  35  36
ATOM     36  C   UNL     1       9.428   1.535  10.052  0.00  0.00    +0.029 C 
BRANCH  36  37
ATOM     37  C   UNL     1      10.638   2.138  10.721  0.00  0.00    -0.034 C 
ATOM     38  C   UNL     1      11.055   3.329  10.370  0.00  0.00    +0.004 C 
ENDBRANCH  36  37
ENDBRANCH  35  36
ENDBRANCH  32  35
ENDBRANCH  31  32
ENDBRANCH  23  31
ENDBRANCH  22  23
ENDBRANCH  10  22
TORSDOF 13
