REMARK  Name = ZINC09946807
REMARK  7 active torsions:
REMARK  status: ('A' for Active; 'I' for Inactive)
REMARK    1  A    between atoms: C_1  and  C_2
REMARK    2  A    between atoms: C_3  and  C_22
REMARK    3  A    between atoms: C_5  and  S_8
REMARK    4  A    between atoms: S_8  and  C_9
REMARK    5  A    between atoms: C_9  and  C_10
REMARK    6  A    between atoms: N_12  and  C_13
REMARK    7  A    between atoms: C_22  and  C_23
REMARK                            x       y       z     vdW  Elec       q    Type
REMARK                         _______ _______ _______ _____ _____    ______ ____
ROOT
ATOM      1  S   UNL     1       3.363   7.617  -1.055  0.00  0.00    -0.079 S 
ENDROOT
BRANCH   1   6
ATOM      2  C   UNL     1       7.622  10.752  -1.655  0.00  0.00    +0.065 C 
ATOM      3  C   UNL     1       6.754   9.555  -1.363  0.00  0.00    +0.037 A 
ATOM      4  C   UNL     1       7.172   8.344  -0.958  0.00  0.00    +0.067 A 
ATOM      5  N   UNL     1       6.095   7.555  -0.801  0.00  0.00    -0.226 NA
ATOM      6  C   UNL     1       5.013   8.233  -1.105  0.00  0.00    +0.167 A 
ATOM      7  N   UNL     1       5.381   9.495  -1.459  0.00  0.00    -0.337 N 
ATOM      8  H   UNL     1       4.771  10.237  -1.737  0.00  0.00    +0.168 HD
BRANCH   4   9
ATOM      9  C   UNL     1       8.603   7.940  -0.714  0.00  0.00    +0.092 C 
BRANCH   9  10
ATOM     10  C   UNL     1       8.966   8.220   0.721  0.00  0.00    -0.042 A 
ATOM     11  C   UNL     1       9.500   9.445   1.073  0.00  0.00    +0.004 A 
ATOM     12  C   UNL     1       9.829   9.703   2.391  0.00  0.00    +0.000 A 
ATOM     13  C   UNL     1       9.634   8.731   3.355  0.00  0.00    +0.000 A 
ATOM     14  C   UNL     1       9.105   7.504   3.002  0.00  0.00    +0.000 A 
ATOM     15  C   UNL     1       8.771   7.248   1.685  0.00  0.00    +0.004 A 
ENDBRANCH   9  10
ENDBRANCH   4   9
ENDBRANCH   1   6
BRANCH   1  16
ATOM     16  C   UNL     1       3.677   5.920  -0.510  0.00  0.00    +0.173 C 
BRANCH  16  17
ATOM     17  C   UNL     1       2.370   5.180  -0.393  0.00  0.00    +0.228 C 
ATOM     18  O   UNL     1       1.328   5.744  -0.653  0.00  0.00    -0.275 OA
ATOM     19  N   UNL     1       2.358   3.890  -0.001  0.00  0.00    -0.282 N 
ATOM     20  H   UNL     1       3.182   3.461   0.277  0.00  0.00    +0.155 HD
BRANCH  19  21
ATOM     21  C   UNL     1       1.156   3.171   0.007  0.00  0.00    +0.071 A 
ATOM     22  C   UNL     1       0.749   2.485  -1.130  0.00  0.00    +0.065 A 
ATOM     23  C   UNL     1      -0.438   1.776  -1.120  0.00  0.00    +0.042 A 
ATOM     24  C   UNL     1      -1.223   1.755   0.019  0.00  0.00    +0.044 A 
ATOM     25  C   UNL     1      -0.818   2.433   1.155  0.00  0.00    +0.042 A 
ATOM     26  C   UNL     1       0.368   3.144   1.151  0.00  0.00    +0.065 A 
ATOM     27 CL   UNL     1       0.874   3.999   2.575  0.00  0.00    -0.082 Cl
ATOM     28 CL   UNL     1      -2.717   0.870   0.026  0.00  0.00    -0.083 Cl
ATOM     29 CL   UNL     1       1.729   2.517  -2.562  0.00  0.00    -0.082 Cl
ENDBRANCH  19  21
ENDBRANCH  16  17
ENDBRANCH   1  16
TORSDOF 6
