REMARK  Name = ZINC01469508
REMARK  7 active torsions:
REMARK  status: ('A' for Active; 'I' for Inactive)
REMARK    1  A    between atoms: C_1  and  C_2
REMARK    2  A    between atoms: C_2  and  C_22
REMARK    3  A    between atoms: N_3  and  N_4
REMARK    4  A    between atoms: C_5  and  C_7
REMARK    5  A    between atoms: C_7  and  C_8
REMARK    6  A    between atoms: C_8  and  N_9
REMARK    7  A    between atoms: C_27  and  O_28
REMARK                            x       y       z     vdW  Elec       q    Type
REMARK                         _______ _______ _______ _____ _____    ______ ____
ROOT
ATOM      1  N   UNL     1       0.024   0.035   2.340  0.00  0.00    -0.207 N 
ATOM      2  C   UNL     1       0.044  -0.645   3.503  0.00  0.00    +0.234 C 
ATOM      3  O   UNL     1       0.060  -1.858   3.496  0.00  0.00    -0.274 OA
ATOM      4  H   UNL     1       0.011   1.005   2.345  0.00  0.00    +0.177 HD
ENDROOT
BRANCH   1   7
ATOM      5  C   UNL     1      -0.018   1.503   0.010  0.00  0.00    +0.068 C 
ATOM      6  C   UNL     1       0.002  -0.004   0.002  0.00  0.00    +0.067 C 
ATOM      7  N   UNL     1       0.022  -0.659   1.123  0.00  0.00    -0.184 NA
BRANCH   6   8
ATOM      8  C   UNL     1      -0.000  -0.734  -1.278  0.00  0.00    +0.039 A 
ATOM      9  C   UNL     1      -0.015  -0.033  -2.486  0.00  0.00    +0.013 A 
ATOM     10  C   UNL     1      -0.017  -0.722  -3.681  0.00  0.00    +0.001 A 
ATOM     11  C   UNL     1      -0.003  -2.107  -3.688  0.00  0.00    +0.004 A 
ATOM     12  C   UNL     1       0.012  -2.812  -2.499  0.00  0.00    +0.046 A 
ATOM     13  C   UNL     1       0.019  -2.135  -1.290  0.00  0.00    +0.126 A 
BRANCH  13  14
ATOM     14  O   UNL     1       0.039  -2.827  -0.122  0.00  0.00    -0.506 OA
ATOM     15  H   UNL     1      -0.839  -3.040   0.224  0.00  0.00    +0.292 HD
ENDBRANCH  13  14
ENDBRANCH   6   8
ENDBRANCH   1   7
BRANCH   2  16
ATOM     16  C   UNL     1       0.046   0.101   4.812  0.00  0.00    +0.119 C 
BRANCH  16  17
ATOM     17  C   UNL     1       0.071  -0.899   5.970  0.00  0.00    +0.131 C 
BRANCH  17  18
ATOM     18  N   UNL     1       0.073  -0.173   7.242  0.00  0.00    -0.343 N 
ATOM     19  C   UNL     1       1.202   0.239   7.916  0.00  0.00    +0.050 A 
ATOM     20  C   UNL     1       2.564   0.127   7.656  0.00  0.00    +0.026 A 
ATOM     21  C   UNL     1       3.476   0.655   8.544  0.00  0.00    +0.002 A 
ATOM     22  C   UNL     1       3.050   1.298   9.698  0.00  0.00    +0.001 A 
ATOM     23  C   UNL     1       1.717   1.419   9.973  0.00  0.00    +0.010 A 
ATOM     24  C   UNL     1       0.774   0.893   9.087  0.00  0.00    +0.003 A 
ATOM     25  C   UNL     1      -0.684   0.843   9.061  0.00  0.00    -0.019 A 
ATOM     26  C   UNL     1      -1.044   0.200   7.934  0.00  0.00    +0.023 A 
ATOM     27  C   UNL     1      -2.481  -0.054   7.537  0.00  0.00    +0.054 C 
ATOM     28  C   UNL     1      -3.369   0.146   8.770  0.00  0.00    +0.006 C 
ATOM     29  C   UNL     1      -3.037   1.489   9.427  0.00  0.00    +0.005 C 
ATOM     30  C   UNL     1      -1.648   1.400  10.076  0.00  0.00    +0.037 C 
ENDBRANCH  17  18
ENDBRANCH  16  17
ENDBRANCH   2  16
TORSDOF 6
