REMARK  Name = ZINC21227922
REMARK  8 active torsions:
REMARK  status: ('A' for Active; 'I' for Inactive)
REMARK    1  A    between atoms: C_1  and  C_2
REMARK    2  A    between atoms: C_2  and  O_3
REMARK    3  A    between atoms: O_3  and  C_4
REMARK    4  A    between atoms: C_7  and  C_10
REMARK    5  A    between atoms: C_15  and  C_25
REMARK    6  A    between atoms: C_27  and  O_33
REMARK    7  A    between atoms: C_28  and  O_32
REMARK    8  A    between atoms: O_33  and  C_34
REMARK                            x       y       z     vdW  Elec       q    Type
REMARK                         _______ _______ _______ _____ _____    ______ ____
ROOT
ATOM      1  C   UNL     1       1.227   3.016  -0.812  0.00  0.00    +0.032 C 
ATOM      2  C   UNL     1       0.221   3.820   0.009  0.00  0.00    +0.059 C 
ATOM      3  C   UNL     1      -1.125   3.113   0.015  0.00  0.00    +0.017 C 
ATOM      4  C   UNL     1      -1.189   1.772  -0.032  0.00  0.00    +0.036 C 
ATOM      5  C   UNL     1      -2.452   0.944  -0.003  0.00  0.00    +0.136 C 
ATOM      6  N   UNL     1      -3.669   1.703  -0.197  0.00  0.00    -0.331 N 
ATOM      7  C   UNL     1      -4.079   2.658   0.732  0.00  0.00    +0.049 A 
ATOM      8  C   UNL     1      -5.213   2.474   1.506  0.00  0.00    +0.025 A 
ATOM      9  C   UNL     1      -5.521   3.396   2.491  0.00  0.00    +0.002 A 
ATOM     10  C   UNL     1      -4.707   4.494   2.702  0.00  0.00    +0.002 A 
ATOM     11  C   UNL     1      -3.584   4.692   1.915  0.00  0.00    +0.025 A 
ATOM     12  C   UNL     1      -3.284   3.780   0.919  0.00  0.00    +0.052 A 
ATOM     13  N   UNL     1      -2.199   3.941   0.065  0.00  0.00    -0.316 N 
ATOM     14  C   UNL     1      -0.003   1.004  -0.100  0.00  0.00    +0.163 C 
ATOM     15  O   UNL     1      -0.089  -0.208  -0.111  0.00  0.00    -0.292 OA
ATOM     16  C   UNL     1       1.357   1.632  -0.165  0.00  0.00    +0.088 C 
ATOM     17  H   UNL     1      -4.289   1.530  -1.089  0.00  0.00    +0.147 HD
ATOM     18  H   UNL     1      -2.253   4.814  -0.601  0.00  0.00    +0.152 HD
ENDROOT
BRANCH   5  19
ATOM     19  C   UNL     1      -2.533   0.241   1.327  0.00  0.00    -0.018 A 
ATOM     20  C   UNL     1      -2.456  -1.138   1.384  0.00  0.00    +0.055 A 
ATOM     21  C   UNL     1      -2.531  -1.787   2.606  0.00  0.00    +0.163 A 
ATOM     22  C   UNL     1      -2.683  -1.048   3.775  0.00  0.00    +0.177 A 
ATOM     23  C   UNL     1      -2.760   0.335   3.712  0.00  0.00    +0.086 A 
ATOM     24  C   UNL     1      -2.680   0.977   2.488  0.00  0.00    +0.029 A 
ATOM     25 CL   UNL     1      -2.951   1.262   5.167  0.00  0.00    -0.080 Cl
BRANCH  22  26
ATOM     26  O   UNL     1      -2.758  -1.680   4.977  0.00  0.00    -0.502 OA
ATOM     27  H   UNL     1      -2.879  -1.094   5.900  0.00  0.00    +0.292 HD
ENDBRANCH  22  26
BRANCH  21  28
ATOM     28  O   UNL     1      -2.455  -3.144   2.663  0.00  0.00    -0.491 OA
ATOM     29  C   UNL     1      -2.299  -3.837   1.424  0.00  0.00    +0.277 C 
ENDBRANCH  21  28
ENDBRANCH   5  19
BRANCH   1  33
ATOM     30  C   UNL     1       5.019   4.987  -0.793  0.00  0.00    +0.121 A 
ATOM     31  C   UNL     1       4.376   4.729  -1.995  0.00  0.00    +0.046 A 
ATOM     32  C   UNL     1       3.150   4.091  -1.998  0.00  0.00    +0.007 A 
ATOM     33  C   UNL     1       2.564   3.711  -0.805  0.00  0.00    -0.043 A 
ATOM     34  C   UNL     1       3.200   3.972   0.394  0.00  0.00    +0.007 A 
ATOM     35  C   UNL     1       4.428   4.605   0.403  0.00  0.00    +0.046 A 
BRANCH  30  36
ATOM     36  O   UNL     1       6.224   5.614  -0.787  0.00  0.00    -0.492 OA
BRANCH  36  38
ATOM     37  C   UNL     1       8.169   6.558   0.294  0.00  0.00    +0.048 C 
ATOM     38  C   UNL     1       6.828   5.847   0.488  0.00  0.00    +0.225 C 
ENDBRANCH  36  38
ENDBRANCH  30  36
ENDBRANCH   1  33
TORSDOF 6
