REMARK  Name = ZINC67373215
REMARK  7 active torsions:
REMARK  status: ('A' for Active; 'I' for Inactive)
REMARK    1  A    between atoms: C_1  and  C_2
REMARK    2  A    between atoms: N_5  and  C_8
REMARK    3  A    between atoms: C_8  and  C_9
REMARK    4  A    between atoms: C_9  and  C_11
REMARK    5  A    between atoms: C_9  and  O_29
REMARK    6  A    between atoms: C_11  and  N_12
REMARK    7  A    between atoms: C_21  and  C_23
REMARK                            x       y       z     vdW  Elec       q    Type
REMARK                         _______ _______ _______ _____ _____    ______ ____
ROOT
ATOM      1  N   UNL     1       0.526  -6.331   4.079  0.00  0.00    -0.326 N 
ATOM      2  C   UNL     1       0.691  -7.671   4.357  0.00  0.00    +0.130 A 
ATOM      3  C   UNL     1       1.254  -8.095   5.587  0.00  0.00    +0.040 A 
ATOM      4  C   UNL     1       1.665  -7.185   6.567  0.00  0.00    +0.013 A 
ATOM      5  C   UNL     1       2.201  -7.648   7.732  0.00  0.00    +0.001 A 
ATOM      6  C   UNL     1       2.345  -9.014   7.960  0.00  0.00    +0.002 A 
ATOM      7  C   UNL     1       1.955  -9.927   7.026  0.00  0.00    +0.028 A 
ATOM      8  C   UNL     1       1.399  -9.485   5.816  0.00  0.00    +0.077 A 
ATOM      9  N   UNL     1       1.000 -10.341   4.866  0.00  0.00    -0.227 NA
ATOM     10  C   UNL     1       0.481  -9.894   3.738  0.00  0.00    +0.164 A 
ATOM     11  N   UNL     1       0.322  -8.596   3.484  0.00  0.00    -0.212 NA
ATOM     12  H   UNL     1       0.800  -5.664   4.727  0.00  0.00    +0.148 HD
ENDROOT
BRANCH  10  13
ATOM     13  C   UNL     1       0.052 -10.877   2.714  0.00  0.00    +0.037 A 
ATOM     14  C   UNL     1       0.191 -12.249   2.944  0.00  0.00    +0.014 A 
ATOM     15  C   UNL     1      -0.224 -13.125   1.956  0.00  0.00    +0.020 A 
ATOM     16  C   UNL     1      -0.758 -12.620   0.784  0.00  0.00    +0.111 A 
ATOM     17  N   UNL     1      -0.876 -11.320   0.596  0.00  0.00    -0.263 NA
ATOM     18  C   UNL     1      -0.500 -10.448   1.509  0.00  0.00    +0.122 A 
ENDBRANCH  10  13
BRANCH   1  19
ATOM     19  C   UNL     1      -0.065  -5.914   2.804  0.00  0.00    +0.132 C 
BRANCH  19  20
ATOM     20  C   UNL     1      -0.134  -4.387   2.750  0.00  0.00    +0.115 C 
BRANCH  20  21
ATOM     21  O   UNL     1      -0.941  -3.908   3.828  0.00  0.00    -0.392 OA
ATOM     22  H   UNL     1      -1.850  -4.235   3.814  0.00  0.00    +0.210 HD
ENDBRANCH  20  21
BRANCH  20  23
ATOM     23  C   UNL     1      -0.750  -3.952   1.419  0.00  0.00    -0.046 C 
BRANCH  23  28
ATOM     24  C   UNL     1      -0.019   1.526   0.010  0.00  0.00    +0.007 C 
ATOM     25  C   UNL     1       0.002  -0.004   0.002  0.00  0.00    -0.018 C 
ATOM     26  C   UNL     1      -1.434  -0.536   0.023  0.00  0.00    -0.016 C 
ATOM     27  C   UNL     1      -1.405  -2.064   0.095  0.00  0.00    -0.078 C 
ATOM     28  N   UNL     1      -0.707  -2.487   1.315  0.00  0.00    +0.381 N 
ATOM     29  C   UNL     1       0.691  -2.042   1.269  0.00  0.00    -0.078 C 
ATOM     30  C   UNL     1       0.743  -0.513   1.242  0.00  0.00    -0.016 C 
ATOM     31  H   UNL     1      -1.162  -2.082   2.119  0.00  0.00    -0.082 HD
ENDBRANCH  23  28
ENDBRANCH  20  23
ENDBRANCH  19  20
ENDBRANCH   1  19
TORSDOF 6
