REMARK  Name = ZINC39981126
REMARK  4 active torsions:
REMARK  status: ('A' for Active; 'I' for Inactive)
REMARK    1  A    between atoms: C_14  and  S_16
REMARK    2  A    between atoms: S_16  and  C_17
REMARK    3  A    between atoms: C_17  and  C_18
REMARK    4  A    between atoms: N_20  and  C_21
REMARK                            x       y       z     vdW  Elec       q    Type
REMARK                         _______ _______ _______ _____ _____    ______ ____
ROOT
ATOM      1  C   UNL     1      -0.017   1.399   0.010  0.00  0.00    +0.022 A 
ATOM      2  C   UNL     1       1.123   2.126   0.003  0.00  0.00    +0.027 A 
ATOM      3  C   UNL     1       2.417   1.432  -0.013  0.00  0.00    +0.046 A 
ATOM      4  N   UNL     1       3.649   1.881   0.009  0.00  0.00    -0.358 N 
ATOM      5  C   UNL     1       4.560   0.760  -0.149  0.00  0.00    +0.252 C 
ATOM      6  C   UNL     1       3.707  -0.489  -0.007  0.00  0.00    +0.117 C 
ATOM      7  C   UNL     1       2.404  -0.053  -0.009  0.00  0.00    +0.026 A 
ATOM      8  C   UNL     1       1.155  -0.714  -0.007  0.00  0.00    +0.032 A 
ATOM      9  C   UNL     1       0.002  -0.004   0.002  0.00  0.00    +0.042 A 
ATOM     10 CL   UNL     1      -1.508  -0.861   0.004  0.00  0.00    -0.084 Cl
ATOM     11  N   UNL     1       4.250  -1.688   0.216  0.00  0.00    -0.147 NA
ATOM     12  N   UNL     1       5.398  -1.677   0.824  0.00  0.00    -0.122 NA
ATOM     13  C   UNL     1       5.971  -0.530   1.261  0.00  0.00    +0.208 C 
ATOM     14  N   UNL     1       5.604   0.669   0.870  0.00  0.00    -0.227 NA
ATOM     15  H   UNL     1       3.909   2.810   0.114  0.00  0.00    +0.162 HD
ENDROOT
BRANCH  13  16
ATOM     16  S   UNL     1       7.292  -0.653   2.421  0.00  0.00    -0.075 S 
BRANCH  16  17
ATOM     17  C   UNL     1       7.762   1.070   2.736  0.00  0.00    +0.173 C 
BRANCH  17  18
ATOM     18  C   UNL     1       8.898   1.109   3.726  0.00  0.00    +0.224 C 
ATOM     19  O   UNL     1       9.346   0.075   4.175  0.00  0.00    -0.275 OA
ATOM     20  N   UNL     1       9.415   2.291   4.112  0.00  0.00    -0.312 N 
ATOM     21  H   UNL     1       9.057   3.118   3.753  0.00  0.00    +0.149 HD
BRANCH  20  22
ATOM     22  C   UNL     1      10.519   2.329   5.074  0.00  0.00    +0.073 C 
ATOM     23  C   UNL     1       9.958   2.276   6.497  0.00  0.00    +0.022 C 
ATOM     24  C   UNL     1      11.111   2.315   7.502  0.00  0.00    +0.002 C 
ATOM     25  C   UNL     1      11.907   3.608   7.315  0.00  0.00    +0.000 C 
ATOM     26  C   UNL     1      12.468   3.661   5.892  0.00  0.00    +0.002 C 
ATOM     27  C   UNL     1      11.315   3.622   4.887  0.00  0.00    +0.022 C 
ENDBRANCH  20  22
ENDBRANCH  17  18
ENDBRANCH  16  17
ENDBRANCH  13  16
TORSDOF 4
