REMARK  Name = ZINC20082445
REMARK  10 active torsions:
REMARK  status: ('A' for Active; 'I' for Inactive)
REMARK    1  A    between atoms: C_1  and  C_2
REMARK    2  A    between atoms: C_2  and  C_3
REMARK    3  A    between atoms: C_10  and  C_15
REMARK    4  A    between atoms: C_15  and  C_17
REMARK    5  A    between atoms: C_15  and  N_27
REMARK    6  A    between atoms: N_21  and  C_22
REMARK    7  A    between atoms: N_27  and  C_28
REMARK    8  A    between atoms: N_27  and  C_34
REMARK    9  A    between atoms: C_28  and  C_29
REMARK   10  A    between atoms: C_34  and  C_35
REMARK                            x       y       z     vdW  Elec       q    Type
REMARK                         _______ _______ _______ _____ _____    ______ ____
ROOT
ATOM      1  C   UNL     1      -2.175   6.531   1.606  0.00  0.00    +0.163 C 
ENDROOT
BRANCH   1   9
ATOM      2  C   UNL     1      -1.237  11.305  -2.217  0.00  0.00    -0.047 A 
ATOM      3  C   UNL     1      -2.470  11.241  -2.852  0.00  0.00    +0.005 A 
ATOM      4  C   UNL     1      -3.394  10.282  -2.498  0.00  0.00    +0.026 A 
ATOM      5  C   UNL     1      -3.091   9.368  -1.494  0.00  0.00    +0.049 A 
ATOM      6  C   UNL     1      -1.840   9.436  -0.853  0.00  0.00    -0.001 A 
ATOM      7  C   UNL     1      -0.917  10.418  -1.228  0.00  0.00    +0.013 A 
ATOM      8  C   UNL     1      -1.529   8.470   0.203  0.00  0.00    +0.021 A 
ATOM      9  C   UNL     1      -2.463   7.541   0.525  0.00  0.00    +0.042 A 
ATOM     10  C   UNL     1      -3.701   7.512  -0.153  0.00  0.00    +0.254 A 
ATOM     11  O   UNL     1      -4.524   6.665   0.149  0.00  0.00    -0.268 OA
ATOM     12  N   UNL     1      -3.997   8.399  -1.119  0.00  0.00    -0.322 N 
ATOM     13  H   UNL     1      -4.978   8.343  -1.612  0.00  0.00    +0.169 HD
BRANCH   2  15
ATOM     14  C   UNL     1      -0.460  13.617  -1.774  0.00  0.00    +0.009 C 
ATOM     15  C   UNL     1      -0.243  12.363  -2.622  0.00  0.00    +0.032 C 
ENDBRANCH   2  15
ENDBRANCH   1   9
BRANCH   1  16
ATOM     16  C   UNL     1      -2.243   5.141   1.027  0.00  0.00    +0.173 A 
ATOM     17  N   UNL     1      -3.321   4.509   0.634  0.00  0.00    -0.111 NA
ATOM     18  N   UNL     1      -2.967   3.349   0.200  0.00  0.00    -0.023 NA
ATOM     19  N   UNL     1      -1.690   3.225   0.307  0.00  0.00    -0.044 NA
ATOM     20  N   UNL     1      -1.207   4.311   0.807  0.00  0.00    -0.224 N 
BRANCH  20  21
ATOM     21  C   UNL     1       0.205   4.588   1.087  0.00  0.00    +0.111 C 
ATOM     22  C   UNL     1       1.022   4.539  -0.220  0.00  0.00    +0.027 C 
ATOM     23  C   UNL     1       2.368   3.897   0.198  0.00  0.00    +0.002 C 
ATOM     24  C   UNL     1       1.931   2.826   1.228  0.00  0.00    +0.002 C 
ATOM     25  C   UNL     1       0.782   3.498   2.008  0.00  0.00    +0.027 C 
ENDBRANCH  20  21
ENDBRANCH   1  16
BRANCH   1  26
ATOM     26  N   UNL     1      -3.171   6.664   2.678  0.00  0.00    -0.282 NA
BRANCH  26  27
ATOM     27  C   UNL     1      -3.444   8.077   2.971  0.00  0.00    +0.128 C 
BRANCH  27  28
ATOM     28  C   UNL     1      -4.704   8.503   2.261  0.00  0.00    +0.004 A 
ATOM     29  C   UNL     1      -5.912   7.890   2.223  0.00  0.00    +0.012 A 
ATOM     30  C   UNL     1      -6.937   8.472   1.502  0.00  0.00    +0.008 A 
ATOM     31  C   UNL     1      -6.701   9.634   0.845  0.00  0.00    +0.045 A 
ATOM     32  S   UNL     1      -4.989   9.943   1.245  0.00  0.00    -0.100 S 
ENDBRANCH  27  28
ENDBRANCH  26  27
BRANCH  26  33
ATOM     33  C   UNL     1      -2.742   5.949   3.887  0.00  0.00    +0.117 C 
BRANCH  33  34
ATOM     34  C   UNL     1      -3.957   5.676   4.776  0.00  0.00    +0.132 C 
ATOM     35  C   UNL     1      -3.523   4.962   6.075  0.00  0.00    +0.035 C 
ATOM     36  C   UNL     1      -4.668   3.962   6.355  0.00  0.00    +0.031 C 
ATOM     37  C   UNL     1      -5.658   4.190   5.192  0.00  0.00    +0.160 C 
ATOM     38  O   UNL     1      -4.856   4.748   4.128  0.00  0.00    -0.375 OA
ENDBRANCH  33  34
ENDBRANCH  26  33
ENDBRANCH   1  26
TORSDOF 9
