REMARK  Name = ZINC36246056
REMARK  8 active torsions:
REMARK  status: ('A' for Active; 'I' for Inactive)
REMARK    1  A    between atoms: C_1  and  C_2
REMARK    2  A    between atoms: C_2  and  N_3
REMARK    3  A    between atoms: N_6  and  C_7
REMARK    4  A    between atoms: N_6  and  C_29
REMARK    5  A    between atoms: C_7  and  C_8
REMARK    6  A    between atoms: C_9  and  C_23
REMARK    7  A    between atoms: C_12  and  N_13
REMARK    8  A    between atoms: C_29  and  C_30
REMARK                            x       y       z     vdW  Elec       q    Type
REMARK                         _______ _______ _______ _____ _____    ______ ____
ROOT
ATOM      1  C   UNL     1      -0.021  -4.283  -4.280  0.00  0.00    +0.059 A 
ATOM      2  C   UNL     1      -1.194  -4.494  -3.526  0.00  0.00    +0.120 A 
ATOM      3  N   UNL     1      -2.221  -4.162  -4.274  0.00  0.00    -0.076 NA
ATOM      4  O   UNL     1      -1.727  -3.730  -5.528  0.00  0.00    -0.339 OA
ATOM      5  C   UNL     1      -0.386  -3.810  -5.498  0.00  0.00    +0.226 A 
ENDROOT
BRANCH   5   6
ATOM      6  N   UNL     1       0.471  -3.473  -6.529  0.00  0.00    -0.294 N 
ATOM      7  C   UNL     1       1.174  -4.505  -7.310  0.00  0.00    +0.113 C 
ATOM      8  C   UNL     1       0.674  -4.424  -8.752  0.00  0.00    +0.054 C 
ATOM      9  C   UNL     1       0.673  -3.000  -9.240  0.00  0.00    -0.041 A 
ATOM     10  C   UNL     1       0.664  -2.790 -10.614  0.00  0.00    +0.004 A 
ATOM     11  C   UNL     1       0.653  -1.510 -11.128  0.00  0.00    +0.000 A 
ATOM     12  C   UNL     1       0.649  -0.425 -10.271  0.00  0.00    +0.000 A 
ATOM     13  C   UNL     1       0.661  -0.630  -8.907  0.00  0.00    +0.005 A 
ATOM     14  C   UNL     1       0.678  -1.918  -8.389  0.00  0.00    -0.027 A 
ATOM     15  C   UNL     1       0.713  -2.072  -6.893  0.00  0.00    +0.143 C 
ENDBRANCH   5   6
BRANCH   2  16
ATOM     16  C   UNL     1      -1.257  -5.002  -2.132  0.00  0.00    +0.004 A 
ATOM     17  C   UNL     1      -0.489  -6.101  -1.753  0.00  0.00    +0.010 A 
ATOM     18  C   UNL     1      -0.551  -6.569  -0.456  0.00  0.00    +0.001 A 
ATOM     19  C   UNL     1      -1.374  -5.948   0.467  0.00  0.00    +0.000 A 
ATOM     20  C   UNL     1      -2.138  -4.857   0.096  0.00  0.00    +0.001 A 
ATOM     21  C   UNL     1      -2.080  -4.378  -1.197  0.00  0.00    +0.010 A 
ENDBRANCH   2  16
BRANCH   1  22
ATOM     22  C   UNL     1       1.390  -4.533  -3.812  0.00  0.00    +0.152 C 
BRANCH  22  26
ATOM     23  N   UNL     1       2.221  -2.237  -1.064  0.00  0.00    -0.299 N 
ATOM     24  C   UNL     1       1.774  -3.315  -1.737  0.00  0.00    +0.303 C 
ATOM     25  O   UNL     1       1.278  -4.246  -1.133  0.00  0.00    -0.253 OA
ATOM     26  N   UNL     1       1.876  -3.361  -3.080  0.00  0.00    -0.279 N 
ATOM     27  H   UNL     1       2.617  -1.493  -1.546  0.00  0.00    +0.150 HD
BRANCH  23  29
ATOM     28  C   UNL     1       2.688  -0.865   0.907  0.00  0.00    +0.024 C 
ATOM     29  C   UNL     1       2.111  -2.187   0.396  0.00  0.00    +0.102 C 
ENDBRANCH  23  29
BRANCH  26  30
ATOM     30  C   UNL     1       2.473  -2.238  -3.808  0.00  0.00    +0.141 C 
BRANCH  30  31
ATOM     31  C   UNL     1       3.992  -2.414  -3.859  0.00  0.00    +0.136 C 
ATOM     32  C   UNL     1       4.631  -1.228  -4.614  0.00  0.00    +0.035 C 
ATOM     33  C   UNL     1       5.751  -1.925  -5.434  0.00  0.00    +0.031 C 
ATOM     34  C   UNL     1       5.081  -3.286  -5.750  0.00  0.00    +0.160 C 
ATOM     35  O   UNL     1       4.319  -3.611  -4.575  0.00  0.00    -0.375 OA
ENDBRANCH  30  31
ENDBRANCH  26  30
ENDBRANCH  22  26
ENDBRANCH   1  22
TORSDOF 7
