REMARK  Name = ZINC39662323
REMARK  6 active torsions:
REMARK  status: ('A' for Active; 'I' for Inactive)
REMARK    1  A    between atoms: C_4  and  C_7
REMARK    2  A    between atoms: C_7  and  C_9
REMARK    3  A    between atoms: C_7  and  N_11
REMARK    4  A    between atoms: C_12  and  C_14
REMARK    5  A    between atoms: C_25  and  C_27
REMARK    6  A    between atoms: C_30  and  C_34
REMARK                            x       y       z     vdW  Elec       q    Type
REMARK                         _______ _______ _______ _____ _____    ______ ____
ROOT
ATOM      1  C   UNL     1       4.774  -2.995   2.550  0.00  0.00    +0.100 C 
ATOM      2  C   UNL     1       3.910  -2.938   3.831  0.00  0.00    +0.121 C 
ATOM      3  N   UNL     1       4.656  -3.749   4.822  0.00  0.00    -0.296 N 
ATOM      4  C   UNL     1       6.079  -3.409   4.581  0.00  0.00    +0.115 C 
ATOM      5  C   UNL     1       6.196  -3.304   3.047  0.00  0.00    -0.004 C 
ATOM      6  C   UNL     1       6.684  -4.627   2.463  0.00  0.00    -0.010 C 
ATOM      7  C   UNL     1       8.121  -4.884   2.926  0.00  0.00    -0.082 C 
ATOM      8  N   UNL     1       8.984  -3.783   2.483  0.00  0.00    +0.379 N 
ATOM      9  C   UNL     1       8.564  -2.529   3.122  0.00  0.00    -0.082 C 
ATOM     10  C   UNL     1       7.146  -2.173   2.668  0.00  0.00    -0.010 C 
ATOM     11  C   UNL     1       4.154  -4.603   5.736  0.00  0.00    +0.247 C 
ATOM     12  O   UNL     1       2.966  -4.861   5.739  0.00  0.00    -0.270 OA
ATOM     13  H   UNL     1       9.940  -3.983   2.735  0.00  0.00    -0.086 HD
ATOM     14  H   UNL     1       8.917  -3.687   1.481  0.00  0.00    -0.086 HD
ENDROOT
BRANCH  11  15
ATOM     15  C   UNL     1       5.048  -5.226   6.735  0.00  0.00    +0.040 A 
ATOM     16  C   UNL     1       6.274  -4.633   7.044  0.00  0.00    +0.014 A 
ATOM     17  C   UNL     1       7.104  -5.218   7.978  0.00  0.00    +0.016 A 
ATOM     18  C   UNL     1       6.726  -6.390   8.608  0.00  0.00    +0.090 A 
ATOM     19  C   UNL     1       5.511  -6.984   8.306  0.00  0.00    +0.136 A 
ATOM     20  C   UNL     1       4.668  -6.405   7.377  0.00  0.00    +0.052 A 
ATOM     21  F   UNL     1       5.148  -8.129   8.925  0.00  0.00    -0.205 F 
BRANCH  18  22
ATOM     22  C   UNL     1       7.638  -7.023   9.626  0.00  0.00    +0.420 C 
ATOM     23  F   UNL     1       8.796  -6.249   9.761  0.00  0.00    -0.166 F 
ATOM     24  F   UNL     1       6.981  -7.097  10.859  0.00  0.00    -0.166 F 
ATOM     25  F   UNL     1       7.985  -8.311   9.205  0.00  0.00    -0.166 F 
ENDBRANCH  18  22
ENDBRANCH  11  15
BRANCH   1  27
ATOM     26  N   UNL     1       4.903  -1.618   0.500  0.00  0.00    -0.296 N 
ATOM     27  C   UNL     1       4.743  -1.668   1.837  0.00  0.00    +0.219 C 
ATOM     28  O   UNL     1       4.575  -0.645   2.467  0.00  0.00    -0.275 OA
ATOM     29  H   UNL     1       5.038  -2.436  -0.003  0.00  0.00    +0.150 HD
BRANCH  26  30
ATOM     30  C   UNL     1       4.874  -0.328  -0.193  0.00  0.00    +0.207 C 
BRANCH  30  34
ATOM     31  C   UNL     1       3.707  -0.920  -4.259  0.00  0.00    +0.000 A 
ATOM     32  C   UNL     1       3.226   0.167  -3.554  0.00  0.00    +0.000 A 
ATOM     33  C   UNL     1       3.604   0.359  -2.238  0.00  0.00    +0.006 A 
ATOM     34  C   UNL     1       4.462  -0.537  -1.627  0.00  0.00    -0.013 A 
ATOM     35  C   UNL     1       4.941  -1.625  -2.333  0.00  0.00    +0.006 A 
ATOM     36  C   UNL     1       4.565  -1.816  -3.649  0.00  0.00    +0.000 A 
ENDBRANCH  30  34
BRANCH  30  37
ATOM     37  C   UNL     1       6.213   0.282  -0.151  0.00  0.00    +0.090 C 
ATOM     38  N   UNL     1       7.246   0.753  -0.120  0.00  0.00    -0.194 NA
ENDBRANCH  30  37
ENDBRANCH  26  30
ENDBRANCH   1  27
TORSDOF 6
