REMARK  Name = ZINC15230530
REMARK  2 active torsions:
REMARK  status: ('A' for Active; 'I' for Inactive)
REMARK    1  A    between atoms: C_5  and  C_6
REMARK    2  A    between atoms: N_7  and  N_8
REMARK                            x       y       z     vdW  Elec       q    Type
REMARK                         _______ _______ _______ _____ _____    ______ ____
ROOT
ATOM      1  N   UNL     1      -4.766   0.257  -2.285  0.00  0.00    -0.220 N 
ATOM      2  C   UNL     1      -5.191   0.428  -0.981  0.00  0.00    +0.150 A 
ATOM      3  C   UNL     1      -4.275   0.598   0.098  0.00  0.00    +0.052 A 
ATOM      4  C   UNL     1      -2.824   0.617   0.022  0.00  0.00    -0.025 A 
ATOM      5  C   UNL     1      -2.158   0.792   1.186  0.00  0.00    -0.004 A 
ATOM      6  S   UNL     1      -3.417   0.938   2.429  0.00  0.00    -0.073 S 
ATOM      7  C   UNL     1      -4.833   0.765   1.391  0.00  0.00    +0.114 A 
ATOM      8  N   UNL     1      -6.130   0.770   1.624  0.00  0.00    -0.228 NA
ATOM      9  C   UNL     1      -6.928   0.608   0.575  0.00  0.00    +0.224 A 
ATOM     10  N   UNL     1      -6.482   0.446  -0.654  0.00  0.00    -0.219 NA
ATOM     11  C   UNL     1      -0.670   0.848   1.385  0.00  0.00    +0.043 C 
ATOM     12  C   UNL     1       0.006   0.308   0.116  0.00  0.00    +0.005 C 
ATOM     13  C   UNL     1      -0.636   0.973  -1.105  0.00  0.00    +0.005 C 
ATOM     14  C   UNL     1      -2.061   0.452  -1.290  0.00  0.00    +0.037 C 
ATOM     15  H   UNL     1      -3.845   0.011  -2.467  0.00  0.00    +0.176 HD
ENDROOT
BRANCH   1  17
ATOM     16  C   UNL     1      -5.265   0.277  -4.572  0.00  0.00    +0.145 C 
ATOM     17  N   UNL     1      -5.665   0.438  -3.345  0.00  0.00    -0.188 NA
BRANCH  16  22
ATOM     18  C   UNL     1      -5.985   0.351  -7.042  0.00  0.00    +0.032 A 
ATOM     19  C   UNL     1      -7.040   0.576  -7.897  0.00  0.00    +0.025 A 
ATOM     20  C   UNL     1      -8.252   0.914  -7.383  0.00  0.00    +0.061 A 
ATOM     21  S   UNL     1      -7.933   0.915  -5.627  0.00  0.00    -0.095 S 
ATOM     22  C   UNL     1      -6.206   0.467  -5.681  0.00  0.00    +0.033 A 
ATOM     23 BR   UNL     1      -6.803   0.426  -9.767  0.00  0.00    -0.050 Br
ENDBRANCH  16  22
ENDBRANCH   1  17
TORSDOF 2
