REMARK  Name = ZINC05866481
REMARK  5 active torsions:
REMARK  status: ('A' for Active; 'I' for Inactive)
REMARK    1  A    between atoms: C_1  and  C_2
REMARK    2  A    between atoms: C_5  and  C_8
REMARK    3  A    between atoms: C_11  and  S_14
REMARK    4  A    between atoms: S_14  and  C_15
REMARK    5  A    between atoms: C_15  and  C_16
REMARK                            x       y       z     vdW  Elec       q    Type
REMARK                         _______ _______ _______ _____ _____    ______ ____
ROOT
ATOM      1  C   UNL     1       0.059  -4.256  -0.021  0.00  0.00    +0.182 A 
ATOM      2  N   UNL     1       0.075  -5.042   1.065  0.00  0.00    -0.201 NA
ATOM      3  H   UNL     1       0.091  -7.142  -1.209  0.00  0.00    +0.191 HD
ATOM      4  C   UNL     1       0.089  -6.304   0.698  0.00  0.00    +0.185 A 
ATOM      5  N   UNL     1       0.083  -6.347  -0.653  0.00  0.00    -0.253 N 
ATOM      6  N   UNL     1       0.058  -5.014  -1.094  0.00  0.00    -0.152 NA
ENDROOT
BRANCH   1  11
ATOM      7  C   UNL     1      -0.018   1.503   0.010  0.00  0.00    +0.044 C 
ATOM      8  C   UNL     1       0.002  -0.004   0.002  0.00  0.00    -0.050 A 
ATOM      9  C   UNL     1       0.006  -0.686  -1.201  0.00  0.00    +0.004 A 
ATOM     10  C   UNL     1       0.024  -2.067  -1.215  0.00  0.00    +0.012 A 
ATOM     11  C   UNL     1       0.040  -2.772  -0.013  0.00  0.00    +0.021 A 
ATOM     12  C   UNL     1       0.036  -2.080   1.196  0.00  0.00    +0.012 A 
ATOM     13  C   UNL     1       0.023  -0.700   1.198  0.00  0.00    +0.004 A 
ENDBRANCH   1  11
BRANCH   4  14
ATOM     14  S   UNL     1       0.114  -7.696   1.777  0.00  0.00    -0.080 S 
BRANCH  14  15
ATOM     15  C   UNL     1       0.112  -6.965   3.437  0.00  0.00    +0.133 C 
BRANCH  15  16
ATOM     16  C   UNL     1       0.132  -8.062   4.470  0.00  0.00    +0.059 A 
ATOM     17  C   UNL     1       1.285  -8.343   5.173  0.00  0.00    +0.095 A 
ATOM     18  C   UNL     1       1.284  -9.362   6.125  0.00  0.00    +0.259 A 
ATOM     19  O   UNL     1       2.301  -9.615   6.751  0.00  0.00    -0.267 OA
ATOM     20  N   UNL     1       0.142 -10.077   6.358  0.00  0.00    -0.262 N 
ATOM     21  C   UNL     1      -0.016 -11.103   7.258  0.00  0.00    +0.104 A 
ATOM     22  C   UNL     1      -1.187 -11.725   7.393  0.00  0.00    +0.067 A 
ATOM     23  S   UNL     1      -2.199 -10.863   6.200  0.00  0.00    -0.058 S 
ATOM     24  C   UNL     1      -0.956  -9.732   5.616  0.00  0.00    +0.180 A 
ATOM     25  N   UNL     1      -0.963  -8.773   4.724  0.00  0.00    -0.227 NA
ENDBRANCH  15  16
ENDBRANCH  14  15
ENDBRANCH   4  14
TORSDOF 4
