REMARK  Name = ZINC01422467
REMARK  5 active torsions:
REMARK  status: ('A' for Active; 'I' for Inactive)
REMARK    1  A    between atoms: C_4  and  C_7
REMARK    2  A    between atoms: C_9  and  C_20
REMARK    3  A    between atoms: C_9  and  O_26
REMARK    4  A    between atoms: N_10  and  C_14
REMARK    5  A    between atoms: C_14  and  C_15
REMARK                            x       y       z     vdW  Elec       q    Type
REMARK                         _______ _______ _______ _____ _____    ______ ____
ROOT
ATOM      1  C   UNL     1      -0.013   5.881   1.475  0.00  0.00    +0.263 C 
ATOM      2  C   UNL     1      -0.070   5.347   0.031  0.00  0.00    +0.207 C 
ATOM      3  N   UNL     1       1.148   5.884  -0.593  0.00  0.00    -0.227 N 
ATOM      4  C   UNL     1       1.818   6.608   0.314  0.00  0.00    +0.406 C 
ATOM      5  O   UNL     1       2.866   7.171   0.070  0.00  0.00    -0.226 OA
ATOM      6  O   UNL     1       1.226   6.655   1.512  0.00  0.00    -0.437 OA
ENDROOT
BRANCH   1  10
ATOM      7  C   UNL     1      -3.377   8.386   2.282  0.00  0.00    +0.000 A 
ATOM      8  C   UNL     1      -3.373   7.074   2.716  0.00  0.00    +0.000 A 
ATOM      9  C   UNL     1      -2.284   6.263   2.455  0.00  0.00    +0.007 A 
ATOM     10  C   UNL     1      -1.200   6.765   1.760  0.00  0.00    -0.002 A 
ATOM     11  C   UNL     1      -1.202   8.079   1.330  0.00  0.00    +0.007 A 
ATOM     12  C   UNL     1      -2.293   8.888   1.587  0.00  0.00    +0.000 A 
ENDBRANCH   1  10
BRANCH   2  13
ATOM     13  C   UNL     1      -0.050   3.840   0.023  0.00  0.00    +0.006 A 
ATOM     14  C   UNL     1       1.156   3.165   0.008  0.00  0.00    +0.008 A 
ATOM     15  C   UNL     1       1.175   1.783   0.000  0.00  0.00    +0.000 A 
ATOM     16  C   UNL     1      -0.013   1.076   0.008  0.00  0.00    +0.000 A 
ATOM     17  C   UNL     1      -1.219   1.751   0.017  0.00  0.00    +0.000 A 
ATOM     18  C   UNL     1      -1.238   3.133   0.030  0.00  0.00    +0.008 A 
ENDBRANCH   2  13
BRANCH   2  19
ATOM     19  O   UNL     1      -1.234   5.836  -0.638  0.00  0.00    -0.364 OA
ATOM     20  H   UNL     1      -1.304   5.555  -1.561  0.00  0.00    +0.213 HD
ENDBRANCH   2  19
BRANCH   3  21
ATOM     21  C   UNL     1       1.563   5.663  -1.981  0.00  0.00    +0.156 C 
BRANCH  21  22
ATOM     22  C   UNL     1       0.989   6.748  -2.855  0.00  0.00    +0.007 A 
ATOM     23  C   UNL     1       1.522   7.951  -3.183  0.00  0.00    +0.013 A 
ATOM     24  C   UNL     1       0.810   8.796  -4.013  0.00  0.00    +0.008 A 
ATOM     25  C   UNL     1      -0.405   8.400  -4.468  0.00  0.00    +0.045 A 
ATOM     26  S   UNL     1      -0.571   6.787  -3.722  0.00  0.00    -0.100 S 
ENDBRANCH  21  22
ENDBRANCH   3  21
TORSDOF 5
