REMARK  Name = ZINC12807934
REMARK  8 active torsions:
REMARK  status: ('A' for Active; 'I' for Inactive)
REMARK    1  A    between atoms: C_1  and  C_2
REMARK    2  A    between atoms: C_2  and  C_28
REMARK    3  A    between atoms: N_5  and  N_9
REMARK    4  A    between atoms: C_10  and  C_12
REMARK    5  A    between atoms: C_12  and  N_13
REMARK    6  A    between atoms: N_13  and  C_14
REMARK    7  A    between atoms: C_14  and  C_16
REMARK    8  A    between atoms: C_14  and  C_23
REMARK                            x       y       z     vdW  Elec       q    Type
REMARK                         _______ _______ _______ _____ _____    ______ ____
ROOT
ATOM      1  N   UNL     1      -2.518  -1.955   1.783  0.00  0.00    -0.223 N 
ATOM      2  C   UNL     1      -2.586  -3.298   1.684  0.00  0.00    +0.244 C 
ATOM      3  O   UNL     1      -1.682  -3.914   1.162  0.00  0.00    -0.273 OA
ATOM      4  H   UNL     1      -3.242  -1.462   2.200  0.00  0.00    +0.174 HD
ENDROOT
BRANCH   1   9
ATOM      5  C   UNL     1      -0.019   1.526   0.010  0.00  0.00    +0.047 C 
ATOM      6  C   UNL     1       0.002  -0.004   0.002  0.00  0.00    +0.137 C 
ATOM      7  C   UNL     1      -1.403  -0.557   0.139  0.00  0.00    +0.267 C 
ATOM      8  O   UNL     1      -2.332  -0.392  -0.621  0.00  0.00    -0.271 OA
ATOM      9  N   UNL     1      -1.403  -1.272   1.282  0.00  0.00    -0.137 N 
ATOM     10  C   UNL     1      -0.206  -1.247   1.879  0.00  0.00    +0.327 C 
ATOM     11  O   UNL     1       0.040  -1.819   2.924  0.00  0.00    -0.251 OA
ATOM     12  N   UNL     1       0.695  -0.520   1.195  0.00  0.00    -0.280 N 
ATOM     13  H   UNL     1       1.621  -0.365   1.440  0.00  0.00    +0.152 HD
BRANCH   6  14
ATOM     14  C   UNL     1       0.657  -0.517  -1.255  0.00  0.00    -0.015 A 
ATOM     15  C   UNL     1      -0.107  -0.772  -2.378  0.00  0.00    +0.006 A 
ATOM     16  C   UNL     1       0.493  -1.242  -3.530  0.00  0.00    +0.000 A 
ATOM     17  C   UNL     1       1.859  -1.457  -3.560  0.00  0.00    +0.000 A 
ATOM     18  C   UNL     1       2.623  -1.202  -2.437  0.00  0.00    +0.000 A 
ATOM     19  C   UNL     1       2.023  -0.727  -1.286  0.00  0.00    +0.006 A 
ENDBRANCH   6  14
ENDBRANCH   1   9
BRANCH   2  20
ATOM     20  C   UNL     1      -3.787  -4.033   2.223  0.00  0.00    +0.179 C 
BRANCH  20  21
ATOM     21  N   UNL     1      -3.620  -5.475   1.996  0.00  0.00    -0.297 NA
ATOM     22  H   UNL     1      -3.467  -5.671   1.018  0.00  0.00    +0.123 HD
BRANCH  21  23
ATOM     23  C   UNL     1      -4.774  -6.225   2.509  0.00  0.00    +0.122 C 
BRANCH  23  24
ATOM     24  C   UNL     1      -4.896  -7.530   1.765  0.00  0.00    -0.025 A 
ATOM     25  C   UNL     1      -3.761  -8.254   1.451  0.00  0.00    +0.008 A 
ATOM     26  C   UNL     1      -3.871  -9.451   0.769  0.00  0.00    +0.038 A 
ATOM     27  C   UNL     1      -5.119  -9.925   0.401  0.00  0.00    +0.123 A 
ATOM     28  C   UNL     1      -6.255  -9.199   0.717  0.00  0.00    +0.038 A 
ATOM     29  C   UNL     1      -6.143  -8.005   1.403  0.00  0.00    +0.008 A 
ATOM     30  F   UNL     1      -5.228 -11.095  -0.265  0.00  0.00    -0.205 F 
ENDBRANCH  23  24
BRANCH  23  31
ATOM     31  C   UNL     1      -4.581  -6.500   3.978  0.00  0.00    +0.011 A 
ATOM     32  C   UNL     1      -5.493  -6.465   4.980  0.00  0.00    +0.013 A 
ATOM     33  C   UNL     1      -5.085  -6.758   6.268  0.00  0.00    +0.008 A 
ATOM     34  C   UNL     1      -3.786  -7.072   6.491  0.00  0.00    +0.045 A 
ATOM     35  S   UNL     1      -3.094  -6.965   4.849  0.00  0.00    -0.100 S 
ENDBRANCH  23  31
ENDBRANCH  21  23
ENDBRANCH  20  21
ENDBRANCH   2  20
TORSDOF 7
