REMARK  Name = ZINC49279040
REMARK  8 active torsions:
REMARK  status: ('A' for Active; 'I' for Inactive)
REMARK    1  A    between atoms: C_1  and  C_2
REMARK    2  A    between atoms: C_2  and  C_3
REMARK    3  A    between atoms: C_3  and  N_4
REMARK    4  A    between atoms: N_7  and  N_8
REMARK    5  A    between atoms: C_9  and  C_11
REMARK    6  A    between atoms: C_11  and  C_13
REMARK    7  A    between atoms: C_11  and  S_14
REMARK    8  A    between atoms: S_14  and  C_15
REMARK                            x       y       z     vdW  Elec       q    Type
REMARK                         _______ _______ _______ _____ _____    ______ ____
ROOT
ATOM      1  N   UNL     1       1.665  -5.249  -1.744  0.00  0.00    -0.232 N 
ATOM      2  C   UNL     1       1.312  -6.524  -1.484  0.00  0.00    +0.242 C 
ATOM      3  O   UNL     1       1.732  -7.423  -2.181  0.00  0.00    -0.273 OA
ATOM      4  H   UNL     1       1.329  -4.530  -1.186  0.00  0.00    +0.173 HD
ENDROOT
BRANCH   1   8
ATOM      5  N   UNL     1       2.402  -2.689  -2.305  0.00  0.00    -0.298 N 
ATOM      6  C   UNL     1       2.868  -3.688  -3.079  0.00  0.00    +0.316 C 
ATOM      7  O   UNL     1       3.607  -3.440  -4.013  0.00  0.00    -0.251 OA
ATOM      8  N   UNL     1       2.516  -4.963  -2.819  0.00  0.00    -0.218 N 
ATOM      9  H   UNL     1       1.813  -2.887  -1.560  0.00  0.00    +0.150 HD
ATOM     10  H   UNL     1       2.851  -5.682  -3.377  0.00  0.00    +0.174 HD
BRANCH   5  11
ATOM     11  C   UNL     1       2.785  -1.304  -2.587  0.00  0.00    +0.105 C 
BRANCH  11  13
ATOM     12  C   UNL     1       2.525   1.073  -1.863  0.00  0.00    +0.005 C 
ATOM     13  C   UNL     1       2.125  -0.373  -1.568  0.00  0.00    +0.015 C 
ENDBRANCH  11  13
ENDBRANCH   5  11
ENDBRANCH   1   8
BRANCH   2  14
ATOM     14  C   UNL     1       0.397  -6.831  -0.327  0.00  0.00    +0.135 C 
ATOM     15  C   UNL     1       1.201  -6.828   0.975  0.00  0.00    +0.029 C 
BRANCH  14  16
ATOM     16  S   UNL     1      -0.356  -8.464  -0.569  0.00  0.00    -0.113 S 
BRANCH  16  17
ATOM     17  C   UNL     1      -1.439  -8.235  -1.940  0.00  0.00    +0.009 A 
ATOM     18  C   UNL     1      -1.627  -6.966  -2.474  0.00  0.00    +0.016 A 
ATOM     19  C   UNL     1      -2.476  -6.790  -3.549  0.00  0.00    +0.016 A 
ATOM     20  C   UNL     1      -3.139  -7.875  -4.093  0.00  0.00    +0.018 A 
ATOM     21  C   UNL     1      -2.954  -9.140  -3.564  0.00  0.00    +0.016 A 
ATOM     22  C   UNL     1      -2.102  -9.324  -2.492  0.00  0.00    +0.016 A 
ATOM     23 BR   UNL     1      -4.301  -7.630  -5.565  0.00  0.00    -0.050 Br
ENDBRANCH  16  17
ENDBRANCH  14  16
ENDBRANCH   2  14
TORSDOF 6
