REMARK  Name = ZINC36531283
REMARK  8 active torsions:
REMARK  status: ('A' for Active; 'I' for Inactive)
REMARK    1  A    between atoms: C_1  and  N_2
REMARK    2  A    between atoms: N_2  and  C_3
REMARK    3  A    between atoms: C_3  and  C_5
REMARK    4  A    between atoms: C_3  and  C_19
REMARK    5  A    between atoms: N_21  and  C_22
REMARK    6  A    between atoms: C_28  and  C_30
REMARK    7  A    between atoms: C_34  and  O_37
REMARK    8  A    between atoms: C_35  and  O_36
REMARK                            x       y       z     vdW  Elec       q    Type
REMARK                         _______ _______ _______ _____ _____    ______ ____
ROOT
ATOM      1  C   UNL     1       0.547  -0.885   1.329  0.00  0.00    +0.193 C 
ENDROOT
BRANCH   1   2
ATOM      2  C   UNL     1      -0.179   0.010   2.299  0.00  0.00    -0.010 A 
ATOM      3  C   UNL     1       0.532   0.744   3.180  0.00  0.00    +0.015 A 
ATOM      4  C   UNL     1      -0.103   1.599   4.110  0.00  0.00    -0.017 A 
ATOM      5  C   UNL     1       0.646   2.357   5.021  0.00  0.00    +0.008 A 
ATOM      6  C   UNL     1       0.007   3.175   5.907  0.00  0.00    +0.001 A 
ATOM      7  C   UNL     1      -1.380   3.267   5.921  0.00  0.00    +0.001 A 
ATOM      8  C   UNL     1      -2.137   2.541   5.047  0.00  0.00    +0.009 A 
ATOM      9  C   UNL     1      -1.512   1.696   4.127  0.00  0.00    -0.010 A 
ATOM     10  C   UNL     1      -2.285   0.899   3.171  0.00  0.00    -0.010 A 
ATOM     11  C   UNL     1      -1.591   0.068   2.263  0.00  0.00    -0.012 A 
ATOM     12  C   UNL     1      -2.322  -0.694   1.340  0.00  0.00    +0.009 A 
ATOM     13  C   UNL     1      -3.684  -0.620   1.327  0.00  0.00    +0.001 A 
ATOM     14  C   UNL     1      -4.362   0.204   2.218  0.00  0.00    +0.001 A 
ATOM     15  C   UNL     1      -3.680   0.950   3.137  0.00  0.00    +0.009 A 
ENDBRANCH   1   2
BRANCH   1  17
ATOM     16  C   UNL     1       1.105   1.110  -0.136  0.00  0.00    +0.133 C 
ATOM     17  N   UNL     1       0.581  -0.251   0.009  0.00  0.00    -0.285 N 
ATOM     18  C   UNL     1       0.129  -0.918  -1.071  0.00  0.00    +0.251 C 
ATOM     19  O   UNL     1      -0.396  -2.006  -0.938  0.00  0.00    -0.270 OA
BRANCH  18  20
ATOM     20  C   UNL     1       0.270  -0.327  -2.416  0.00  0.00    +0.082 A 
ATOM     21  C   UNL     1       1.461   0.306  -2.783  0.00  0.00    +0.017 A 
ATOM     22  C   UNL     1       1.590   0.856  -4.039  0.00  0.00    +0.005 A 
ATOM     23  C   UNL     1       0.543   0.786  -4.944  0.00  0.00    +0.049 A 
ATOM     24  C   UNL     1      -0.643   0.164  -4.595  0.00  0.00    +0.159 A 
ATOM     25  C   UNL     1      -0.786  -0.402  -3.332  0.00  0.00    +0.171 A 
BRANCH  25  26
ATOM     26  O   UNL     1      -1.945  -1.019  -2.987  0.00  0.00    -0.503 OA
ATOM     27  H   UNL     1      -2.599  -0.432  -2.584  0.00  0.00    +0.292 HD
ENDBRANCH  25  26
BRANCH  24  28
ATOM     28  O   UNL     1      -1.666   0.099  -5.489  0.00  0.00    -0.503 OA
ATOM     29  H   UNL     1      -1.648  -0.687  -6.051  0.00  0.00    +0.292 HD
ENDBRANCH  24  28
ENDBRANCH  18  20
ENDBRANCH   1  17
BRANCH   1  30
ATOM     30  C   UNL     1       1.956  -1.112   1.813  0.00  0.00    +0.238 C 
ATOM     31  O   UNL     1       2.867  -0.451   1.360  0.00  0.00    -0.273 OA
ATOM     32  N   UNL     1       2.205  -2.049   2.749  0.00  0.00    -0.311 N 
ATOM     33  H   UNL     1       1.489  -2.623   3.063  0.00  0.00    +0.149 HD
BRANCH  32  34
ATOM     34  C   UNL     1       3.557  -2.201   3.293  0.00  0.00    +0.073 C 
ATOM     35  C   UNL     1       4.376  -3.111   2.376  0.00  0.00    +0.022 C 
ATOM     36  C   UNL     1       5.788  -3.269   2.943  0.00  0.00    +0.002 C 
ATOM     37  C   UNL     1       5.710  -3.890   4.340  0.00  0.00    +0.000 C 
ATOM     38  C   UNL     1       4.890  -2.981   5.257  0.00  0.00    +0.002 C 
ATOM     39  C   UNL     1       3.478  -2.822   4.689  0.00  0.00    +0.022 C 
ENDBRANCH  32  34
ENDBRANCH   1  30
TORSDOF 7
