REMARK  Name = ZINC04535391
REMARK  7 active torsions:
REMARK  status: ('A' for Active; 'I' for Inactive)
REMARK    1  A    between atoms: C_1  and  C_2
REMARK    2  A    between atoms: N_4  and  C_23
REMARK    3  A    between atoms: C_7  and  C_9
REMARK    4  A    between atoms: C_9  and  C_11
REMARK    5  A    between atoms: C_9  and  C_18
REMARK    6  A    between atoms: C_18  and  C_19
REMARK    7  A    between atoms: C_18  and  C_21
REMARK                            x       y       z     vdW  Elec       q    Type
REMARK                         _______ _______ _______ _____ _____    ______ ____
ROOT
ATOM      1  C   UNL     1      -0.408   1.472  -0.164  0.00  0.00    +0.063 C 
ATOM      2  C   UNL     1      -0.197  -0.018  -0.087  0.00  0.00    +0.047 C 
ATOM      3  N   UNL     1      -0.231  -0.839  -1.063  0.00  0.00    -0.181 NA
ATOM      4  N   UNL     1       0.004  -2.156  -0.679  0.00  0.00    -0.160 N 
ATOM      5  C   UNL     1       0.214  -2.245   0.651  0.00  0.00    +0.249 C 
ATOM      6  O   UNL     1       0.445  -3.245   1.297  0.00  0.00    -0.273 OA
ATOM      7  C   UNL     1       0.103  -0.821   1.161  0.00  0.00    +0.132 C 
ENDROOT
BRANCH   4   8
ATOM      8  C   UNL     1       0.020  -3.246  -1.558  0.00  0.00    +0.060 A 
ATOM      9  C   UNL     1       0.258  -4.526  -1.075  0.00  0.00    +0.025 A 
ATOM     10  C   UNL     1       0.273  -5.599  -1.944  0.00  0.00    +0.002 A 
ATOM     11  C   UNL     1       0.052  -5.400  -3.294  0.00  0.00    +0.000 A 
ATOM     12  C   UNL     1      -0.186  -4.127  -3.779  0.00  0.00    +0.002 A 
ATOM     13  C   UNL     1      -0.208  -3.050  -2.914  0.00  0.00    +0.025 A 
ENDBRANCH   4   8
BRANCH   7  14
ATOM     14  C   UNL     1      -1.043  -0.699   2.168  0.00  0.00    +0.067 C 
BRANCH  14  15
ATOM     15  C   UNL     1      -2.326  -1.161   1.526  0.00  0.00    -0.040 A 
ATOM     16  C   UNL     1      -2.521  -2.504   1.260  0.00  0.00    +0.004 A 
ATOM     17  C   UNL     1      -3.698  -2.929   0.672  0.00  0.00    +0.002 A 
ATOM     18  C   UNL     1      -4.679  -2.011   0.348  0.00  0.00    +0.020 A 
ATOM     19  C   UNL     1      -4.484  -0.667   0.613  0.00  0.00    +0.041 A 
ATOM     20  C   UNL     1      -3.309  -0.244   1.208  0.00  0.00    +0.024 A 
ATOM     21 CL   UNL     1      -5.716   0.486   0.207  0.00  0.00    -0.084 Cl
ENDBRANCH  14  15
BRANCH  14  22
ATOM     22  C   UNL     1      -0.742  -1.569   3.390  0.00  0.00    +0.202 C 
BRANCH  22  23
ATOM     23  C   UNL     1       0.546  -1.164   3.975  0.00  0.00    +0.081 C 
ATOM     24  N   UNL     1       1.541  -0.852   4.427  0.00  0.00    -0.195 NA
ENDBRANCH  22  23
BRANCH  22  25
ATOM     25  C   UNL     1      -1.810  -1.397   4.389  0.00  0.00    +0.081 C 
ATOM     26  N   UNL     1      -2.634  -1.264   5.160  0.00  0.00    -0.195 NA
ENDBRANCH  22  25
ENDBRANCH  14  22
ENDBRANCH   7  14
TORSDOF 6
