REMARK  Name = ZINC37137897
REMARK  5 active torsions:
REMARK  status: ('A' for Active; 'I' for Inactive)
REMARK    1  A    between atoms: C_6  and  C_7
REMARK    2  A    between atoms: C_7  and  N_8
REMARK    3  A    between atoms: N_8  and  C_9
REMARK    4  A    between atoms: C_12  and  S_16
REMARK    5  A    between atoms: S_16  and  N_19
REMARK                            x       y       z     vdW  Elec       q    Type
REMARK                         _______ _______ _______ _____ _____    ______ ____
ROOT
ATOM      1  C   UNL     1      -2.908  -1.719  -1.616  0.00  0.00    +0.042 A 
ATOM      2  C   UNL     1      -3.678  -2.182  -0.557  0.00  0.00    +0.026 A 
ATOM      3  C   UNL     1      -4.847  -2.874  -0.805  0.00  0.00    +0.030 A 
ATOM      4  C   UNL     1      -5.252  -3.107  -2.107  0.00  0.00    +0.106 A 
ATOM      5  C   UNL     1      -4.488  -2.648  -3.164  0.00  0.00    +0.045 A 
ATOM      6  C   UNL     1      -3.320  -1.950  -2.923  0.00  0.00    +0.041 A 
ATOM      7 BR   UNL     1      -2.281  -1.315  -4.370  0.00  0.00    -0.048 Br
ENDROOT
BRANCH   4   8
ATOM      8  S   UNL     1      -6.743  -3.992  -2.418  0.00  0.00    +0.056 S 
ATOM      9  O   UNL     1      -6.620  -4.551  -3.719  0.00  0.00    -0.153 OA
ATOM     10  O   UNL     1      -6.992  -4.787  -1.267  0.00  0.00    -0.153 OA
BRANCH   8  11
ATOM     11  N   UNL     1      -7.966  -2.878  -2.497  0.00  0.00    -0.204 NA
ATOM     12  H   UNL     1      -7.771  -1.935  -2.377  0.00  0.00    +0.144 HD
ATOM     13  H   UNL     1      -8.877  -3.168  -2.663  0.00  0.00    +0.144 HD
ENDBRANCH   8  11
ENDBRANCH   4   8
BRANCH   1  14
ATOM     14  N   UNL     1      -1.726  -1.017  -1.368  0.00  0.00    -0.339 N 
ATOM     15  H   UNL     1      -1.191  -0.691  -2.109  0.00  0.00    +0.146 HD
BRANCH  14  16
ATOM     16  C   UNL     1      -1.293  -0.775   0.010  0.00  0.00    +0.137 C 
BRANCH  16  22
ATOM     17  C   UNL     1      -0.017   1.378   0.010  0.00  0.00    +0.006 A 
ATOM     18  C   UNL     1       1.171   2.086   0.002  0.00  0.00    +0.015 A 
ATOM     19  C   UNL     1       2.378   1.411  -0.013  0.00  0.00    +0.018 A 
ATOM     20  C   UNL     1       2.396   0.027  -0.021  0.00  0.00    +0.015 A 
ATOM     21  C   UNL     1       1.208  -0.679  -0.013  0.00  0.00    +0.006 A 
ATOM     22  C   UNL     1       0.002  -0.004   0.002  0.00  0.00    -0.030 A 
ATOM     23 BR   UNL     1       4.003   2.378  -0.024  0.00  0.00    -0.050 Br
ENDBRANCH  16  22
ENDBRANCH  14  16
ENDBRANCH   1  14
TORSDOF 5
