REMARK  Name = ZINC04827649
REMARK  5 active torsions:
REMARK  status: ('A' for Active; 'I' for Inactive)
REMARK    1  A    between atoms: C_1  and  N_48
REMARK    2  A    between atoms: C_4  and  C_5
REMARK    3  A    between atoms: C_15  and  C_23
REMARK    4  A    between atoms: C_17  and  C_21
REMARK    5  A    between atoms: C_18  and  N_20
REMARK                            x       y       z     vdW  Elec       q    Type
REMARK                         _______ _______ _______ _____ _____    ______ ____
ROOT
ATOM      1  C   UNL     1       4.318   1.624  -2.540  0.00  0.00    -0.095 C 
ATOM      2  C   UNL     1       4.112   2.518  -0.295  0.00  0.00    -0.039 C 
ATOM      3  C   UNL     1       3.119   3.224   0.604  0.00  0.00    -0.021 C 
ATOM      4  C   UNL     1       3.472   4.307   1.319  0.00  0.00    +0.013 C 
ATOM      5  C   UNL     1       1.747   2.679   0.666  0.00  0.00    +0.130 C 
ATOM      6  C   UNL     1       1.367   1.745  -0.206  0.00  0.00    -0.031 C 
ATOM      7  C   UNL     1       2.316   1.213  -1.250  0.00  0.00    -0.043 C 
ATOM      8  C   UNL     1      -0.034   1.185  -0.163  0.00  0.00    +0.092 C 
ATOM      9  C   UNL     1      -0.672   1.472   1.167  0.00  0.00    +0.098 C 
ATOM     10  C   UNL     1      -0.171   2.433   1.982  0.00  0.00    +0.199 C 
ATOM     11  O   UNL     1       0.906   3.151   1.619  0.00  0.00    -0.441 OA
ATOM     12  N   UNL     1       3.382   2.185  -1.539  0.00  0.00    +0.383 N 
ATOM     13  H   UNL     1       2.961   3.041  -1.918  0.00  0.00    -0.081 HD
ENDROOT
BRANCH   4  14
ATOM     14  C   UNL     1       4.883   4.728   1.369  0.00  0.00    -0.022 A 
ATOM     15  C   UNL     1       5.903   3.774   1.315  0.00  0.00    +0.008 A 
ATOM     16  C   UNL     1       7.222   4.175   1.356  0.00  0.00    +0.003 A 
ATOM     17  C   UNL     1       7.538   5.518   1.463  0.00  0.00    +0.038 A 
ATOM     18  C   UNL     1       6.533   6.470   1.523  0.00  0.00    +0.124 A 
ATOM     19  C   UNL     1       5.207   6.083   1.477  0.00  0.00    +0.046 A 
ATOM     20  F   UNL     1       6.849   7.780   1.627  0.00  0.00    -0.205 F 
ENDBRANCH   4  14
BRANCH   8  21
ATOM     21  C   UNL     1      -0.858   1.819  -1.254  0.00  0.00    -0.032 A 
ATOM     22  C   UNL     1      -1.422   1.031  -2.240  0.00  0.00    +0.005 A 
ATOM     23  C   UNL     1      -2.178   1.611  -3.241  0.00  0.00    +0.003 A 
ATOM     24  C   UNL     1      -2.372   2.980  -3.257  0.00  0.00    +0.038 A 
ATOM     25  C   UNL     1      -1.807   3.769  -2.270  0.00  0.00    +0.124 A 
ATOM     26  C   UNL     1      -1.055   3.187  -1.264  0.00  0.00    +0.043 A 
ATOM     27  F   UNL     1      -1.996   5.107  -2.284  0.00  0.00    -0.205 F 
ENDBRANCH   8  21
BRANCH  10  28
ATOM     28  N   UNL     1      -0.771   2.676   3.192  0.00  0.00    -0.328 N 
ATOM     29  H   UNL     1      -0.418   3.362   3.780  0.00  0.00    +0.145 HD
ATOM     30  H   UNL     1      -1.548   2.161   3.460  0.00  0.00    +0.145 HD
ENDBRANCH  10  28
BRANCH   9  31
ATOM     31  C   UNL     1      -1.820   0.722   1.578  0.00  0.00    +0.101 C 
ATOM     32  N   UNL     1      -2.732   0.127   1.905  0.00  0.00    -0.191 NA
ENDBRANCH   9  31
TORSDOF 4
