REMARK  Name = ZINC19315986
REMARK  10 active torsions:
REMARK  status: ('A' for Active; 'I' for Inactive)
REMARK    1  A    between atoms: C_1  and  C_2
REMARK    2  A    between atoms: C_6  and  C_34
REMARK    3  A    between atoms: C_7  and  N_8
REMARK    4  A    between atoms: C_9  and  C_11
REMARK    5  A    between atoms: C_11  and  N_12
REMARK    6  A    between atoms: N_12  and  C_13
REMARK    7  A    between atoms: C_14  and  C_16
REMARK    8  A    between atoms: C_16  and  S_17
REMARK    9  A    between atoms: S_17  and  C_18
REMARK   10  A    between atoms: C_28  and  C_32
REMARK                            x       y       z     vdW  Elec       q    Type
REMARK                         _______ _______ _______ _____ _____    ______ ____
ROOT
ATOM      1  C   UNL     1      -4.359  -4.990   0.413  0.00  0.00    +0.173 C 
ENDROOT
BRANCH   1   4
ATOM      2  N   UNL     1      -1.978  -4.521   0.890  0.00  0.00    -0.295 N 
ATOM      3  C   UNL     1      -2.246  -4.838   2.295  0.00  0.00    +0.132 C 
ATOM      4  C   UNL     1      -2.972  -4.589  -0.018  0.00  0.00    +0.226 C 
ATOM      5  O   UNL     1      -2.750  -4.327  -1.181  0.00  0.00    -0.275 OA
BRANCH   2   6
ATOM      6  C   UNL     1      -0.629  -4.131   0.471  0.00  0.00    +0.203 C 
BRANCH   6   8
ATOM      7  N   UNL     1       0.680  -2.045   0.238  0.00  0.00    -0.284 N 
ATOM      8  C   UNL     1      -0.485  -2.634   0.574  0.00  0.00    +0.235 C 
ATOM      9  O   UNL     1      -1.417  -1.960   0.959  0.00  0.00    -0.274 OA
ATOM     10  H   UNL     1       1.494  -2.644  -0.196  0.00  0.00    +0.155 HD
BRANCH   7  17
ATOM     11  C   UNL     1      -1.238  -0.267  -0.883  0.00  0.00    +0.045 C 
ATOM     12  C   UNL     1      -0.059   0.231  -0.087  0.00  0.00    -0.029 A 
ATOM     13  C   UNL     1       0.112   1.586   0.121  0.00  0.00    +0.005 A 
ATOM     14  C   UNL     1       1.197   2.044   0.846  0.00  0.00    +0.001 A 
ATOM     15  C   UNL     1       2.111   1.148   1.369  0.00  0.00    +0.005 A 
ATOM     16  C   UNL     1       1.942  -0.208   1.170  0.00  0.00    -0.029 A 
ATOM     17  C   UNL     1       0.854  -0.672   0.442  0.00  0.00    +0.039 A 
ATOM     18  C   UNL     1       2.938  -1.184   1.741  0.00  0.00    +0.045 C 
ENDBRANCH   7  17
ENDBRANCH   6   8
ENDBRANCH   2   6
ENDBRANCH   1   4
BRANCH   1  19
ATOM     19  S   UNL     1      -5.461  -4.988  -1.023  0.00  0.00    -0.077 S 
BRANCH  19  20
ATOM     20  C   UNL     1      -6.968  -5.478  -0.254  0.00  0.00    +0.191 A 
ATOM     21  N   UNL     1      -6.983  -5.723   1.052  0.00  0.00    -0.207 NA
ATOM     22  C   UNL     1      -8.085  -6.089   1.685  0.00  0.00    +0.129 A 
ATOM     23  C   UNL     1      -9.294  -6.238   0.949  0.00  0.00    +0.051 A 
ATOM     24  C   UNL     1     -10.618  -6.634   1.434  0.00  0.00    -0.025 A 
ATOM     25  C   UNL     1     -11.608  -6.700   0.523  0.00  0.00    -0.004 A 
ATOM     26  S   UNL     1     -10.853  -6.247  -1.016  0.00  0.00    -0.073 S 
ATOM     27  C   UNL     1      -9.202  -5.967  -0.431  0.00  0.00    +0.115 A 
ATOM     28  N   UNL     1      -8.065  -5.601  -0.989  0.00  0.00    -0.214 NA
ATOM     29  C   UNL     1     -13.039  -7.077   0.763  0.00  0.00    +0.046 C 
ATOM     30  C   UNL     1     -13.308  -7.022   2.274  0.00  0.00    -0.009 C 
ATOM     31  C   UNL     1     -12.182  -7.763   3.000  0.00  0.00    +0.008 C 
ATOM     32  C   UNL     1     -10.884  -6.961   2.901  0.00  0.00    +0.037 C 
ATOM     33  C   UNL     1     -14.647  -7.694   2.582  0.00  0.00    +0.008 C 
ATOM     34  N   UNL     1      -8.061  -6.330   3.047  0.00  0.00    -0.343 N 
ATOM     35  H   UNL     1      -8.981  -6.634   3.567  0.00  0.00    +0.144 HD
ATOM     36  H   UNL     1      -7.122  -6.217   3.609  0.00  0.00    +0.144 HD
ENDBRANCH  19  20
ENDBRANCH   1  19
TORSDOF 6
