REMARK  Name = ZINC30803417
REMARK  6 active torsions:
REMARK  status: ('A' for Active; 'I' for Inactive)
REMARK    1  A    between atoms: C_4  and  C_7
REMARK    2  A    between atoms: C_7  and  C_9
REMARK    3  A    between atoms: C_7  and  N_12
REMARK    4  A    between atoms: C_13  and  C_15
REMARK    5  A    between atoms: N_17  and  C_24
REMARK    6  A    between atoms: C_18  and  C_21
REMARK                            x       y       z     vdW  Elec       q    Type
REMARK                         _______ _______ _______ _____ _____    ______ ____
ROOT
ATOM      1  C   UNL     1       0.266   5.551   0.030  0.00  0.00    +0.123 C 
ATOM      2  N   UNL     1       0.021   4.280   0.025  0.00  0.00    -0.178 NA
ATOM      3  N   UNL     1       1.163   3.482   0.010  0.00  0.00    -0.212 N 
ATOM      4  C   UNL     1       2.351   4.350   0.009  0.00  0.00    +0.189 C 
ATOM      5  C   UNL     1       1.762   5.774   0.017  0.00  0.00    +0.096 C 
ENDROOT
BRANCH   3   6
ATOM      6  C   UNL     1       1.178   2.086   0.002  0.00  0.00    +0.052 A 
ATOM      7  C   UNL     1      -0.017   1.377   0.010  0.00  0.00    +0.025 A 
ATOM      8  C   UNL     1       0.002  -0.004   0.002  0.00  0.00    +0.002 A 
ATOM      9  C   UNL     1       1.208  -0.681  -0.013  0.00  0.00    +0.000 A 
ATOM     10  C   UNL     1       2.399   0.022  -0.021  0.00  0.00    +0.002 A 
ATOM     11  C   UNL     1       2.388   1.403  -0.013  0.00  0.00    +0.025 A 
ENDBRANCH   3   6
BRANCH   4  12
ATOM     12  C   UNL     1       3.171   4.126  -1.236  0.00  0.00    +0.233 C 
ATOM     13  O   UNL     1       2.671   3.590  -2.202  0.00  0.00    -0.274 OA
ATOM     14  N   UNL     1       4.459   4.520  -1.275  0.00  0.00    -0.328 N 
ATOM     15  H   UNL     1       5.057   4.357  -2.183  0.00  0.00    +0.145 HD
ATOM     16  H   UNL     1       4.912   5.006  -0.398  0.00  0.00    +0.145 HD
ENDBRANCH   4  12
BRANCH   1  18
ATOM     17  N   UNL     1      -2.055   6.285   0.058  0.00  0.00    -0.303 N 
ATOM     18  C   UNL     1      -0.746   6.606   0.047  0.00  0.00    +0.260 C 
ATOM     19  O   UNL     1      -0.406   7.775   0.051  0.00  0.00    -0.269 OA
ATOM     20  H   UNL     1      -2.362   5.229   0.054  0.00  0.00    +0.150 HD
BRANCH  17  21
ATOM     21  C   UNL     1      -3.069   7.343   0.074  0.00  0.00    +0.107 C 
BRANCH  21  25
ATOM     22  C   UNL     1      -6.705   5.855  -1.603  0.00  0.00    +0.000 A 
ATOM     23  C   UNL     1      -6.286   7.140  -1.891  0.00  0.00    +0.000 A 
ATOM     24  C   UNL     1      -5.109   7.622  -1.349  0.00  0.00    +0.005 A 
ATOM     25  C   UNL     1      -4.351   6.818  -0.517  0.00  0.00    -0.027 A 
ATOM     26  C   UNL     1      -4.768   5.531  -0.233  0.00  0.00    +0.005 A 
ATOM     27  C   UNL     1      -5.947   5.051  -0.772  0.00  0.00    +0.000 A 
ENDBRANCH  21  25
BRANCH  21  28
ATOM     28  C   UNL     1      -3.317   7.789   1.516  0.00  0.00    +0.014 C 
ATOM     29  C   UNL     1      -3.243   9.288   1.815  0.00  0.00    +0.006 C 
ATOM     30  C   UNL     1      -2.128   8.356   2.295  0.00  0.00    +0.006 C 
ENDBRANCH  21  28
ENDBRANCH  17  21
ENDBRANCH   1  18
TORSDOF 6
