REMARK  Name = ZINC65739643
REMARK  8 active torsions:
REMARK  status: ('A' for Active; 'I' for Inactive)
REMARK    1  A    between atoms: C_9  and  C_12
REMARK    2  A    between atoms: C_12  and  C_14
REMARK    3  A    between atoms: C_12  and  O_32
REMARK    4  A    between atoms: C_14  and  N_15
REMARK    5  A    between atoms: N_15  and  C_16
REMARK    6  A    between atoms: C_16  and  C_17
REMARK    7  A    between atoms: C_17  and  C_19
REMARK    8  A    between atoms: C_17  and  O_31
REMARK                            x       y       z     vdW  Elec       q    Type
REMARK                         _______ _______ _______ _____ _____    ______ ____
ROOT
ATOM      1  N   UNL     1       7.420  -2.323   0.324  0.00  0.00    +0.383 N 
ATOM      2  H   UNL     1       7.466  -3.279   0.642  0.00  0.00    -0.086 HD
ATOM      3  H   UNL     1       7.554  -2.294  -0.676  0.00  0.00    -0.086 HD
ENDROOT
BRANCH   1   4
ATOM      4  C   UNL     1       6.106  -1.759   0.658  0.00  0.00    -0.047 C 
BRANCH   4   5
ATOM      5  C   UNL     1       5.010  -2.578  -0.028  0.00  0.00    +0.138 C 
BRANCH   5  14
ATOM      6  C   UNL     1      -0.017   1.377   0.010  0.00  0.00    +0.000 A 
ATOM      7  C   UNL     1       1.172   2.084   0.002  0.00  0.00    +0.004 A 
ATOM      8  C   UNL     1       2.375   1.409  -0.015  0.00  0.00    +0.046 A 
ATOM      9  C   UNL     1       2.398   0.018  -0.024  0.00  0.00    +0.124 A 
ATOM     10  C   UNL     1       1.207  -0.687  -0.012  0.00  0.00    -0.006 A 
ATOM     11  C   UNL     1       0.002  -0.004   0.002  0.00  0.00    +0.007 A 
ATOM     12  C   UNL     1       1.187  -2.194  -0.010  0.00  0.00    +0.042 C 
ATOM     13  C   UNL     1       2.548  -2.729  -0.463  0.00  0.00    +0.052 C 
ATOM     14  C   UNL     1       3.641  -1.990   0.320  0.00  0.00    +0.200 C 
ATOM     15  O   UNL     1       3.602  -0.610  -0.046  0.00  0.00    -0.486 OA
ENDBRANCH   5  14
BRANCH   5  16
ATOM     16  O   UNL     1       5.200  -2.537  -1.443  0.00  0.00    -0.390 OA
ATOM     17  H   UNL     1       5.168  -1.647  -1.819  0.00  0.00    +0.210 HD
ENDBRANCH   5  16
ENDBRANCH   4   5
ENDBRANCH   1   4
BRANCH   1  18
ATOM     18  C   UNL     1       8.472  -1.536   0.982  0.00  0.00    -0.047 C 
BRANCH  18  19
ATOM     19  C   UNL     1       9.841  -2.124   0.634  0.00  0.00    +0.138 C 
BRANCH  19  20
ATOM     20  C   UNL     1      10.937  -1.304   1.320  0.00  0.00    +0.200 C 
ATOM     21  C   UNL     1      12.300  -1.969   1.088  0.00  0.00    +0.052 C 
ATOM     22  C   UNL     1      13.382  -1.068   1.690  0.00  0.00    +0.042 C 
ATOM     23  C   UNL     1      12.986  -0.663   3.087  0.00  0.00    -0.003 A 
ATOM     24  C   UNL     1      13.961  -0.174   3.941  0.00  0.00    +0.045 A 
ATOM     25  C   UNL     1      13.633   0.210   5.228  0.00  0.00    +0.124 A 
ATOM     26  C   UNL     1      12.324   0.107   5.667  0.00  0.00    +0.042 A 
ATOM     27  C   UNL     1      11.350  -0.381   4.821  0.00  0.00    +0.049 A 
ATOM     28  C   UNL     1      11.678  -0.771   3.526  0.00  0.00    +0.124 A 
ATOM     29  O   UNL     1      10.692  -1.256   2.726  0.00  0.00    -0.486 OA
ATOM     30  F   UNL     1      14.589   0.685   6.056  0.00  0.00    -0.205 F 
ENDBRANCH  19  20
BRANCH  19  31
ATOM     31  O   UNL     1       9.907  -3.478   1.085  0.00  0.00    -0.390 OA
ATOM     32  H   UNL     1       9.786  -3.582   2.039  0.00  0.00    +0.210 HD
ENDBRANCH  19  31
ENDBRANCH  18  19
ENDBRANCH   1  18
TORSDOF 8
