REMARK  Name = ZINC28057584
REMARK  3 active torsions:
REMARK  status: ('A' for Active; 'I' for Inactive)
REMARK    1  A    between atoms: C_1  and  C_2
REMARK    2  A    between atoms: C_10  and  C_18
REMARK    3  A    between atoms: C_25  and  C_28
REMARK                            x       y       z     vdW  Elec       q    Type
REMARK                         _______ _______ _______ _____ _____    ______ ____
ROOT
ATOM      1  C   UNL     1       8.944   1.349   1.401  0.00  0.00    +0.044 C 
ATOM      2  C   UNL     1       8.032   0.199   1.061  0.00  0.00    -0.050 A 
ATOM      3  C   UNL     1       8.543  -1.085   0.981  0.00  0.00    +0.007 A 
ATOM      4  C   UNL     1       7.718  -2.151   0.669  0.00  0.00    +0.046 A 
ATOM      5  C   UNL     1       6.373  -1.934   0.436  0.00  0.00    +0.131 A 
ATOM      6  C   UNL     1       5.854  -0.635   0.517  0.00  0.00    +0.038 A 
ATOM      7  C   UNL     1       6.689   0.430   0.831  0.00  0.00    +0.016 A 
ATOM      8  C   UNL     1       4.408  -0.436   0.262  0.00  0.00    +0.050 C 
ATOM      9  C   UNL     1       3.606  -1.502   0.283  0.00  0.00    +0.026 C 
ATOM     10  C   UNL     1       2.126  -1.405   0.004  0.00  0.00    +0.177 C 
ATOM     11  N   UNL     1       1.701  -0.013   0.036  0.00  0.00    -0.201 N 
ATOM     12  C   UNL     1       2.558   1.041   0.026  0.00  0.00    +0.240 A 
ATOM     13  N   UNL     1       1.840   2.126   0.053  0.00  0.00    -0.092 NA
ATOM     14  N   UNL     1       0.585   1.830   0.084  0.00  0.00    -0.021 NA
ATOM     15  N   UNL     1       0.424   0.546   0.077  0.00  0.00    -0.042 NA
ATOM     16  N   UNL     1       3.930   0.854  -0.002  0.00  0.00    -0.282 N 
ATOM     17  C   UNL     1       4.191  -2.858   0.609  0.00  0.00    +0.235 C 
ATOM     18  O   UNL     1       5.532  -2.954   0.129  0.00  0.00    -0.479 OA
ATOM     19  H   UNL     1       4.637   1.668  -0.220  0.00  0.00    +0.155 HD
ENDROOT
BRANCH  17  20
ATOM     20  C   UNL     1       4.183  -3.056   2.103  0.00  0.00    +0.015 A 
ATOM     21  C   UNL     1       5.287  -2.697   2.853  0.00  0.00    +0.010 A 
ATOM     22  C   UNL     1       5.279  -2.874   4.224  0.00  0.00    +0.020 A 
ATOM     23  C   UNL     1       4.169  -3.420   4.845  0.00  0.00    +0.042 A 
ATOM     24  C   UNL     1       3.066  -3.784   4.094  0.00  0.00    +0.040 A 
ATOM     25  C   UNL     1       3.073  -3.602   2.722  0.00  0.00    +0.049 A 
ATOM     26 CL   UNL     1       1.690  -4.060   1.779  0.00  0.00    -0.083 Cl
ATOM     27 CL   UNL     1       4.161  -3.648   6.566  0.00  0.00    -0.083 Cl
ENDBRANCH  17  20
BRANCH  10  28
ATOM     28  C   UNL     1       1.835  -1.985  -1.356  0.00  0.00    +0.017 A 
ATOM     29  C   UNL     1       2.414  -1.431  -2.482  0.00  0.00    +0.009 A 
ATOM     30  C   UNL     1       2.148  -1.963  -3.730  0.00  0.00    +0.001 A 
ATOM     31  C   UNL     1       1.302  -3.050  -3.853  0.00  0.00    +0.003 A 
ATOM     32  C   UNL     1       0.722  -3.606  -2.729  0.00  0.00    +0.039 A 
ATOM     33  C   UNL     1       0.992  -3.076  -1.478  0.00  0.00    +0.129 A 
ATOM     34  F   UNL     1       0.429  -3.622  -0.378  0.00  0.00    -0.205 F 
ENDBRANCH  10  28
TORSDOF 2
