REMARK  Name = ZINC12454237
REMARK  7 active torsions:
REMARK  status: ('A' for Active; 'I' for Inactive)
REMARK    1  A    between atoms: C_1  and  C_2
REMARK    2  A    between atoms: C_5  and  C_7
REMARK    3  A    between atoms: C_7  and  N_8
REMARK    4  A    between atoms: C_9  and  C_11
REMARK    5  A    between atoms: C_11  and  C_12
REMARK    6  A    between atoms: C_19  and  C_20
REMARK    7  A    between atoms: C_19  and  N_48
REMARK                            x       y       z     vdW  Elec       q    Type
REMARK                         _______ _______ _______ _____ _____    ______ ____
ROOT
ATOM      1  C   UNL     1       1.264   3.091  -0.025  0.00  0.00    +0.028 C 
ATOM      2  C   UNL     1       1.218   1.590  -0.074  0.00  0.00    +0.200 C 
ATOM      3  O   UNL     1       2.264   0.977  -0.090  0.00  0.00    -0.278 OA
ATOM      4  N   UNL     1       0.072   0.902  -0.102  0.00  0.00    -0.318 N 
ATOM      5  C   UNL     1      -1.240   1.542  -0.056  0.00  0.00    +0.085 C 
ATOM      6  C   UNL     1      -1.116   3.022  -0.413  0.00  0.00    -0.058 C 
ATOM      7  H   UNL     1       0.114  -0.066  -0.159  0.00  0.00    +0.149 HD
ATOM      8  N   UNL     1      -0.045   3.609   0.417  0.00  0.00    +0.391 N 
ATOM      9  H   UNL     1      -0.197   3.344   1.398  0.00  0.00    -0.080 HD
ENDROOT
BRANCH   1  10
ATOM     10  C   UNL     1       2.335   3.534   0.974  0.00  0.00    +0.089 C 
BRANCH  10  12
ATOM     11  N   UNL     1       2.718   3.406   3.414  0.00  0.00    -0.311 N 
ATOM     12  C   UNL     1       1.962   3.057   2.354  0.00  0.00    +0.212 C 
ATOM     13  O   UNL     1       0.982   2.360   2.511  0.00  0.00    -0.276 OA
ATOM     14  H   UNL     1       3.502   3.963   3.289  0.00  0.00    +0.149 HD
BRANCH  11  15
ATOM     15  C   UNL     1       2.356   2.942   4.756  0.00  0.00    +0.146 C 
BRANCH  15  20
ATOM     16  C   UNL     1       6.606   4.079   8.325  0.00  0.00    +0.051 C 
ATOM     17  C   UNL     1       5.378   4.008   7.454  0.00  0.00    -0.013 A 
ATOM     18  C   UNL     1       4.367   4.903   7.330  0.00  0.00    +0.011 A 
ATOM     19  C   UNL     1       3.333   4.628   6.455  0.00  0.00    +0.013 A 
ATOM     20  C   UNL     1       3.354   3.467   5.755  0.00  0.00    +0.007 A 
ATOM     21  S   UNL     1       4.877   2.725   6.319  0.00  0.00    -0.097 S 
ENDBRANCH  15  20
ENDBRANCH  11  15
ENDBRANCH  10  12
ENDBRANCH   1  10
BRANCH   8  22
ATOM     22  C   UNL     1      -0.069   5.085   0.309  0.00  0.00    -0.039 C 
BRANCH  22  23
ATOM     23  C   UNL     1      -1.247   5.613   1.086  0.00  0.00    -0.026 A 
ATOM     24  C   UNL     1      -2.402   5.984   0.424  0.00  0.00    +0.005 A 
ATOM     25  C   UNL     1      -3.485   6.463   1.136  0.00  0.00    +0.003 A 
ATOM     26  C   UNL     1      -3.412   6.583   2.512  0.00  0.00    +0.041 A 
ATOM     27  C   UNL     1      -2.255   6.217   3.177  0.00  0.00    +0.159 A 
ATOM     28  C   UNL     1      -1.170   5.731   2.463  0.00  0.00    +0.160 A 
ATOM     29  F   UNL     1      -0.039   5.375   3.110  0.00  0.00    -0.202 F 
ATOM     30  F   UNL     1      -2.183   6.333   4.521  0.00  0.00    -0.202 F 
ENDBRANCH  22  23
ENDBRANCH   8  22
TORSDOF 6
