REMARK  Name = ZINC11462025
REMARK  13 active torsions:
REMARK  status: ('A' for Active; 'I' for Inactive)
REMARK    1  A    between atoms: C_1  and  C_2
REMARK    2  A    between atoms: C_2  and  C_3
REMARK    3  A    between atoms: C_2  and  C_4
REMARK    4  A    between atoms: C_4  and  N_5
REMARK    5  A    between atoms: C_6  and  N_32
REMARK    6  A    between atoms: C_7  and  N_14
REMARK    7  A    between atoms: N_14  and  C_15
REMARK    8  A    between atoms: C_15  and  C_16
REMARK    9  A    between atoms: C_16  and  C_17
REMARK   10  A    between atoms: C_16  and  C_18
REMARK   11  A    between atoms: C_19  and  C_21
REMARK   12  A    between atoms: C_21  and  O_22
REMARK   13  A    between atoms: O_22  and  C_23
REMARK                            x       y       z     vdW  Elec       q    Type
REMARK                         _______ _______ _______ _____ _____    ______ ____
ROOT
ATOM      1  N   UNL     1       3.452  -5.130   0.046  0.00  0.00    -0.261 N 
ATOM      2  C   UNL     1       2.321  -4.467  -0.272  0.00  0.00    +0.258 C 
ATOM      3  O   UNL     1       2.343  -3.263  -0.413  0.00  0.00    -0.272 OA
ENDROOT
BRANCH   1   6
ATOM      4  N   UNL     1       4.118  -8.657  -0.742  0.00  0.00    -0.280 N 
ATOM      5  C   UNL     1       4.138  -7.284  -0.829  0.00  0.00    +0.127 A 
ATOM      6  C   UNL     1       3.450  -6.540   0.108  0.00  0.00    +0.140 A 
ATOM      7  C   UNL     1       2.752  -7.210   1.130  0.00  0.00    +0.277 A 
ATOM      8  O   UNL     1       2.141  -6.577   1.973  0.00  0.00    -0.266 OA
ATOM      9  N   UNL     1       2.761  -8.557   1.167  0.00  0.00    -0.273 N 
ATOM     10  H   UNL     1       2.259  -9.035   1.888  0.00  0.00    +0.173 HD
ATOM     11  C   UNL     1       3.436  -9.266   0.245  0.00  0.00    +0.331 A 
ATOM     12  O   UNL     1       3.430 -10.481   0.305  0.00  0.00    -0.246 OA
BRANCH   5  13
ATOM     13  N   UNL     1       4.834  -6.662  -1.837  0.00  0.00    -0.343 N 
ATOM     14  H   UNL     1       4.909  -5.695  -1.849  0.00  0.00    +0.144 HD
ATOM     15  H   UNL     1       5.250  -7.189  -2.537  0.00  0.00    +0.144 HD
ENDBRANCH   5  13
BRANCH   4  16
ATOM     16  C   UNL     1       4.843  -9.460  -1.729  0.00  0.00    +0.131 C 
BRANCH  16  18
ATOM     17  C   UNL     1       6.991 -10.644  -2.207  0.00  0.00    +0.009 C 
ATOM     18  C   UNL     1       6.272  -9.704  -1.238  0.00  0.00    +0.003 C 
ATOM     19  C   UNL     1       7.022  -8.372  -1.169  0.00  0.00    +0.009 C 
ENDBRANCH  16  18
ENDBRANCH   4  16
ENDBRANCH   1   6
BRANCH   1  20
ATOM     20  C   UNL     1       4.683  -4.386   0.327  0.00  0.00    +0.117 C 
BRANCH  20  21
ATOM     21  C   UNL     1       4.833  -4.199   1.838  0.00  0.00    +0.001 C 
ATOM     22  C   UNL     1       6.179  -3.539   2.139  0.00  0.00    +0.009 C 
ATOM     23  C   UNL     1       3.701  -3.310   2.356  0.00  0.00    +0.009 C 
ENDBRANCH  20  21
ENDBRANCH   1  20
BRANCH   2  24
ATOM     24  C   UNL     1       1.030  -5.224  -0.451  0.00  0.00    +0.325 C 
BRANCH  24  25
ATOM     25  O   UNL     1      -0.030  -4.301  -0.712  0.00  0.00    -0.481 OA
BRANCH  25  26
ATOM     26  C   UNL     1      -1.271  -4.824  -0.900  0.00  0.00    +0.141 A 
ATOM     27  C   UNL     1      -1.464  -6.196  -0.832  0.00  0.00    +0.068 A 
ATOM     28  C   UNL     1      -2.727  -6.726  -1.022  0.00  0.00    +0.063 A 
ATOM     29  C   UNL     1      -3.799  -5.888  -1.280  0.00  0.00    +0.061 A 
ATOM     30  C   UNL     1      -3.608  -4.519  -1.348  0.00  0.00    +0.045 A 
ATOM     31  C   UNL     1      -2.347  -3.986  -1.158  0.00  0.00    +0.084 A 
ATOM     32 CL   UNL     1      -2.108  -2.268  -1.242  0.00  0.00    -0.080 Cl
ATOM     33 CL   UNL     1      -5.383  -6.555  -1.518  0.00  0.00    -0.082 Cl
ATOM     34 CL   UNL     1      -2.969  -8.443  -0.938  0.00  0.00    -0.082 Cl
ENDBRANCH  25  26
ENDBRANCH  24  25
ENDBRANCH   2  24
TORSDOF 9
