REMARK  Name = ZINC07767907
REMARK  4 active torsions:
REMARK  status: ('A' for Active; 'I' for Inactive)
REMARK    1  A    between atoms: C_4  and  C_7
REMARK    2  A    between atoms: C_7  and  N_8
REMARK    3  A    between atoms: C_10  and  C_15
REMARK    4  A    between atoms: C_15  and  N_17
REMARK                            x       y       z     vdW  Elec       q    Type
REMARK                         _______ _______ _______ _____ _____    ______ ____
ROOT
ATOM      1  N   UNL     1       4.152  -0.952   1.338  0.00  0.00    -0.296 N 
ATOM      2  C   UNL     1       4.988  -0.031   2.116  0.00  0.00    +0.121 C 
ATOM      3  C   UNL     1       5.545  -0.870   3.288  0.00  0.00    +0.103 C 
ATOM      4  C   UNL     1       4.472  -1.975   3.423  0.00  0.00    +0.110 C 
ATOM      5  C   UNL     1       3.838  -2.048   2.051  0.00  0.00    +0.217 C 
ATOM      6  O   UNL     1       3.148  -2.962   1.652  0.00  0.00    -0.276 OA
ENDROOT
BRANCH   3   7
ATOM      7  C   UNL     1       5.633  -0.046   4.547  0.00  0.00    +0.243 C 
ATOM      8  O   UNL     1       5.285   1.119   4.537  0.00  0.00    -0.273 OA
BRANCH   7   9
ATOM      9  N   UNL     1       6.090  -0.593   5.668  0.00  0.00    -0.156 NA
ATOM     10  C   UNL     1       6.168   0.134   6.780  0.00  0.00    +0.164 A 
ATOM     11  N   UNL     1       6.612  -0.257   8.002  0.00  0.00    -0.335 N 
ATOM     12  H   UNL     1       6.922  -1.166   8.138  0.00  0.00    +0.168 HD
ATOM     13  C   UNL     1       6.621   0.643   9.050  0.00  0.00    +0.055 A 
ATOM     14  C   UNL     1       7.033   0.452  10.377  0.00  0.00    +0.027 A 
ATOM     15  C   UNL     1       6.965   1.482  11.286  0.00  0.00    +0.002 A 
ATOM     16  C   UNL     1       6.492   2.731  10.921  0.00  0.00    +0.001 A 
ATOM     17  C   UNL     1       6.080   2.945   9.617  0.00  0.00    +0.017 A 
ATOM     18  C   UNL     1       6.147   1.917   8.707  0.00  0.00    +0.039 A 
ATOM     19  S   UNL     1       5.746   1.748   6.988  0.00  0.00    -0.052 S 
ENDBRANCH   7   9
ENDBRANCH   3   7
BRANCH   1  20
ATOM     20  C   UNL     1       3.711  -0.707  -0.038  0.00  0.00    +0.142 C 
BRANCH  20  24
ATOM     21  C   UNL     1      -0.017   1.378   0.010  0.00  0.00    +0.000 A 
ATOM     22  C   UNL     1       1.171   2.086   0.002  0.00  0.00    +0.000 A 
ATOM     23  C   UNL     1       2.377   1.411  -0.013  0.00  0.00    +0.005 A 
ATOM     24  C   UNL     1       2.396   0.029  -0.020  0.00  0.00    -0.030 A 
ATOM     25  C   UNL     1       1.208  -0.679  -0.012  0.00  0.00    +0.005 A 
ATOM     26  C   UNL     1       0.002  -0.004   0.002  0.00  0.00    +0.000 A 
ENDBRANCH  20  24
ENDBRANCH   1  20
TORSDOF 4
