REMARK  Name = ZINC09951617
REMARK  9 active torsions:
REMARK  status: ('A' for Active; 'I' for Inactive)
REMARK    1  A    between atoms: C_1  and  O_2
REMARK    2  A    between atoms: O_2  and  C_3
REMARK    3  A    between atoms: C_6  and  C_9
REMARK    4  A    between atoms: C_12  and  C_28
REMARK    5  A    between atoms: C_15  and  C_17
REMARK    6  A    between atoms: C_17  and  S_18
REMARK    7  A    between atoms: S_18  and  C_19
REMARK    8  A    between atoms: C_22  and  C_26
REMARK    9  A    between atoms: C_23  and  N_25
REMARK                            x       y       z     vdW  Elec       q    Type
REMARK                         _______ _______ _______ _____ _____    ______ ____
ROOT
ATOM      1  C   UNL     1       3.711  -0.707  -0.037  0.00  0.00    +0.137 C 
ATOM      2  C   UNL     1       4.320  -0.761   1.378  0.00  0.00    +0.087 C 
ATOM      3  C   UNL     1       5.631  -0.022   1.238  0.00  0.00    +0.069 C 
ATOM      4  N   UNL     1       5.772   0.380   0.022  0.00  0.00    -0.181 NA
ATOM      5  N   UNL     1       4.712   0.039  -0.816  0.00  0.00    -0.184 N 
ATOM      6  C   UNL     1       4.620   0.341  -2.126  0.00  0.00    +0.246 C 
ATOM      7  O   UNL     1       3.649  -0.008  -2.763  0.00  0.00    -0.273 OA
ENDROOT
BRANCH   3   8
ATOM      8  C   UNL     1       6.600   0.204   2.326  0.00  0.00    -0.002 A 
ATOM      9  C   UNL     1       6.329  -0.288   3.617  0.00  0.00    +0.010 A 
ATOM     10  C   UNL     1       7.206  -0.092   4.634  0.00  0.00    +0.009 A 
ATOM     11  C   UNL     1       8.404   0.610   4.406  0.00  0.00    -0.018 A 
ATOM     12  C   UNL     1       9.327   0.823   5.444  0.00  0.00    +0.008 A 
ATOM     13  C   UNL     1      10.479   1.504   5.193  0.00  0.00    +0.001 A 
ATOM     14  C   UNL     1      10.759   1.997   3.920  0.00  0.00    +0.001 A 
ATOM     15  C   UNL     1       9.889   1.810   2.890  0.00  0.00    +0.008 A 
ATOM     16  C   UNL     1       8.689   1.111   3.110  0.00  0.00    -0.017 A 
ATOM     17  C   UNL     1       7.774   0.895   2.069  0.00  0.00    +0.018 A 
ENDBRANCH   3   8
BRANCH   1  21
ATOM     18  C   UNL     1      -0.017   1.383   0.010  0.00  0.00    +0.120 A 
ATOM     19  C   UNL     1       1.177   2.091   0.002  0.00  0.00    +0.046 A 
ATOM     20  C   UNL     1       2.380   1.413  -0.013  0.00  0.00    +0.009 A 
ATOM     21  C   UNL     1       2.396   0.030  -0.021  0.00  0.00    -0.024 A 
ATOM     22  C   UNL     1       1.208  -0.677  -0.013  0.00  0.00    +0.009 A 
ATOM     23  C   UNL     1       0.002  -0.004   0.002  0.00  0.00    +0.046 A 
BRANCH  18  25
ATOM     24  C   UNL     1      -1.145   3.475   0.026  0.00  0.00    +0.277 C 
ATOM     25  O   UNL     1      -1.202   2.048   0.019  0.00  0.00    -0.495 OA
ENDBRANCH  18  25
ENDBRANCH   1  21
BRANCH   6  26
ATOM     26  C   UNL     1       5.725   1.113  -2.800  0.00  0.00    +0.175 C 
BRANCH  26  27
ATOM     27  S   UNL     1       5.311   1.360  -4.545  0.00  0.00    -0.077 S 
BRANCH  27  28
ATOM     28  C   UNL     1       6.730   2.261  -5.072  0.00  0.00    +0.190 A 
ATOM     29  N   UNL     1       7.683   2.534  -4.189  0.00  0.00    -0.229 NA
ATOM     30  C   UNL     1       8.764   3.207  -4.538  0.00  0.00    +0.136 A 
ATOM     31  C   UNL     1       8.900   3.635  -5.863  0.00  0.00    +0.109 A 
ATOM     32  C   UNL     1       7.866   3.326  -6.774  0.00  0.00    +0.138 A 
ATOM     33  N   UNL     1       6.816   2.641  -6.339  0.00  0.00    -0.206 NA
BRANCH  32  34
ATOM     34  N   UNL     1       7.949   3.725  -8.092  0.00  0.00    -0.342 N 
ATOM     35  H   UNL     1       8.722   4.222  -8.401  0.00  0.00    +0.144 HD
ATOM     36  H   UNL     1       7.233   3.507  -8.710  0.00  0.00    +0.144 HD
ENDBRANCH  32  34
BRANCH  31  37
ATOM     37  C   UNL     1      10.057   4.367  -6.285  0.00  0.00    +0.104 C 
ATOM     38  N   UNL     1      10.975   4.947  -6.619  0.00  0.00    -0.191 NA
ENDBRANCH  31  37
ENDBRANCH  27  28
ENDBRANCH  26  27
ENDBRANCH   6  26
TORSDOF 8
