REMARK  Name = ZINC20558417
REMARK  6 active torsions:
REMARK  status: ('A' for Active; 'I' for Inactive)
REMARK    1  A    between atoms: C_1  and  C_2
REMARK    2  A    between atoms: C_2  and  N_3
REMARK    3  A    between atoms: C_15  and  C_23
REMARK    4  A    between atoms: C_17  and  C_21
REMARK    5  A    between atoms: C_18  and  N_20
REMARK    6  A    between atoms: C_27  and  C_29
REMARK                            x       y       z     vdW  Elec       q    Type
REMARK                         _______ _______ _______ _____ _____    ______ ____
ROOT
ATOM      1  N   UNL     1      -0.614   6.995   3.730  0.00  0.00    -0.203 N 
ATOM      2  C   UNL     1      -2.009   7.087   3.655  0.00  0.00    +0.062 A 
ATOM      3  C   UNL     1      -2.709   7.529   4.770  0.00  0.00    +0.025 A 
ATOM      4  C   UNL     1      -4.086   7.624   4.732  0.00  0.00    +0.002 A 
ATOM      5  C   UNL     1      -4.773   7.278   3.580  0.00  0.00    +0.001 A 
ATOM      6  C   UNL     1      -4.090   6.841   2.467  0.00  0.00    +0.013 A 
ATOM      7  C   UNL     1      -2.693   6.743   2.489  0.00  0.00    +0.042 A 
ATOM      8  C   UNL     1      -2.013   6.273   1.258  0.00  0.00    +0.162 C 
ATOM      9  C   UNL     1      -0.760   5.829   1.278  0.00  0.00    +0.141 C 
ATOM     10  S   UNL     1       0.114   5.809   2.816  0.00  0.00    +0.075 S 
ATOM     11  O   UNL     1      -0.174   4.566   3.442  0.00  0.00    -0.150 OA
ATOM     12  O   UNL     1       1.440   6.245   2.546  0.00  0.00    -0.150 OA
ATOM     13  C   UNL     1      -0.070   5.347   0.032  0.00  0.00    +0.118 C 
ATOM     14  C   UNL     1      -0.798   5.843  -1.188  0.00  0.00    +0.099 C 
ATOM     15  C   UNL     1      -2.074   6.293  -1.086  0.00  0.00    +0.199 C 
ATOM     16  O   UNL     1      -2.715   6.306   0.093  0.00  0.00    -0.439 OA
ENDROOT
BRANCH  13  17
ATOM     17  C   UNL     1      -0.050   3.840   0.023  0.00  0.00    -0.033 A 
ATOM     18  C   UNL     1      -1.238   3.133   0.029  0.00  0.00    +0.004 A 
ATOM     19  C   UNL     1      -1.219   1.751   0.017  0.00  0.00    +0.001 A 
ATOM     20  C   UNL     1      -0.013   1.076   0.008  0.00  0.00    +0.003 A 
ATOM     21  C   UNL     1       1.175   1.783   0.000  0.00  0.00    -0.050 A 
ATOM     22  C   UNL     1       1.156   3.166   0.008  0.00  0.00    +0.008 A 
ATOM     23  C   UNL     1       2.490   1.047  -0.016  0.00  0.00    +0.044 C 
ENDBRANCH  13  17
BRANCH  15  24
ATOM     24  N   UNL     1      -2.721   6.744  -2.209  0.00  0.00    -0.328 N 
ATOM     25  H   UNL     1      -3.755   7.112  -2.138  0.00  0.00    +0.145 HD
ATOM     26  H   UNL     1      -2.205   6.738  -3.181  0.00  0.00    +0.145 HD
ENDBRANCH  15  24
BRANCH   1  28
ATOM     27  C   UNL     1       0.456   9.192   3.807  0.00  0.00    +0.026 C 
ATOM     28  C   UNL     1       0.169   7.900   4.574  0.00  0.00    +0.128 C 
ENDBRANCH   1  28
BRANCH  14  29
ATOM     29  C   UNL     1      -0.142   5.839  -2.461  0.00  0.00    +0.101 C 
ATOM     30  N   UNL     1       0.378   5.836  -3.471  0.00  0.00    -0.191 NA
ENDBRANCH  14  29
TORSDOF 4
