REMARK  Name = ZINC35442277
REMARK  7 active torsions:
REMARK  status: ('A' for Active; 'I' for Inactive)
REMARK    1  A    between atoms: C_4  and  C_7
REMARK    2  A    between atoms: C_7  and  N_8
REMARK    3  A    between atoms: N_8  and  C_9
REMARK    4  A    between atoms: C_18  and  C_22
REMARK    5  A    between atoms: C_22  and  C_23
REMARK    6  A    between atoms: C_23  and  C_24
REMARK    7  A    between atoms: N_29  and  C_32
REMARK                            x       y       z     vdW  Elec       q    Type
REMARK                         _______ _______ _______ _____ _____    ______ ____
ROOT
ATOM      1  C   UNL     1       5.343  -1.445   1.489  0.00  0.00    +0.036 C 
ATOM      2  C   UNL     1       6.585  -0.510   1.427  0.00  0.00    +0.010 C 
ATOM      3  C   UNL     1       7.586  -1.262   2.315  0.00  0.00    +0.021 C 
ATOM      4  C   UNL     1       8.680  -0.428   2.897  0.00  0.00    +0.200 C 
ATOM      5  O   UNL     1       9.147   0.499   2.270  0.00  0.00    -0.278 OA
ATOM      6  N   UNL     1       9.138  -0.722   4.130  0.00  0.00    -0.318 N 
ATOM      7  C   UNL     1       8.559  -1.734   5.005  0.00  0.00    +0.089 C 
ATOM      8  C   UNL     1       7.511  -2.592   4.280  0.00  0.00    -0.050 C 
ATOM      9  N   UNL     1       6.719  -1.722   3.433  0.00  0.00    +0.391 N 
ATOM     10  C   UNL     1       5.526  -2.270   2.789  0.00  0.00    -0.059 C 
ATOM     11  H   UNL     1       9.905  -0.226   4.457  0.00  0.00    +0.149 HD
ATOM     12  H   UNL     1       6.441  -0.921   3.980  0.00  0.00    -0.080 HD
ENDROOT
BRANCH   1  13
ATOM     13  N   UNL     1       4.109  -0.650   1.557  0.00  0.00    -0.311 NA
ATOM     14  H   UNL     1       4.246   0.184   2.108  0.00  0.00    +0.122 HD
BRANCH  13  15
ATOM     15  C   UNL     1       3.622  -0.319   0.212  0.00  0.00    +0.116 C 
BRANCH  15  19
ATOM     16  C   UNL     1       0.038   1.986   0.521  0.00  0.00    +0.000 A 
ATOM     17  C   UNL     1       1.266   2.619   0.486  0.00  0.00    +0.000 A 
ATOM     18  C   UNL     1       2.426   1.874   0.386  0.00  0.00    +0.005 A 
ATOM     19  C   UNL     1       2.357   0.494   0.322  0.00  0.00    -0.034 A 
ATOM     20  C   UNL     1       1.129  -0.139   0.358  0.00  0.00    +0.005 A 
ATOM     21  C   UNL     1      -0.030   0.607   0.457  0.00  0.00    +0.000 A 
ENDBRANCH  15  19
ENDBRANCH  13  15
ENDBRANCH   1  13
BRANCH   8  22
ATOM     22  C   UNL     1       6.608  -3.284   5.303  0.00  0.00    -0.005 C 
BRANCH  22  23
ATOM     23  C   UNL     1       7.433  -4.280   6.120  0.00  0.00    +0.094 C 
BRANCH  23  24
ATOM     24  C   UNL     1       6.522  -5.049   7.043  0.00  0.00    +0.216 C 
ATOM     25  O   UNL     1       5.330  -4.822   7.046  0.00  0.00    -0.276 OA
ATOM     26  N   UNL     1       7.031  -5.988   7.864  0.00  0.00    -0.298 N 
ATOM     27  C   UNL     1       8.474  -6.269   7.875  0.00  0.00    +0.126 C 
ATOM     28  C   UNL     1       8.992  -6.114   9.310  0.00  0.00    +0.124 C 
ATOM     29  N   UNL     1       8.115  -6.875  10.211  0.00  0.00    -0.327 N 
ATOM     30  C   UNL     1       6.673  -6.594  10.200  0.00  0.00    +0.124 C 
ATOM     31  C   UNL     1       6.155  -6.745   8.768  0.00  0.00    +0.126 C 
BRANCH  29  32
ATOM     32  C   UNL     1       8.643  -7.849  11.062  0.00  0.00    +0.030 A 
ATOM     33  C   UNL     1      10.018  -8.019  11.157  0.00  0.00    +0.023 A 
ATOM     34  C   UNL     1      10.537  -8.982  12.000  0.00  0.00    +0.002 A 
ATOM     35  C   UNL     1       9.689  -9.777  12.749  0.00  0.00    +0.000 A 
ATOM     36  C   UNL     1       8.319  -9.610  12.657  0.00  0.00    +0.002 A 
ATOM     37  C   UNL     1       7.794  -8.645  11.820  0.00  0.00    +0.023 A 
ENDBRANCH  29  32
ENDBRANCH  23  24
ENDBRANCH  22  23
ENDBRANCH   8  22
TORSDOF 7
