REMARK  Name = ZINC39361452
REMARK  9 active torsions:
REMARK  status: ('A' for Active; 'I' for Inactive)
REMARK    1  A    between atoms: C_1  and  C_2
REMARK    2  A    between atoms: C_2  and  C_3
REMARK    3  A    between atoms: C_3  and  C_5
REMARK    4  A    between atoms: C_3  and  S_6
REMARK    5  A    between atoms: S_6  and  C_7
REMARK    6  A    between atoms: C_13  and  C_25
REMARK    7  A    between atoms: C_28  and  N_31
REMARK    8  A    between atoms: N_31  and  C_32
REMARK    9  A    between atoms: N_31  and  C_33
REMARK                            x       y       z     vdW  Elec       q    Type
REMARK                         _______ _______ _______ _____ _____    ______ ____
ROOT
ATOM      1  C   UNL     1       0.852  -0.566   4.057  0.00  0.00    +0.182 C 
ATOM      2  N   UNL     1       2.016  -1.136   3.779  0.00  0.00    -0.154 NA
ATOM      3  C   UNL     1       2.852  -1.524   4.729  0.00  0.00    +0.250 C 
ATOM      4  O   UNL     1       3.901  -2.053   4.416  0.00  0.00    -0.273 OA
ATOM      5  C   UNL     1       2.536  -1.328   6.184  0.00  0.00    +0.152 C 
ATOM      6  C   UNL     1       2.519  -2.676   6.906  0.00  0.00    +0.073 C 
ATOM      7  C   UNL     1       1.857  -2.539   8.258  0.00  0.00    +0.021 C 
ATOM      8  C   UNL     1       1.011  -1.531   8.544  0.00  0.00    +0.016 C 
ATOM      9  C   UNL     1       0.357  -1.424   9.901  0.00  0.00    +0.051 C 
ATOM     10  C   UNL     1       0.160  -2.822  10.490  0.00  0.00    +0.014 C 
ATOM     11  C   UNL     1       1.531  -3.501  10.587  0.00  0.00    +0.080 C 
ATOM     12  C   UNL     1       2.162  -3.521   9.222  0.00  0.00    +0.161 C 
ATOM     13  O   UNL     1       2.950  -4.403   8.944  0.00  0.00    -0.292 OA
ATOM     14  N   UNL     1       0.715  -0.551   7.621  0.00  0.00    -0.305 N 
ATOM     15  C   UNL     1       1.170  -0.703   6.340  0.00  0.00    +0.115 C 
ATOM     16  N   UNL     1       0.446  -0.366   5.318  0.00  0.00    -0.213 NA
ATOM     17  H   UNL     1       0.200   0.231   7.873  0.00  0.00    +0.153 HD
ENDROOT
BRANCH   6  18
ATOM     18  C   UNL     1       1.751  -3.675   6.078  0.00  0.00    -0.039 A 
ATOM     19  C   UNL     1       0.425  -3.438   5.765  0.00  0.00    +0.006 A 
ATOM     20  C   UNL     1      -0.281  -4.351   5.007  0.00  0.00    +0.023 A 
ATOM     21  C   UNL     1       0.342  -5.509   4.559  0.00  0.00    +0.029 A 
ATOM     22  C   UNL     1       1.674  -5.745   4.876  0.00  0.00    +0.023 A 
ATOM     23  C   UNL     1       2.376  -4.824   5.630  0.00  0.00    +0.006 A 
BRANCH  21  24
ATOM     24  N   UNL     1      -0.369  -6.435   3.793  0.00  0.00    -0.336 N 
ATOM     25  C   UNL     1      -1.774  -6.186   3.461  0.00  0.00    +0.129 C 
ATOM     26  C   UNL     1       0.289  -7.656   3.322  0.00  0.00    +0.129 C 
ENDBRANCH  21  24
ENDBRANCH   6  18
BRANCH   1  27
ATOM     27  S   UNL     1      -0.187  -0.052   2.730  0.00  0.00    -0.085 S 
BRANCH  27  28
ATOM     28  C   UNL     1       0.742  -0.511   1.242  0.00  0.00    +0.051 C 
ATOM     29  C   UNL     1       0.872  -2.034   1.171  0.00  0.00    +0.019 C 
BRANCH  28  31
ATOM     30  C   UNL     1      -0.019   1.526   0.010  0.00  0.00    +0.005 C 
ATOM     31  C   UNL     1       0.002  -0.004   0.002  0.00  0.00    +0.011 C 
ENDBRANCH  28  31
ENDBRANCH  27  28
ENDBRANCH   1  27
TORSDOF 5
