REMARK  Name = ZINC46568619
REMARK  4 active torsions:
REMARK  status: ('A' for Active; 'I' for Inactive)
REMARK    1  A    between atoms: C_1  and  N_2
REMARK    2  A    between atoms: C_9  and  C_17
REMARK    3  A    between atoms: C_10  and  C_11
REMARK    4  A    between atoms: N_18  and  N_19
REMARK                            x       y       z     vdW  Elec       q    Type
REMARK                         _______ _______ _______ _____ _____    ______ ____
ROOT
ATOM      1  C   UNL     1      -0.018   1.461   0.010  0.00  0.00    +0.149 C 
ATOM      2  N   UNL     1       0.002  -0.004   0.002  0.00  0.00    -0.342 N 
ATOM      3  C   UNL     1       0.008  -0.786  -1.134  0.00  0.00    +0.050 A 
ATOM      4  C   UNL     1      -0.002  -0.483  -2.492  0.00  0.00    +0.026 A 
ATOM      5  C   UNL     1       0.008  -1.499  -3.422  0.00  0.00    +0.002 A 
ATOM      6  C   UNL     1       0.028  -2.827  -3.018  0.00  0.00    +0.001 A 
ATOM      7  C   UNL     1       0.038  -3.147  -1.689  0.00  0.00    +0.010 A 
ATOM      8  C   UNL     1       0.028  -2.133  -0.732  0.00  0.00    +0.009 A 
ATOM      9  C   UNL     1       0.034  -2.125   0.740  0.00  0.00    +0.028 A 
ATOM     10  C   UNL     1       0.024  -0.795   1.124  0.00  0.00    +0.059 A 
ENDROOT
BRANCH  10  11
ATOM     11  C   UNL     1       0.030  -0.305   2.515  0.00  0.00    -0.001 A 
ATOM     12  C   UNL     1       0.869   0.749   2.885  0.00  0.00    +0.010 A 
ATOM     13  C   UNL     1       0.870   1.201   4.188  0.00  0.00    +0.001 A 
ATOM     14  C   UNL     1       0.041   0.614   5.128  0.00  0.00    +0.000 A 
ATOM     15  C   UNL     1      -0.792  -0.430   4.769  0.00  0.00    +0.001 A 
ATOM     16  C   UNL     1      -0.807  -0.890   3.469  0.00  0.00    +0.010 A 
ENDBRANCH  10  11
BRANCH   9  17
ATOM     17  C   UNL     1       0.053  -3.296   1.626  0.00  0.00    +0.141 C 
ATOM     18  N   UNL     1       0.067  -4.494   1.121  0.00  0.00    -0.183 NA
BRANCH  18  19
ATOM     19  N   UNL     1       0.085  -5.611   1.966  0.00  0.00    -0.168 N 
ATOM     20  C   UNL     1       0.108  -7.025   1.555  0.00  0.00    +0.232 C 
ATOM     21  C   UNL     1       0.121  -7.778   2.870  0.00  0.00    +0.240 C 
ATOM     22  O   UNL     1       0.141  -8.980   3.026  0.00  0.00    -0.274 OA
ATOM     23  N   UNL     1       0.106  -6.833   3.831  0.00  0.00    -0.237 N 
ATOM     24  C   UNL     1       0.090  -5.601   3.311  0.00  0.00    +0.328 C 
ATOM     25  O   UNL     1       0.079  -4.585   3.979  0.00  0.00    -0.250 OA
ATOM     26  H   UNL     1       0.109  -7.023   4.782  0.00  0.00    +0.159 HD
ENDBRANCH  18  19
ENDBRANCH   9  17
TORSDOF 3
