REMARK  Name = ZINC09926173
REMARK  12 active torsions:
REMARK  status: ('A' for Active; 'I' for Inactive)
REMARK    1  A    between atoms: C_1  and  C_2
REMARK    2  A    between atoms: C_4  and  C_30
REMARK    3  A    between atoms: C_6  and  C_29
REMARK    4  A    between atoms: C_7  and  C_8
REMARK    5  A    between atoms: C_8  and  C_10
REMARK    6  A    between atoms: C_10  and  C_11
REMARK    7  A    between atoms: C_11  and  O_28
REMARK    8  A    between atoms: N_18  and  C_21
REMARK    9  A    between atoms: C_21  and  C_22
REMARK   10  A    between atoms: C_30  and  C_31
REMARK   11  A    between atoms: C_30  and  C_32
REMARK   12  A    between atoms: C_30  and  C_33
REMARK                            x       y       z     vdW  Elec       q    Type
REMARK                         _______ _______ _______ _____ _____    ______ ____
ROOT
ATOM      1  C   UNL     1      -3.042   0.936   3.944  0.00  0.00    +0.175 C 
ATOM      2  C   UNL     1      -2.282  -0.359   4.116  0.00  0.00    +0.016 A 
ATOM      3  C   UNL     1      -2.285  -1.323   5.099  0.00  0.00    +0.024 A 
ATOM      4  C   UNL     1      -1.474  -2.438   4.974  0.00  0.00    +0.018 A 
ATOM      5  C   UNL     1      -0.651  -2.570   3.869  0.00  0.00    +0.017 A 
ATOM      6  C   UNL     1      -0.642  -1.602   2.887  0.00  0.00    +0.025 A 
ATOM      7  C   UNL     1      -1.464  -0.482   3.000  0.00  0.00    +0.043 A 
ATOM      8  N   UNL     1      -1.633   0.615   2.154  0.00  0.00    -0.264 N 
ATOM      9  C   UNL     1      -2.537   1.488   2.628  0.00  0.00    +0.257 C 
ATOM     10  O   UNL     1      -2.885   2.523   2.100  0.00  0.00    -0.272 OA
ATOM     11 BR   UNL     1      -1.480  -3.770   6.317  0.00  0.00    -0.050 Br
ENDROOT
BRANCH   1  12
ATOM     12  O   UNL     1      -4.447   0.687   3.877  0.00  0.00    -0.374 OA
ATOM     13  H   UNL     1      -4.979   1.477   3.708  0.00  0.00    +0.211 HD
ENDBRANCH   1  12
BRANCH   1  14
ATOM     14  C   UNL     1      -2.721   1.901   5.088  0.00  0.00    +0.129 C 
BRANCH  14  15
ATOM     15  C   UNL     1      -3.415   3.217   4.844  0.00  0.00    +0.167 C 
ATOM     16  O   UNL     1      -4.186   3.333   3.915  0.00  0.00    -0.292 OA
BRANCH  15  23
ATOM     17  C   UNL     1      -1.281   5.065   4.208  0.00  0.00    +0.044 C 
ATOM     18  C   UNL     1      -2.129   5.262   5.438  0.00  0.00    -0.039 A 
ATOM     19  C   UNL     1      -1.896   6.334   6.274  0.00  0.00    +0.008 A 
ATOM     20  C   UNL     1      -2.670   6.513   7.407  0.00  0.00    -0.041 A 
ATOM     21  C   UNL     1      -3.686   5.623   7.709  0.00  0.00    +0.008 A 
ATOM     22  C   UNL     1      -3.934   4.549   6.880  0.00  0.00    -0.039 A 
ATOM     23  C   UNL     1      -3.157   4.361   5.733  0.00  0.00    +0.023 A 
ATOM     24  C   UNL     1      -5.040   3.580   7.211  0.00  0.00    +0.044 C 
BRANCH  20  25
ATOM     25  C   UNL     1      -2.405   7.684   8.318  0.00  0.00    -0.013 C 
ATOM     26  C   UNL     1      -2.049   7.173   9.716  0.00  0.00    +0.015 C 
ATOM     27  C   UNL     1      -1.240   8.508   7.764  0.00  0.00    +0.015 C 
ATOM     28  C   UNL     1      -3.656   8.561   8.399  0.00  0.00    +0.015 C 
ENDBRANCH  20  25
ENDBRANCH  15  23
ENDBRANCH  14  15
ENDBRANCH   1  14
BRANCH   8  29
ATOM     29  C   UNL     1      -0.911   0.791   0.891  0.00  0.00    +0.156 C 
BRANCH  29  30
ATOM     30  C   UNL     1       0.368   1.547   1.145  0.00  0.00    +0.007 A 
ATOM     31  C   UNL     1       1.598   1.065   1.451  0.00  0.00    +0.013 A 
ATOM     32  C   UNL     1       2.639   1.956   1.637  0.00  0.00    +0.008 A 
ATOM     33  C   UNL     1       2.398   3.284   1.513  0.00  0.00    +0.045 A 
ATOM     34  S   UNL     1       0.656   3.308   1.123  0.00  0.00    -0.100 S 
ENDBRANCH  29  30
ENDBRANCH   8  29
TORSDOF 7
