REMARK  Name = ZINC04015930
REMARK  1 active torsions:
REMARK  status: ('A' for Active; 'I' for Inactive)
REMARK    1  A    between atoms: C_6  and  N_11
REMARK                            x       y       z     vdW  Elec       q    Type
REMARK                         _______ _______ _______ _____ _____    ______ ____
ROOT
ATOM      1  N   UNL     1       4.915  -2.655  -0.058  0.00  0.00    -0.210 N 
ATOM      2  C   UNL     1       6.130  -2.019  -0.060  0.00  0.00    +0.231 C 
ATOM      3  O   UNL     1       6.391  -0.895   0.312  0.00  0.00    -0.274 OA
ATOM      4  C   UNL     1       7.081  -3.072  -0.647  0.00  0.00    +0.100 C 
ATOM      5  C   UNL     1       6.458  -4.218   0.232  0.00  0.00    +0.100 C 
ATOM      6  C   UNL     1       5.030  -4.026  -0.066  0.00  0.00    +0.231 C 
ATOM      7  O   UNL     1       4.175  -4.861  -0.268  0.00  0.00    -0.274 OA
ATOM      8  C   UNL     1       7.267  -5.507   0.097  0.00  0.00    +0.062 C 
ATOM      9  C   UNL     1       8.162  -5.098   1.317  0.00  0.00    -0.035 A 
ATOM     10  C   UNL     1       8.443  -5.932   2.349  0.00  0.00    +0.004 A 
ATOM     11  C   UNL     1       9.171  -5.421   3.421  0.00  0.00    +0.000 A 
ATOM     12  C   UNL     1       9.569  -4.097   3.410  0.00  0.00    +0.000 A 
ATOM     13  C   UNL     1       9.296  -3.273   2.329  0.00  0.00    +0.004 A 
ATOM     14  C   UNL     1       8.621  -3.795   1.245  0.00  0.00    -0.035 A 
ATOM     15  C   UNL     1       8.543  -2.985  -0.070  0.00  0.00    +0.062 C 
ATOM     16  C   UNL     1       9.058  -4.088  -1.038  0.00  0.00    -0.035 A 
ATOM     17  C   UNL     1       8.344  -5.296  -0.997  0.00  0.00    -0.035 A 
ATOM     18  C   UNL     1       8.626  -6.294  -1.901  0.00  0.00    +0.004 A 
ATOM     19  C   UNL     1       9.652  -6.099  -2.813  0.00  0.00    +0.000 A 
ATOM     20  C   UNL     1      10.388  -4.929  -2.814  0.00  0.00    +0.000 A 
ATOM     21  C   UNL     1      10.088  -3.889  -1.908  0.00  0.00    +0.004 A 
ENDROOT
BRANCH   1  27
ATOM     22  C   UNL     1      -0.016   1.357   0.009  0.00  0.00    +0.001 A 
ATOM     23  C   UNL     1       1.168   2.091   0.002  0.00  0.00    +0.001 A 
ATOM     24  C   UNL     1       2.378   1.468  -0.013  0.00  0.00    +0.008 A 
ATOM     25  C   UNL     1       2.437   0.063  -0.021  0.00  0.00    -0.016 A 
ATOM     26  C   UNL     1       3.668  -0.614  -0.035  0.00  0.00    +0.032 A 
ATOM     27  C   UNL     1       3.687  -1.980  -0.043  0.00  0.00    +0.044 A 
ATOM     28  C   UNL     1       2.495  -2.714  -0.035  0.00  0.00    +0.024 A 
ATOM     29  C   UNL     1       1.289  -2.088  -0.021  0.00  0.00    +0.010 A 
ATOM     30  C   UNL     1       1.232  -0.683  -0.013  0.00  0.00    -0.018 A 
ATOM     31  C   UNL     1       0.002  -0.004   0.002  0.00  0.00    +0.008 A 
ENDBRANCH   1  27
TORSDOF 1
