REMARK  Name = ZINC40032713
REMARK  9 active torsions:
REMARK  status: ('A' for Active; 'I' for Inactive)
REMARK    1  A    between atoms: C_1  and  C_2
REMARK    2  A    between atoms: C_2  and  C_3
REMARK    3  A    between atoms: C_3  and  C_4
REMARK    4  A    between atoms: C_4  and  C_34
REMARK    5  A    between atoms: N_16  and  C_27
REMARK    6  A    between atoms: C_17  and  S_19
REMARK    7  A    between atoms: S_19  and  C_20
REMARK    8  A    between atoms: C_20  and  C_21
REMARK    9  A    between atoms: C_30  and  C_33
REMARK                            x       y       z     vdW  Elec       q    Type
REMARK                         _______ _______ _______ _____ _____    ______ ____
ROOT
ATOM      1  C   UNL     1       1.597  -0.419  -1.214  0.00  0.00    +0.004 C 
ATOM      2  C   UNL     1       1.892  -1.073  -2.561  0.00  0.00    +0.047 C 
ATOM      3  C   UNL     1       3.284  -1.645  -2.578  0.00  0.00    -0.037 A 
ATOM      4  C   UNL     1       4.038  -1.615  -3.733  0.00  0.00    +0.004 A 
ATOM      5  C   UNL     1       5.315  -2.147  -3.740  0.00  0.00    +0.000 A 
ATOM      6  C   UNL     1       5.846  -2.712  -2.594  0.00  0.00    +0.001 A 
ATOM      7  C   UNL     1       5.102  -2.747  -1.432  0.00  0.00    +0.010 A 
ATOM      8  C   UNL     1       3.817  -2.211  -1.419  0.00  0.00    +0.004 A 
ATOM      9  C   UNL     1       2.999  -2.225  -0.185  0.00  0.00    +0.083 A 
ATOM     10  C   UNL     1       1.919  -1.359  -0.087  0.00  0.00    +0.050 A 
ATOM     11  C   UNL     1       1.141  -1.380   1.077  0.00  0.00    +0.263 A 
ATOM     12  O   UNL     1       0.182  -0.634   1.198  0.00  0.00    -0.267 OA
ATOM     13  N   UNL     1       1.474  -2.241   2.062  0.00  0.00    -0.256 N 
ATOM     14  C   UNL     1       2.550  -3.068   1.918  0.00  0.00    +0.177 A 
ATOM     15  N   UNL     1       3.285  -3.054   0.824  0.00  0.00    -0.222 NA
ATOM     16  C   UNL     1       0.115  -0.045  -1.149  0.00  0.00    +0.017 C 
ENDROOT
BRANCH  13  17
ATOM     17  C   UNL     1       0.712  -2.286   3.237  0.00  0.00    +0.052 A 
ATOM     18  C   UNL     1       1.041  -1.470   4.311  0.00  0.00    +0.026 A 
ATOM     19  C   UNL     1       0.288  -1.516   5.468  0.00  0.00    +0.005 A 
ATOM     20  C   UNL     1      -0.792  -2.374   5.557  0.00  0.00    -0.050 A 
ATOM     21  C   UNL     1      -1.122  -3.189   4.489  0.00  0.00    +0.005 A 
ATOM     22  C   UNL     1      -0.377  -3.143   3.328  0.00  0.00    +0.026 A 
ATOM     23  C   UNL     1      -1.611  -2.423   6.821  0.00  0.00    +0.044 C 
ENDBRANCH  13  17
BRANCH   1  24
ATOM     24  C   UNL     1       2.443   0.848  -1.071  0.00  0.00    +0.011 C 
BRANCH  24  26
ATOM     25  C   UNL     1       2.977   2.789   0.408  0.00  0.00    +0.004 C 
ATOM     26  C   UNL     1       2.131   1.522   0.266  0.00  0.00    -0.003 C 
ENDBRANCH  24  26
ENDBRANCH   1  24
BRANCH  14  27
ATOM     27  S   UNL     1       2.965  -4.178   3.222  0.00  0.00    -0.083 S 
BRANCH  27  28
ATOM     28  C   UNL     1       4.427  -5.056   2.602  0.00  0.00    +0.112 C 
BRANCH  28  29
ATOM     29  C   UNL     1       4.891  -6.050   3.635  0.00  0.00    -0.037 A 
ATOM     30  C   UNL     1       5.807  -5.669   4.598  0.00  0.00    +0.004 A 
ATOM     31  C   UNL     1       6.233  -6.581   5.545  0.00  0.00    +0.000 A 
ATOM     32  C   UNL     1       5.743  -7.873   5.531  0.00  0.00    +0.000 A 
ATOM     33  C   UNL     1       4.826  -8.254   4.568  0.00  0.00    +0.000 A 
ATOM     34  C   UNL     1       4.397  -7.340   3.623  0.00  0.00    +0.004 A 
ENDBRANCH  28  29
ENDBRANCH  27  28
ENDBRANCH  14  27
TORSDOF 6
