REMARK  Name = ZINC09702059
REMARK  7 active torsions:
REMARK  status: ('A' for Active; 'I' for Inactive)
REMARK    1  A    between atoms: C_7  and  C_11
REMARK    2  A    between atoms: C_14  and  S_23
REMARK    3  A    between atoms: N_15  and  C_16
REMARK    4  A    between atoms: C_16  and  C_17
REMARK    5  A    between atoms: S_23  and  C_24
REMARK    6  A    between atoms: C_24  and  C_25
REMARK    7  A    between atoms: N_27  and  C_28
REMARK                            x       y       z     vdW  Elec       q    Type
REMARK                         _______ _______ _______ _____ _____    ______ ____
ROOT
ATOM      1  C   UNL     1      -1.370   1.368  -4.508  0.00  0.00    +0.167 A 
ATOM      2  N   UNL     1      -1.921   2.156  -5.403  0.00  0.00    -0.128 NA
ATOM      3  N   UNL     1      -1.827   3.381  -5.027  0.00  0.00    -0.122 NA
ATOM      4  C   UNL     1      -1.216   3.452  -3.867  0.00  0.00    +0.192 A 
ATOM      5  N   UNL     1      -0.906   2.173  -3.493  0.00  0.00    -0.300 N 
ENDROOT
BRANCH   1  12
ATOM      6  C   UNL     1      -4.446  -1.992  -5.565  0.00  0.00    +0.001 A 
ATOM      7  C   UNL     1      -3.892  -3.263  -5.498  0.00  0.00    +0.002 A 
ATOM      8  C   UNL     1      -2.571  -3.436  -5.149  0.00  0.00    +0.026 A 
ATOM      9  C   UNL     1      -1.781  -2.327  -4.862  0.00  0.00    +0.047 A 
ATOM     10  C   UNL     1      -2.347  -1.043  -4.932  0.00  0.00    +0.010 A 
ATOM     11  C   UNL     1      -3.687  -0.890  -5.286  0.00  0.00    +0.011 A 
ATOM     12  C   UNL     1      -1.270  -0.104  -4.577  0.00  0.00    +0.044 A 
ATOM     13  C   UNL     1      -0.165  -0.854  -4.332  0.00  0.00    +0.095 A 
ATOM     14  N   UNL     1      -0.461  -2.177  -4.494  0.00  0.00    -0.360 N 
ATOM     15  H   UNL     1       0.167  -2.905  -4.371  0.00  0.00    +0.165 HD
ENDBRANCH   1  12
BRANCH   5  16
ATOM     16  C   UNL     1      -0.220   1.749  -2.270  0.00  0.00    +0.157 C 
BRANCH  16  17
ATOM     17  C   UNL     1      -1.255   1.366  -1.211  0.00  0.00    +0.138 C 
ATOM     18  C   UNL     1      -0.551   0.795   0.047  0.00  0.00    +0.035 C 
ATOM     19  C   UNL     1      -1.615   1.091   1.140  0.00  0.00    +0.031 C 
ATOM     20  C   UNL     1      -2.226   2.422   0.650  0.00  0.00    +0.160 C 
ATOM     21  O   UNL     1      -1.955   2.533  -0.752  0.00  0.00    -0.375 OA
ENDBRANCH  16  17
ENDBRANCH   5  16
BRANCH   4  22
ATOM     22  S   UNL     1      -0.861   4.920  -2.960  0.00  0.00    -0.077 S 
BRANCH  22  23
ATOM     23  C   UNL     1      -1.563   6.158  -4.079  0.00  0.00    +0.173 C 
BRANCH  23  24
ATOM     24  C   UNL     1      -1.370   7.532  -3.492  0.00  0.00    +0.224 C 
ATOM     25  O   UNL     1      -0.813   7.663  -2.423  0.00  0.00    -0.275 OA
ATOM     26  N   UNL     1      -1.817   8.617  -4.156  0.00  0.00    -0.310 N 
ATOM     27  H   UNL     1      -2.263   8.513  -5.011  0.00  0.00    +0.149 HD
BRANCH  26  28
ATOM     28  C   UNL     1      -1.630   9.953  -3.586  0.00  0.00    +0.095 C 
ATOM     29  C   UNL     1      -0.239  10.483  -3.974  0.00  0.00    +0.046 C 
ATOM     30  C   UNL     1      -0.186  11.999  -3.632  0.00  0.00    +0.168 C 
ATOM     31  S   UNL     1      -1.865  12.527  -4.178  0.00  0.00    -0.029 S 
ATOM     32  O   UNL     1      -1.794  12.972  -5.526  0.00  0.00    -0.174 OA
ATOM     33  O   UNL     1      -2.427  13.378  -3.189  0.00  0.00    -0.174 OA
ATOM     34  C   UNL     1      -2.725  10.902  -4.129  0.00  0.00    +0.188 C 
ENDBRANCH  26  28
ENDBRANCH  23  24
ENDBRANCH  22  23
ENDBRANCH   4  22
TORSDOF 7
