REMARK  Name = ZINC24937546
REMARK  13 active torsions:
REMARK  status: ('A' for Active; 'I' for Inactive)
REMARK    1  A    between atoms: C_1  and  C_2
REMARK    2  A    between atoms: C_4  and  C_32
REMARK    3  A    between atoms: C_5  and  N_9
REMARK    4  A    between atoms: C_6  and  C_8
REMARK    5  A    between atoms: C_10  and  C_12
REMARK    6  A    between atoms: C_12  and  N_13
REMARK    7  A    between atoms: C_14  and  C_16
REMARK    8  A    between atoms: C_16  and  C_18
REMARK    9  A    between atoms: C_16  and  N_19
REMARK   10  A    between atoms: C_20  and  C_22
REMARK   11  A    between atoms: C_23  and  C_24
REMARK   12  A    between atoms: C_27  and  O_30
REMARK   13  A    between atoms: O_30  and  C_31
REMARK                            x       y       z     vdW  Elec       q    Type
REMARK                         _______ _______ _______ _____ _____    ______ ____
ROOT
ATOM      1  N   UNL     1       1.448   5.352  -0.392  0.00  0.00    -0.305 N 
ATOM      2  C   UNL     1       0.392   4.541  -0.600  0.00  0.00    +0.233 C 
ATOM      3  O   UNL     1      -0.442   4.396   0.269  0.00  0.00    -0.274 OA
ATOM      4  H   UNL     1       2.204   5.484  -1.180  0.00  0.00    +0.149 HD
ENDROOT
BRANCH   2   5
ATOM      5  C   UNL     1       0.246   3.816  -1.913  0.00  0.00    +0.156 C 
ATOM      6  C   UNL     1       0.161   4.834  -3.052  0.00  0.00    +0.038 C 
BRANCH   5   7
ATOM      7  N   UNL     1      -0.974   3.005  -1.890  0.00  0.00    -0.301 N 
ATOM      8  C   UNL     1      -1.075   1.918  -2.681  0.00  0.00    +0.237 C 
ATOM      9  O   UNL     1      -0.153   1.610  -3.414  0.00  0.00    -0.271 OA
ATOM     10  H   UNL     1      -1.806   3.283  -1.228  0.00  0.00    +0.150 HD
BRANCH   8  11
ATOM     11  C   UNL     1      -2.293   1.109  -2.658  0.00  0.00    +0.068 C 
ATOM     12  C   UNL     1      -2.395   0.020  -3.450  0.00  0.00    +0.013 C 
BRANCH  12  13
ATOM     13  C   UNL     1      -3.619  -0.793  -3.427  0.00  0.00    -0.025 A 
ATOM     14  C   UNL     1      -4.678  -0.445  -2.581  0.00  0.00    +0.011 A 
ATOM     15  C   UNL     1      -5.825  -1.207  -2.568  0.00  0.00    +0.046 A 
ATOM     16  C   UNL     1      -5.927  -2.327  -3.385  0.00  0.00    +0.120 A 
ATOM     17  C   UNL     1      -4.876  -2.681  -4.222  0.00  0.00    +0.046 A 
ATOM     18  C   UNL     1      -3.727  -1.923  -4.247  0.00  0.00    +0.011 A 
BRANCH  16  19
ATOM     19  O   UNL     1      -7.058  -3.079  -3.364  0.00  0.00    -0.495 OA
ATOM     20  C   UNL     1      -8.099  -2.659  -2.480  0.00  0.00    +0.277 C 
ENDBRANCH  16  19
ENDBRANCH  12  13
ENDBRANCH   8  11
ENDBRANCH   5   7
ENDBRANCH   2   5
BRANCH   1  21
ATOM     21  C   UNL     1       1.589   6.058   0.884  0.00  0.00    +0.200 C 
BRANCH  21  23
ATOM     22  N   UNL     1       3.181   7.633   1.935  0.00  0.00    -0.284 N 
ATOM     23  C   UNL     1       2.844   6.892   0.861  0.00  0.00    +0.234 C 
ATOM     24  O   UNL     1       3.551   6.897  -0.125  0.00  0.00    -0.274 OA
ATOM     25  H   UNL     1       2.501   7.692   2.798  0.00  0.00    +0.155 HD
BRANCH  22  30
ATOM     26  C   UNL     1       8.106  10.447   2.009  0.00  0.00    +0.044 C 
ATOM     27  C   UNL     1       6.798   9.700   1.989  0.00  0.00    -0.050 A 
ATOM     28  C   UNL     1       6.779   8.350   1.688  0.00  0.00    +0.008 A 
ATOM     29  C   UNL     1       5.581   7.662   1.669  0.00  0.00    -0.029 A 
ATOM     30  C   UNL     1       4.396   8.327   1.953  0.00  0.00    +0.039 A 
ATOM     31  C   UNL     1       4.418   9.684   2.249  0.00  0.00    -0.029 A 
ATOM     32  C   UNL     1       5.619  10.364   2.273  0.00  0.00    +0.008 A 
ATOM     33  C   UNL     1       3.133  10.411   2.552  0.00  0.00    +0.045 C 
ATOM     34  C   UNL     1       5.561   6.191   1.342  0.00  0.00    +0.045 C 
ENDBRANCH  22  30
ENDBRANCH  21  23
ENDBRANCH   1  21
TORSDOF 8
