REMARK  Name = ZINC34773657
REMARK  4 active torsions:
REMARK  status: ('A' for Active; 'I' for Inactive)
REMARK    1  A    between atoms: C_1  and  C_2
REMARK    2  A    between atoms: C_14  and  S_18
REMARK    3  A    between atoms: S_18  and  C_19
REMARK    4  A    between atoms: C_19  and  C_20
REMARK                            x       y       z     vdW  Elec       q    Type
REMARK                         _______ _______ _______ _____ _____    ______ ____
ROOT
ATOM      1  C   UNL     1      -0.019   1.526   0.010  0.00  0.00    +0.008 C 
ATOM      2  C   UNL     1       0.002  -0.004   0.002  0.00  0.00    -0.009 C 
ATOM      3  C   UNL     1       0.716  -0.496  -1.260  0.00  0.00    +0.009 C 
ATOM      4  C   UNL     1       0.503  -2.012  -1.387  0.00  0.00    +0.043 C 
ATOM      5  C   UNL     1       0.795  -2.643  -0.060  0.00  0.00    -0.004 A 
ATOM      6  C   UNL     1       0.909  -2.022   1.134  0.00  0.00    -0.024 A 
ATOM      7  C   UNL     1       1.200  -2.862   2.293  0.00  0.00    +0.055 A 
ATOM      8  C   UNL     1       1.376  -2.464   3.704  0.00  0.00    +0.168 A 
ATOM      9  N   UNL     1       1.331  -1.305   4.331  0.00  0.00    -0.214 NA
ATOM     10  C   UNL     1       1.562  -1.493   5.627  0.00  0.00    +0.246 A 
ATOM     11  N   UNL     1       1.759  -2.768   5.858  0.00  0.00    -0.151 NA
ATOM     12  N   UNL     1       1.646  -3.432   4.628  0.00  0.00    -0.188 N 
ATOM     13  C   UNL     1       1.750  -4.742   4.255  0.00  0.00    +0.193 A 
ATOM     14  N   UNL     1       1.596  -5.111   3.003  0.00  0.00    -0.214 NA
ATOM     15  C   UNL     1       1.332  -4.236   2.039  0.00  0.00    +0.115 A 
ATOM     16  S   UNL     1       1.067  -4.359   0.289  0.00  0.00    -0.073 S 
ATOM     17  C   UNL     1       0.738  -0.509   1.243  0.00  0.00    +0.040 C 
ENDROOT
BRANCH  13  18
ATOM     18  S   UNL     1       2.099  -5.962   5.477  0.00  0.00    -0.080 S 
BRANCH  18  19
ATOM     19  C   UNL     1       2.145  -7.517   4.545  0.00  0.00    +0.132 C 
BRANCH  19  20
ATOM     20  C   UNL     1       2.439  -8.658   5.484  0.00  0.00    +0.051 A 
ATOM     21  C   UNL     1       3.750  -9.024   5.726  0.00  0.00    +0.024 A 
ATOM     22  C   UNL     1       4.009 -10.075   6.592  0.00  0.00    +0.003 A 
ATOM     23  C   UNL     1       2.935 -10.721   7.186  0.00  0.00    +0.020 A 
ATOM     24  C   UNL     1       1.651 -10.300   6.896  0.00  0.00    +0.111 A 
ATOM     25  N   UNL     1       1.442  -9.293   6.070  0.00  0.00    -0.259 NA
ENDBRANCH  19  20
ENDBRANCH  18  19
ENDBRANCH  13  18
TORSDOF 3
