REMARK  Name = ZINC58125780
REMARK  10 active torsions:
REMARK  status: ('A' for Active; 'I' for Inactive)
REMARK    1  A    between atoms: C_1  and  C_2
REMARK    2  A    between atoms: C_4  and  C_19
REMARK    3  A    between atoms: C_9  and  C_17
REMARK    4  A    between atoms: C_9  and  C_18
REMARK    5  A    between atoms: C_11  and  N_13
REMARK    6  A    between atoms: C_14  and  C_16
REMARK    7  A    between atoms: C_19  and  C_21
REMARK    8  A    between atoms: C_19  and  O_24
REMARK    9  A    between atoms: C_21  and  C_22
REMARK   10  A    between atoms: C_21  and  C_23
REMARK                            x       y       z     vdW  Elec       q    Type
REMARK                         _______ _______ _______ _____ _____    ______ ____
ROOT
ATOM      1  C   UNL     1      -0.018   1.503   0.010  0.00  0.00    +0.047 C 
ATOM      2  C   UNL     1       0.002  -0.004   0.002  0.00  0.00    -0.008 A 
ATOM      3  C   UNL     1       0.006  -0.685  -1.198  0.00  0.00    +0.013 A 
ATOM      4  C   UNL     1       0.025  -2.068  -1.208  0.00  0.00    -0.018 A 
ATOM      5  C   UNL     1       0.043  -2.766  -0.016  0.00  0.00    +0.015 A 
ATOM      6  C   UNL     1       0.040  -2.088   1.192  0.00  0.00    +0.015 A 
ATOM      7  C   UNL     1       0.023  -0.704   1.204  0.00  0.00    +0.129 A 
ATOM      8  O   UNL     1       0.013   0.002   2.365  0.00  0.00    -0.486 OA
ATOM      9  C   UNL     1       0.402  -0.676   3.561  0.00  0.00    +0.107 C 
ATOM     10  C   UNL     1      -0.367  -2.001   3.639  0.00  0.00    +0.074 C 
ATOM     11  C   UNL     1       0.064  -2.885   2.471  0.00  0.00    +0.110 C 
ATOM     12  C   UNL     1       1.906  -0.955   3.529  0.00  0.00    +0.055 C 
ATOM     13  C   UNL     1       0.064   0.190   4.776  0.00  0.00    +0.055 C 
ENDROOT
BRANCH  11  14
ATOM     14  N   UNL     1      -0.841  -4.030   2.350  0.00  0.00    -0.308 N 
ATOM     15  C   UNL     1      -0.409  -5.173   1.781  0.00  0.00    +0.210 C 
ATOM     16  O   UNL     1       0.729  -5.253   1.370  0.00  0.00    -0.276 OA
ATOM     17  C   UNL     1      -1.341  -6.351   1.656  0.00  0.00    +0.109 C 
ATOM     18  H   UNL     1      -1.751  -3.966   2.679  0.00  0.00    +0.149 HD
ENDBRANCH  11  14
BRANCH   4  19
ATOM     19  C   UNL     1       0.027  -2.813  -2.518  0.00  0.00    +0.147 C 
BRANCH  19  20
ATOM     20  C   UNL     1       1.462  -2.935  -3.033  0.00  0.00    +0.016 C 
ATOM     21  C   UNL     1       1.463  -3.691  -4.363  0.00  0.00    +0.010 C 
ATOM     22  C   UNL     1       2.050  -1.538  -3.240  0.00  0.00    +0.010 C 
ENDBRANCH  19  20
BRANCH  19  23
ATOM     23  O   UNL     1      -0.763  -2.100  -3.472  0.00  0.00    -0.387 OA
ATOM     24  H   UNL     1      -0.448  -1.204  -3.653  0.00  0.00    +0.210 HD
ENDBRANCH  19  23
ENDBRANCH   4  19
TORSDOF 4
