REMARK  Name = ZINC11170174
REMARK  7 active torsions:
REMARK  status: ('A' for Active; 'I' for Inactive)
REMARK    1  A    between atoms: C_3  and  N_28
REMARK    2  A    between atoms: C_6  and  C_7
REMARK    3  A    between atoms: C_7  and  C_9
REMARK    4  A    between atoms: C_7  and  O_27
REMARK    5  A    between atoms: C_9  and  C_11
REMARK    6  A    between atoms: C_9  and  N_13
REMARK    7  A    between atoms: C_11  and  O_12
REMARK                            x       y       z     vdW  Elec       q    Type
REMARK                         _______ _______ _______ _____ _____    ______ ____
ROOT
ATOM      1  C   UNK A   1      -1.749  -1.442  -1.413  0.00  0.00    +0.130 C 
ENDROOT
BRANCH   1   2
ATOM      2  N   UNK A   1      -0.537  -2.106  -1.897  0.00  0.00    -0.321 N 
ATOM      3  C   UNK A   0      -0.315  -2.235  -3.256  0.00  0.00    +0.131 A 
ATOM      4  C   UNK A   0       0.794  -2.985  -3.738  0.00  0.00    +0.051 A 
ATOM      5  C   UNK A   0       1.821  -3.696  -2.974  0.00  0.00    -0.025 A 
ATOM      6  C   UNK A   0       2.775  -4.336  -3.680  0.00  0.00    -0.004 A 
ATOM      7  S   UNK A   0       2.372  -4.037  -5.380  0.00  0.00    -0.073 S 
ATOM      8  C   UNK A   0       0.919  -3.048  -5.140  0.00  0.00    +0.114 A 
ATOM      9  N   UNK A   0       0.058  -2.446  -5.937  0.00  0.00    -0.228 NA
ATOM     10  C   UNK A   0      -0.952  -1.764  -5.431  0.00  0.00    +0.224 A 
ATOM     11  N   UNK A   0      -1.135  -1.668  -4.127  0.00  0.00    -0.220 NA
ATOM     12  C   UNK A   0       3.926  -5.128  -3.139  0.00  0.00    +0.043 C 
ATOM     13  C   UNK A   0       4.083  -4.800  -1.648  0.00  0.00    +0.005 C 
ATOM     14  C   UNK A   0       2.707  -4.886  -0.980  0.00  0.00    +0.005 C 
ATOM     15  C   UNK A   0       1.830  -3.724  -1.448  0.00  0.00    +0.037 C 
ATOM     16  H   UNK A   1       0.110  -2.456  -1.265  0.00  0.00    +0.148 HD
ENDBRANCH   1   2
BRANCH   1  17
ATOM     17  C   UNK A   1      -1.497  -0.877  -0.013  0.00  0.00    +0.167 C 
BRANCH  17  23
ATOM     18  C   UNK A   1      -0.639   1.473  -0.101  0.00  0.00    +0.008 A 
ATOM     19  C   UNK A   1       0.398   2.386  -0.153  0.00  0.00    +0.033 A 
ATOM     20  C   UNK A   1       1.708   1.944  -0.173  0.00  0.00    +0.126 A 
ATOM     21  C   UNK A   1       1.980   0.589  -0.141  0.00  0.00    +0.033 A 
ATOM     22  C   UNK A   1       0.943  -0.324  -0.089  0.00  0.00    +0.008 A 
ATOM     23  C   UNK A   1      -0.366   0.118  -0.070  0.00  0.00    -0.017 A 
BRANCH  20  24
ATOM     24  N   UNK A   1       2.818   2.921  -0.229  0.00  0.00    +0.056 N 
ATOM     25  O   UNK A   1       2.579   4.106  -0.257  0.00  0.00    -0.126 OA
ATOM     26  O   UNK A   1       3.963   2.534  -0.247  0.00  0.00    -0.126 OA
ENDBRANCH  20  24
ENDBRANCH  17  23
BRANCH  17  27
ATOM     27  O   UNK A   1      -1.150  -1.942   0.874  0.00  0.00    -0.385 OA
ATOM     28  H   UNK A   1      -0.355  -2.427   0.615  0.00  0.00    +0.210 HD
ENDBRANCH  17  27
ENDBRANCH   1  17
BRANCH   1  29
ATOM     29  C   UNK A   1      -2.897  -2.452  -1.356  0.00  0.00    +0.181 C 
BRANCH  29  30
ATOM     30  O   UNK A   1      -2.601  -3.454  -0.382  0.00  0.00    -0.393 OA
ATOM     31  H   UNK A   1      -3.287  -4.130  -0.291  0.00  0.00    +0.209 HD
ENDBRANCH  29  30
ENDBRANCH   1  29
TORSDOF 7
