REMARK  Name = ZINC34774253
REMARK  6 active torsions:
REMARK  status: ('A' for Active; 'I' for Inactive)
REMARK    1  A    between atoms: C_2  and  C_3
REMARK    2  A    between atoms: C_3  and  S_4
REMARK    3  A    between atoms: S_4  and  C_5
REMARK    4  A    between atoms: C_9  and  C_14
REMARK    5  A    between atoms: N_23  and  C_26
REMARK    6  A    between atoms: C_26  and  C_27
REMARK                            x       y       z     vdW  Elec       q    Type
REMARK                         _______ _______ _______ _____ _____    ______ ____
ROOT
ATOM      1  C   UNL     1       3.036  -2.867   1.073  0.00  0.00    +0.191 A 
ATOM      2  N   UNL     1       3.468  -3.703   2.010  0.00  0.00    -0.206 NA
ATOM      3  C   UNL     1       4.566  -4.425   1.855  0.00  0.00    +0.134 A 
ATOM      4  C   UNL     1       5.312  -4.307   0.651  0.00  0.00    +0.055 A 
ATOM      5  C   UNL     1       6.540  -4.988   0.249  0.00  0.00    +0.002 A 
ATOM      6  C   UNL     1       7.072  -4.709  -0.964  0.00  0.00    +0.056 A 
ATOM      7  S   UNL     1       5.947  -3.505  -1.644  0.00  0.00    -0.076 S 
ATOM      8  C   UNL     1       4.797  -3.402  -0.298  0.00  0.00    +0.115 A 
ATOM      9  N   UNL     1       3.690  -2.721  -0.071  0.00  0.00    -0.214 NA
ATOM     10  N   UNL     1       4.983  -5.285   2.855  0.00  0.00    -0.318 N 
ATOM     11  C   UNL     1       5.594  -4.769   4.090  0.00  0.00    +0.088 C 
ATOM     12  C   UNL     1       4.879  -5.403   5.287  0.00  0.00    -0.059 C 
ATOM     13  N   UNL     1       4.913  -6.865   5.159  0.00  0.00    +0.387 N 
ATOM     14  C   UNL     1       4.149  -7.282   3.976  0.00  0.00    -0.059 C 
ATOM     15  C   UNL     1       4.823  -6.740   2.716  0.00  0.00    +0.088 C 
ATOM     16  H   UNL     1       5.870  -7.171   5.064  0.00  0.00    -0.081 HD
ENDROOT
BRANCH   5  17
ATOM     17  C   UNL     1       7.191  -5.966   1.152  0.00  0.00    -0.017 A 
ATOM     18  C   UNL     1       7.631  -5.569   2.414  0.00  0.00    +0.008 A 
ATOM     19  C   UNL     1       8.236  -6.484   3.250  0.00  0.00    +0.001 A 
ATOM     20  C   UNL     1       8.407  -7.794   2.839  0.00  0.00    +0.000 A 
ATOM     21  C   UNL     1       7.972  -8.194   1.588  0.00  0.00    +0.001 A 
ATOM     22  C   UNL     1       7.361  -7.289   0.745  0.00  0.00    +0.008 A 
ENDBRANCH   5  17
BRANCH   1  23
ATOM     23  S   UNL     1       1.564  -1.940   1.353  0.00  0.00    -0.082 S 
BRANCH  23  24
ATOM     24  C   UNL     1       1.365  -0.965  -0.163  0.00  0.00    +0.104 C 
BRANCH  24  26
ATOM     25  C   UNL     1       0.226   1.191  -0.030  0.00  0.00    +0.005 C 
ATOM     26  C   UNL     1       0.125  -0.115  -0.054  0.00  0.00    -0.023 C 
ENDBRANCH  24  26
ENDBRANCH  23  24
ENDBRANCH   1  23
BRANCH  13  27
ATOM     27  C   UNL     1       4.325  -7.474   6.359  0.00  0.00    +0.018 C 
BRANCH  27  28
ATOM     28  C   UNL     1       4.470  -8.973   6.285  0.00  0.00    +0.194 C 
ATOM     29  O   UNL     1       5.011  -9.482   5.326  0.00  0.00    -0.278 OA
ATOM     30  N   UNL     1       4.000  -9.746   7.283  0.00  0.00    -0.331 N 
ATOM     31  H   UNL     1       3.568  -9.338   8.050  0.00  0.00    +0.145 HD
ATOM     32  H   UNL     1       4.093 -10.710   7.235  0.00  0.00    +0.145 HD
ENDBRANCH  27  28
ENDBRANCH  13  27
TORSDOF 6
