REMARK  Name = ZINC39600559
REMARK  10 active torsions:
REMARK  status: ('A' for Active; 'I' for Inactive)
REMARK    1  A    between atoms: C_1  and  C_2
REMARK    2  A    between atoms: C_2  and  C_3
REMARK    3  A    between atoms: C_3  and  C_4
REMARK    4  A    between atoms: C_4  and  C_5
REMARK    5  A    between atoms: C_5  and  C_7
REMARK    6  A    between atoms: C_5  and  C_8
REMARK    7  A    between atoms: C_12  and  C_21
REMARK    8  A    between atoms: N_23  and  C_24
REMARK    9  A    between atoms: C_24  and  C_25
REMARK   10  A    between atoms: C_27  and  C_32
REMARK                            x       y       z     vdW  Elec       q    Type
REMARK                         _______ _______ _______ _____ _____    ______ ____
ROOT
ATOM      1  C   UNL     1       1.523  -3.767  -2.649  0.00  0.00    +0.218 C 
ATOM      2  O   UNL     1       1.026  -4.298  -1.678  0.00  0.00    -0.275 OA
ATOM      3  N   UNL     1       2.140  -4.516  -3.584  0.00  0.00    -0.300 N 
ATOM      4  C   UNL     1       2.806  -4.052  -4.824  0.00  0.00    +0.121 C 
ATOM      5  C   UNL     1       4.066  -4.939  -4.946  0.00  0.00    +0.100 C 
ATOM      6  C   UNL     1       3.731  -6.208  -4.145  0.00  0.00    -0.004 C 
ATOM      7  C   UNL     1       2.311  -5.988  -3.602  0.00  0.00    +0.115 C 
ATOM      8  C   UNL     1       4.711  -6.378  -2.989  0.00  0.00    -0.010 C 
ATOM      9  C   UNL     1       4.393  -7.677  -2.243  0.00  0.00    -0.082 C 
ATOM     10  N   UNL     1       4.494  -8.812  -3.167  0.00  0.00    +0.379 N 
ATOM     11  C   UNL     1       3.485  -8.688  -4.226  0.00  0.00    -0.082 C 
ATOM     12  C   UNL     1       3.765  -7.432  -5.056  0.00  0.00    -0.010 C 
ATOM     13  H   UNL     1       5.414  -8.825  -3.582  0.00  0.00    -0.086 HD
ATOM     14  H   UNL     1       4.344  -9.672  -2.661  0.00  0.00    -0.086 HD
ENDROOT
BRANCH   5  15
ATOM     15  C   UNL     1       5.259  -4.239  -4.348  0.00  0.00    +0.218 C 
ATOM     16  O   UNL     1       5.109  -3.460  -3.430  0.00  0.00    -0.275 OA
ATOM     17  N   UNL     1       6.494  -4.478  -4.834  0.00  0.00    -0.311 N 
ATOM     18  H   UNL     1       6.614  -5.101  -5.567  0.00  0.00    +0.149 HD
BRANCH  17  19
ATOM     19  C   UNL     1       7.654  -3.798  -4.253  0.00  0.00    +0.139 C 
BRANCH  19  20
ATOM     20  C   UNL     1       8.905  -4.237  -4.970  0.00  0.00    -0.027 A 
ATOM     21  C   UNL     1       9.609  -5.338  -4.519  0.00  0.00    +0.017 A 
ATOM     22  C   UNL     1      10.756  -5.742  -5.176  0.00  0.00    +0.058 A 
ATOM     23  C   UNL     1      11.201  -5.045  -6.284  0.00  0.00    +0.050 A 
ATOM     24  C   UNL     1      10.497  -3.942  -6.736  0.00  0.00    +0.124 A 
ATOM     25  C   UNL     1       9.344  -3.542  -6.080  0.00  0.00    +0.043 A 
ATOM     26  F   UNL     1      10.931  -3.260  -7.818  0.00  0.00    -0.205 F 
BRANCH  22  27
ATOM     27  C   UNL     1      11.523  -6.943  -4.684  0.00  0.00    +0.418 C 
ATOM     28  F   UNL     1      11.038  -8.095  -5.312  0.00  0.00    -0.166 F 
ATOM     29  F   UNL     1      12.880  -6.784  -4.983  0.00  0.00    -0.166 F 
ATOM     30  F   UNL     1      11.361  -7.064  -3.299  0.00  0.00    -0.166 F 
ENDBRANCH  22  27
ENDBRANCH  19  20
ENDBRANCH  17  19
ENDBRANCH   5  15
BRANCH   1  31
ATOM     31  C   UNL     1       1.451  -2.270  -2.809  0.00  0.00    +0.072 C 
ATOM     32  C   UNL     1       0.708  -1.931  -4.103  0.00  0.00    +0.017 C 
BRANCH  31  33
ATOM     33  C   UNL     1       0.704  -1.665  -1.618  0.00  0.00    +0.012 C 
BRANCH  33  34
ATOM     34  C   UNL     1       0.738  -0.139  -1.716  0.00  0.00    +0.000 C 
BRANCH  34  36
ATOM     35  C   UNL     1       0.025   1.992  -0.624  0.00  0.00    +0.004 C 
ATOM     36  C   UNL     1      -0.009   0.466  -0.526  0.00  0.00    -0.003 C 
ENDBRANCH  34  36
ENDBRANCH  33  34
ENDBRANCH  31  33
ENDBRANCH   1  31
TORSDOF 8
