REMARK  Name = ZINC36109051
REMARK  12 active torsions:
REMARK  status: ('A' for Active; 'I' for Inactive)
REMARK    1  A    between atoms: C_1  and  C_2
REMARK    2  A    between atoms: C_5  and  C_34
REMARK    3  A    between atoms: C_6  and  N_8
REMARK    4  A    between atoms: N_8  and  C_9
REMARK    5  A    between atoms: N_8  and  S_30
REMARK    6  A    between atoms: C_9  and  C_10
REMARK    7  A    between atoms: N_12  and  C_13
REMARK    8  A    between atoms: C_13  and  C_15
REMARK    9  A    between atoms: C_13  and  C_16
REMARK   10  A    between atoms: C_19  and  N_22
REMARK   11  A    between atoms: C_26  and  C_29
REMARK   12  A    between atoms: S_30  and  C_33
REMARK                            x       y       z     vdW  Elec       q    Type
REMARK                         _______ _______ _______ _____ _____    ______ ____
ROOT
ATOM      1  C   UNL     1      -1.780  -4.420   3.198  0.00  0.00    +0.233 C 
ATOM      2  O   UNL     1      -1.190  -5.141   2.421  0.00  0.00    -0.274 OA
ATOM      3  N   UNL     1      -2.938  -4.832   3.752  0.00  0.00    -0.307 N 
ATOM      4  H   UNL     1      -3.410  -4.256   4.373  0.00  0.00    +0.149 HD
ENDROOT
BRANCH   3   5
ATOM      5  C   UNL     1      -3.482  -6.150   3.417  0.00  0.00    +0.100 C 
ATOM      6  C   UNL     1      -2.844  -7.210   4.317  0.00  0.00    +0.033 C 
BRANCH   5   7
ATOM      7  C   UNL     1      -4.974  -6.146   3.627  0.00  0.00    -0.027 A 
ATOM      8  C   UNL     1      -5.516  -5.489   4.717  0.00  0.00    +0.007 A 
ATOM      9  C   UNL     1      -6.883  -5.483   4.913  0.00  0.00    +0.023 A 
ATOM     10  C   UNL     1      -7.714  -6.137   4.013  0.00  0.00    +0.030 A 
ATOM     11  C   UNL     1      -7.168  -6.796   2.919  0.00  0.00    +0.023 A 
ATOM     12  C   UNL     1      -5.800  -6.793   2.726  0.00  0.00    +0.007 A 
BRANCH  10  13
ATOM     13  N   UNL     1      -9.098  -6.133   4.208  0.00  0.00    -0.330 N 
ATOM     14  C   UNL     1      -9.978  -6.929   3.341  0.00  0.00    +0.105 C 
ATOM     15  C   UNL     1     -10.858  -7.823   4.221  0.00  0.00    +0.019 C 
ATOM     16  C   UNL     1     -11.598  -6.957   5.243  0.00  0.00    +0.006 C 
ATOM     17  C   UNL     1     -10.583  -6.245   6.141  0.00  0.00    +0.003 C 
ATOM     18  C   UNL     1      -9.699  -5.338   5.287  0.00  0.00    +0.108 C 
ATOM     19  C   UNL     1     -11.324  -5.406   7.183  0.00  0.00    +0.009 C 
ENDBRANCH  10  13
ENDBRANCH   5   7
ENDBRANCH   3   5
BRANCH   1  20
ATOM     20  C   UNL     1      -1.220  -3.064   3.543  0.00  0.00    +0.226 C 
BRANCH  20  21
ATOM     21  N   UNL     1      -0.042  -2.797   2.714  0.00  0.00    -0.199 N 
BRANCH  21  27
ATOM     22  C   UNL     1      -0.240  -3.399  -2.159  0.00  0.00    +0.044 C 
ATOM     23  C   UNL     1      -0.295  -2.514  -0.941  0.00  0.00    -0.049 A 
ATOM     24  C   UNL     1      -0.497  -1.153  -1.084  0.00  0.00    +0.004 A 
ATOM     25  C   UNL     1      -0.547  -0.338   0.031  0.00  0.00    +0.005 A 
ATOM     26  C   UNL     1      -0.397  -0.880   1.293  0.00  0.00    -0.028 A 
ATOM     27  C   UNL     1      -0.195  -2.246   1.440  0.00  0.00    +0.055 A 
ATOM     28  C   UNL     1      -0.150  -3.063   0.318  0.00  0.00    +0.028 A 
ATOM     29  C   UNL     1      -0.451   0.010   2.508  0.00  0.00    +0.046 C 
ENDBRANCH  21  27
BRANCH  21  30
ATOM     30  S   UNL     1       1.471  -3.150   3.288  0.00  0.00    +0.043 S 
ATOM     31  O   UNL     1       1.262  -4.163   4.263  0.00  0.00    -0.155 OA
ATOM     32  O   UNL     1       2.248  -3.410   2.127  0.00  0.00    -0.155 OA
ATOM     33  C   UNL     1       2.034  -1.621   4.087  0.00  0.00    +0.218 C 
ENDBRANCH  21  30
ENDBRANCH  20  21
ENDBRANCH   1  20
TORSDOF 7
