REMARK  Name = ZINC60162245
REMARK  9 active torsions:
REMARK  status: ('A' for Active; 'I' for Inactive)
REMARK    1  A    between atoms: C_1  and  C_2
REMARK    2  A    between atoms: C_5  and  C_8
REMARK    3  A    between atoms: N_14  and  C_15
REMARK    4  A    between atoms: C_15  and  C_16
REMARK    5  A    between atoms: C_16  and  C_17
REMARK    6  A    between atoms: N_19  and  C_20
REMARK    7  A    between atoms: C_20  and  C_21
REMARK    8  A    between atoms: N_27  and  C_28
REMARK    9  A    between atoms: C_28  and  C_29
REMARK                            x       y       z     vdW  Elec       q    Type
REMARK                         _______ _______ _______ _____ _____    ______ ____
ROOT
ATOM      1  C   UNL     1      -1.201  -4.111   4.181  0.00  0.00    +0.215 C 
ATOM      2  O   UNL     1      -0.091  -3.724   4.479  0.00  0.00    -0.276 OA
ATOM      3  N   UNL     1      -2.216  -3.988   5.060  0.00  0.00    -0.317 N 
ATOM      4  H   UNL     1      -3.103  -4.297   4.822  0.00  0.00    +0.149 HD
ENDROOT
BRANCH   1   5
ATOM      5  C   UNL     1      -1.446  -4.731   2.830  0.00  0.00    +0.117 C 
BRANCH   5   6
ATOM      6  C   UNL     1      -0.140  -4.751   2.034  0.00  0.00    +0.135 C 
BRANCH   6  13
ATOM      7  C   UNL     1      -0.628  -4.437  -0.434  0.00  0.00    +0.163 A 
ATOM      8  N   UNL     1      -0.819  -5.211  -1.465  0.00  0.00    -0.153 NA
ATOM      9  N   UNL     1      -0.724  -6.541  -1.033  0.00  0.00    -0.254 N 
ATOM     10  H   UNL     1      -0.823  -7.332  -1.586  0.00  0.00    +0.191 HD
ATOM     11  C   UNL     1      -0.471  -6.521   0.292  0.00  0.00    +0.176 A 
ATOM     12  S   UNL     1      -0.265  -7.887   1.302  0.00  0.00    -0.011 S 
ATOM     13  N   UNL     1      -0.403  -5.230   0.674  0.00  0.00    -0.303 N 
BRANCH   7  18
ATOM     14  C   UNL     1      -0.690   1.318  -0.493  0.00  0.00    +0.044 C 
ATOM     15  C   UNL     1      -0.674  -0.189  -0.477  0.00  0.00    -0.050 A 
ATOM     16  C   UNL     1      -0.458  -0.887  -1.652  0.00  0.00    +0.004 A 
ATOM     17  C   UNL     1      -0.442  -2.267  -1.644  0.00  0.00    +0.012 A 
ATOM     18  C   UNL     1      -0.644  -2.958  -0.449  0.00  0.00    +0.019 A 
ATOM     19  C   UNL     1      -0.861  -2.247   0.732  0.00  0.00    +0.012 A 
ATOM     20  C   UNL     1      -0.869  -0.868   0.712  0.00  0.00    +0.004 A 
ENDBRANCH   7  18
ENDBRANCH   6  13
ENDBRANCH   5   6
ENDBRANCH   1   5
BRANCH   3  21
ATOM     21  C   UNL     1      -1.977  -3.385   6.374  0.00  0.00    +0.089 C 
BRANCH  21  22
ATOM     22  C   UNL     1      -3.307  -3.243   7.118  0.00  0.00    -0.051 C 
ATOM     23  C   UNL     1      -3.870  -4.632   7.425  0.00  0.00    -0.014 C 
ATOM     24  C   UNL     1      -5.200  -4.484   8.170  0.00  0.00    -0.003 C 
ATOM     25  C   UNL     1      -6.159  -3.643   7.321  0.00  0.00    -0.019 C 
ATOM     26  C   UNL     1      -5.510  -2.291   7.019  0.00  0.00    -0.078 C 
ATOM     27  N   UNL     1      -4.257  -2.499   6.283  0.00  0.00    +0.385 N 
ATOM     28  H   UNL     1      -4.445  -3.023   5.441  0.00  0.00    -0.081 HD
BRANCH  27  29
ATOM     29  C   UNL     1      -3.679  -1.197   5.926  0.00  0.00    -0.043 C 
BRANCH  29  30
ATOM     30  C   UNL     1      -4.584  -0.497   4.946  0.00  0.00    -0.064 A 
ATOM     31  C   UNL     1      -4.414  -0.690   3.588  0.00  0.00    +0.002 A 
ATOM     32  C   UNL     1      -5.244  -0.048   2.688  0.00  0.00    +0.000 A 
ATOM     33  C   UNL     1      -6.245   0.788   3.147  0.00  0.00    +0.000 A 
ATOM     34  C   UNL     1      -6.416   0.981   4.505  0.00  0.00    +0.000 A 
ATOM     35  C   UNL     1      -5.588   0.335   5.405  0.00  0.00    +0.002 A 
ENDBRANCH  29  30
ENDBRANCH  27  29
ENDBRANCH  21  22
ENDBRANCH   3  21
TORSDOF 8
