REMARK  Name = ZINC36545464
REMARK  16 active torsions:
REMARK  status: ('A' for Active; 'I' for Inactive)
REMARK    1  A    between atoms: C_1  and  C_2
REMARK    2  A    between atoms: C_3  and  C_4
REMARK    3  A    between atoms: C_4  and  C_6
REMARK    4  A    between atoms: C_4  and  N_17
REMARK    5  A    between atoms: N_8  and  C_9
REMARK    6  A    between atoms: C_9  and  C_10
REMARK    7  A    between atoms: C_9  and  C_11
REMARK    8  A    between atoms: C_9  and  C_12
REMARK    9  A    between atoms: C_12  and  C_13
REMARK   10  A    between atoms: C_13  and  C_14
REMARK   11  A    between atoms: C_13  and  C_15
REMARK   12  A    between atoms: C_13  and  C_16
REMARK   13  A    between atoms: N_17  and  C_18
REMARK   14  A    between atoms: C_25  and  C_27
REMARK   15  A    between atoms: C_31  and  O_34
REMARK   16  A    between atoms: C_32  and  O_33
REMARK                            x       y       z     vdW  Elec       q    Type
REMARK                         _______ _______ _______ _____ _____    ______ ____
ROOT
ATOM      1  N   UNL     1       0.202  -4.444   2.846  0.00  0.00    -0.250 N 
ATOM      2  C   UNL     1       0.678  -5.373   1.993  0.00  0.00    +0.255 C 
ATOM      3  O   UNL     1       1.754  -5.207   1.452  0.00  0.00    -0.269 OA
ENDROOT
BRANCH   1   4
ATOM      4  C   UNL     1      -1.082  -4.580   3.383  0.00  0.00    +0.056 A 
ATOM      5  C   UNL     1      -2.175  -4.033   2.724  0.00  0.00    +0.025 A 
ATOM      6  C   UNL     1      -3.441  -4.170   3.257  0.00  0.00    +0.002 A 
ATOM      7  C   UNL     1      -3.623  -4.851   4.446  0.00  0.00    +0.002 A 
ATOM      8  C   UNL     1      -2.538  -5.398   5.106  0.00  0.00    +0.022 A 
ATOM      9  C   UNL     1      -1.268  -5.269   4.576  0.00  0.00    +0.062 A 
ATOM     10 CL   UNL     1       0.093  -5.962   5.401  0.00  0.00    -0.082 Cl
ENDBRANCH   1   4
BRANCH   2  11
ATOM     11  C   UNL     1      -0.107  -6.590   1.715  0.00  0.00    +0.082 A 
ATOM     12  C   UNL     1      -1.425  -6.488   1.261  0.00  0.00    +0.017 A 
ATOM     13  C   UNL     1      -2.155  -7.627   1.003  0.00  0.00    +0.005 A 
ATOM     14  C   UNL     1      -1.590  -8.878   1.192  0.00  0.00    +0.049 A 
ATOM     15  C   UNL     1      -0.286  -8.996   1.641  0.00  0.00    +0.159 A 
ATOM     16  C   UNL     1       0.466  -7.854   1.900  0.00  0.00    +0.171 A 
BRANCH  16  17
ATOM     17  O   UNL     1       1.747  -7.965   2.336  0.00  0.00    -0.503 OA
ATOM     18  H   UNL     1       1.833  -8.004   3.298  0.00  0.00    +0.292 HD
ENDBRANCH  16  17
BRANCH  15  19
ATOM     19  O   UNL     1       0.261 -10.227   1.825  0.00  0.00    -0.503 OA
ATOM     20  H   UNL     1       0.708 -10.580   1.043  0.00  0.00    +0.292 HD
ENDBRANCH  15  19
ENDBRANCH   2  11
BRANCH   1  21
ATOM     21  C   UNL     1       1.030  -3.292   3.210  0.00  0.00    +0.190 C 
BRANCH  21  22
ATOM     22  C   UNL     1       2.362  -3.773   3.726  0.00  0.00    +0.238 C 
ATOM     23  O   UNL     1       2.596  -4.961   3.783  0.00  0.00    -0.273 OA
ATOM     24  N   UNL     1       3.292  -2.882   4.123  0.00  0.00    -0.308 N 
ATOM     25  H   UNL     1       3.105  -1.932   4.077  0.00  0.00    +0.149 HD
BRANCH  24  26
ATOM     26  C   UNL     1       4.587  -3.350   4.624  0.00  0.00    +0.030 C 
ATOM     27  C   UNL     1       4.364  -4.446   5.668  0.00  0.00    +0.031 C 
ATOM     28  C   UNL     1       5.411  -3.911   3.463  0.00  0.00    +0.031 C 
BRANCH  26  29
ATOM     29  C   UNL     1       5.339  -2.181   5.264  0.00  0.00    +0.031 C 
BRANCH  29  30
ATOM     30  C   UNL     1       5.267  -0.962   4.342  0.00  0.00    -0.036 C 
ATOM     31  C   UNL     1       3.839  -0.412   4.335  0.00  0.00    +0.010 C 
ATOM     32  C   UNL     1       6.227   0.117   4.847  0.00  0.00    +0.010 C 
ATOM     33  C   UNL     1       5.662  -1.373   2.922  0.00  0.00    +0.010 C 
ENDBRANCH  29  30
ENDBRANCH  26  29
ENDBRANCH  24  26
ENDBRANCH  21  22
BRANCH  21  36
ATOM     34  C   UNL     1       1.055  -1.968  -0.394  0.00  0.00    +0.035 C 
ATOM     35  C   UNL     1       0.910  -2.864   0.809  0.00  0.00    -0.032 C 
ATOM     36  C   UNL     1       1.245  -2.424   1.997  0.00  0.00    +0.000 C 
ENDBRANCH  21  36
ENDBRANCH   1  21
TORSDOF 10
