REMARK  Name = ZINC67388962
REMARK  8 active torsions:
REMARK  status: ('A' for Active; 'I' for Inactive)
REMARK    1  A    between atoms: C_4  and  C_7
REMARK    2  A    between atoms: C_7  and  C_8
REMARK    3  A    between atoms: C_8  and  C_9
REMARK    4  A    between atoms: N_11  and  N_12
REMARK    5  A    between atoms: N_15  and  C_16
REMARK    6  A    between atoms: C_16  and  C_17
REMARK    7  A    between atoms: C_17  and  C_19
REMARK    8  A    between atoms: C_17  and  N_25
REMARK                            x       y       z     vdW  Elec       q    Type
REMARK                         _______ _______ _______ _____ _____    ______ ____
ROOT
ATOM      1  N   UNL     1       4.539  -4.341  -5.276  0.00  0.00    -0.218 N 
ATOM      2  C   UNL     1       4.834  -5.654  -5.351  0.00  0.00    +0.316 C 
ATOM      3  O   UNL     1       5.490  -6.077  -6.283  0.00  0.00    -0.251 OA
ATOM      4  N   UNL     1       4.402  -6.498  -4.393  0.00  0.00    -0.297 N 
ATOM      5  H   UNL     1       4.850  -3.734  -5.965  0.00  0.00    +0.174 HD
ATOM      6  H   UNL     1       3.879  -6.160  -3.649  0.00  0.00    +0.150 HD
ENDROOT
BRANCH   1   9
ATOM      7  C   UNL     1       3.488  -2.541  -4.127  0.00  0.00    +0.229 C 
ATOM      8  O   UNL     1       3.877  -1.781  -4.989  0.00  0.00    -0.274 OA
ATOM      9  N   UNL     1       3.783  -3.854  -4.202  0.00  0.00    -0.233 N 
ATOM     10  H   UNL     1       3.472  -4.461  -3.512  0.00  0.00    +0.173 HD
BRANCH   7  11
ATOM     11  C   UNL     1       2.675  -2.016  -2.971  0.00  0.00    +0.097 C 
BRANCH  11  12
ATOM     12  C   UNL     1       2.484  -0.506  -3.126  0.00  0.00    +0.013 C 
BRANCH  12  16
ATOM     13  C   UNL     1      -0.662   1.490  -0.924  0.00  0.00    +0.000 C 
ATOM     14  C   UNL     1       0.747   2.084  -0.867  0.00  0.00    +0.000 C 
ATOM     15  C   UNL     1       1.573   1.551  -2.040  0.00  0.00    +0.003 C 
ATOM     16  C   UNL     1       1.658   0.026  -1.953  0.00  0.00    -0.011 C 
ATOM     17  C   UNL     1       0.249  -0.568  -2.009  0.00  0.00    +0.003 C 
ATOM     18  C   UNL     1      -0.576  -0.035  -0.836  0.00  0.00    +0.000 C 
ENDBRANCH  12  16
ENDBRANCH  11  12
ENDBRANCH   7  11
ENDBRANCH   1   9
BRANCH   4  19
ATOM     19  C   UNL     1       4.723  -7.925  -4.475  0.00  0.00    +0.125 C 
BRANCH  19  20
ATOM     20  C   UNL     1       4.225  -8.633  -3.213  0.00  0.00    +0.079 C 
BRANCH  20  21
ATOM     21  N   UNL     1       2.788  -8.380  -3.045  0.00  0.00    -0.293 NA
ATOM     22  C   UNL     1       2.304  -8.919  -1.766  0.00  0.00    +0.113 C 
ATOM     23  C   UNL     1       0.820  -8.582  -1.605  0.00  0.00    +0.175 C 
ATOM     24  O   UNL     1       0.093  -9.102  -2.722  0.00  0.00    -0.377 OA
ATOM     25  C   UNL     1       0.538  -8.597  -3.983  0.00  0.00    +0.175 C 
ATOM     26  C   UNL     1       2.020  -8.935  -4.169  0.00  0.00    +0.113 C 
ENDBRANCH  20  21
BRANCH  20  27
ATOM     27  C   UNL     1       4.466 -10.138  -3.345  0.00  0.00    +0.035 C 
ATOM     28  C   UNL     1       5.983 -10.443  -3.385  0.00  0.00    +0.035 C 
ATOM     29  C   UNL     1       6.063 -11.550  -4.468  0.00  0.00    +0.160 C 
ATOM     30  O   UNL     1       5.072 -11.145  -5.437  0.00  0.00    -0.379 OA
ATOM     31  C   UNL     1       3.938 -10.653  -4.698  0.00  0.00    +0.165 C 
ENDBRANCH  20  27
ENDBRANCH  19  20
ENDBRANCH   4  19
TORSDOF 8
