REMARK  Name = ZINC35807068
REMARK  7 active torsions:
REMARK  status: ('A' for Active; 'I' for Inactive)
REMARK    1  A    between atoms: C_1  and  C_2
REMARK    2  A    between atoms: C_6  and  C_41
REMARK    3  A    between atoms: C_17  and  C_19
REMARK    4  A    between atoms: C_19  and  N_20
REMARK    5  A    between atoms: N_23  and  C_26
REMARK    6  A    between atoms: C_26  and  C_28
REMARK    7  A    between atoms: C_26  and  C_34
REMARK                            x       y       z     vdW  Elec       q    Type
REMARK                         _______ _______ _______ _____ _____    ______ ____
ROOT
ATOM      1  N   UNL     1       3.146  -0.060   6.359  0.00  0.00    +0.382 N 
ATOM      2  C   UNL     1       4.168  -1.004   5.888  0.00  0.00    -0.063 C 
ATOM      3  C   UNL     1       5.539  -0.580   6.421  0.00  0.00    +0.067 C 
ATOM      4  N   UNL     1       5.505  -0.562   7.890  0.00  0.00    -0.295 NA
ATOM      5  C   UNL     1       4.470   0.360   8.377  0.00  0.00    +0.067 C 
ATOM      6  C   UNL     1       3.108  -0.071   7.828  0.00  0.00    -0.063 C 
ATOM      7  H   UNL     1       3.372   0.869   6.036  0.00  0.00    -0.082 HD
ENDROOT
BRANCH   1   8
ATOM      8  C   UNL     1       1.834  -0.456   5.832  0.00  0.00    -0.063 C 
BRANCH   8  23
ATOM      9  C   UNL     1       4.348   1.236   0.177  0.00  0.00    +0.044 C 
ATOM     10  C   UNL     1       2.948   1.789   0.240  0.00  0.00    -0.051 C 
ATOM     11  C   UNL     1       2.334   2.181  -0.863  0.00  0.00    -0.023 C 
ATOM     12  C   UNL     1       0.954   2.761  -0.908  0.00  0.00    +0.028 C 
ATOM     13  C   UNL     1       0.165   2.461   0.369  0.00  0.00    +0.015 C 
ATOM     14  C   UNL     1       1.044   2.799   1.572  0.00  0.00    -0.003 C 
ATOM     15  C   UNL     1       2.241   1.893   1.540  0.00  0.00    -0.042 C 
ATOM     16  C   UNL     1       2.668   1.208   2.574  0.00  0.00    -0.015 C 
ATOM     17  C   UNL     1       1.970   1.197   3.909  0.00  0.00    +0.065 C 
ATOM     18  C   UNL     1       0.482   1.566   3.701  0.00  0.00    +0.185 C 
ATOM     19  C   UNL     1       0.296   2.798   2.875  0.00  0.00    +0.056 C 
ATOM     20  O   UNL     1      -0.068   0.398   3.083  0.00  0.00    -0.461 OA
ATOM     21  C   UNL     1       0.448  -0.676   3.723  0.00  0.00    +0.309 C 
ATOM     22  O   UNL     1      -0.084  -1.757   3.821  0.00  0.00    -0.251 OA
ATOM     23  C   UNL     1       1.828  -0.304   4.310  0.00  0.00    +0.092 C 
ATOM     24  C   UNL     1       1.565   4.221   1.355  0.00  0.00    +0.016 C 
ENDBRANCH   8  23
ENDBRANCH   1   8
BRANCH   4  25
ATOM     25  C   UNL     1       6.821  -0.214   8.443  0.00  0.00    +0.117 C 
BRANCH  25  26
ATOM     26  C   UNL     1       7.838  -1.232   7.995  0.00  0.00    -0.026 A 
ATOM     27  C   UNL     1       7.500  -2.572   7.947  0.00  0.00    +0.007 A 
ATOM     28  C   UNL     1       8.433  -3.506   7.537  0.00  0.00    +0.020 A 
ATOM     29  C   UNL     1       9.705  -3.100   7.175  0.00  0.00    +0.041 A 
ATOM     30  C   UNL     1      10.043  -1.759   7.223  0.00  0.00    +0.020 A 
ATOM     31  C   UNL     1       9.108  -0.825   7.628  0.00  0.00    +0.007 A 
ATOM     32 CL   UNL     1      10.877  -4.273   6.660  0.00  0.00    -0.084 Cl
ENDBRANCH  25  26
BRANCH  25  33
ATOM     33  C   UNL     1       6.748  -0.205   9.948  0.00  0.00    -0.026 A 
ATOM     34  C   UNL     1       6.023  -1.178  10.610  0.00  0.00    +0.005 A 
ATOM     35  C   UNL     1       5.955  -1.170  11.991  0.00  0.00    +0.000 A 
ATOM     36  C   UNL     1       6.614  -0.189  12.709  0.00  0.00    +0.000 A 
ATOM     37  C   UNL     1       7.340   0.783  12.047  0.00  0.00    +0.000 A 
ATOM     38  C   UNL     1       7.410   0.772  10.666  0.00  0.00    +0.005 A 
ENDBRANCH  25  33
ENDBRANCH   4  25
TORSDOF 5
