REMARK  Name = ZINC37301692
REMARK  3 active torsions:
REMARK  status: ('A' for Active; 'I' for Inactive)
REMARK    1  A    between atoms: C_5  and  N_7
REMARK    2  A    between atoms: N_7  and  C_8
REMARK    3  A    between atoms: C_8  and  C_9
REMARK                            x       y       z     vdW  Elec       q    Type
REMARK                         _______ _______ _______ _____ _____    ______ ____
ROOT
ATOM      1  C   UNL     1       0.278  -4.309  -0.025  0.00  0.00    -0.025 A 
ATOM      2  C   UNL     1       0.409  -4.976  -1.229  0.00  0.00    +0.054 A 
ATOM      3  C   UNL     1       0.684  -6.333  -1.236  0.00  0.00    +0.164 A 
ATOM      4  C   UNL     1       0.828  -7.020  -0.039  0.00  0.00    +0.180 A 
ATOM      5  C   UNL     1       0.697  -6.348   1.166  0.00  0.00    +0.086 A 
ATOM      6  C   UNL     1       0.426  -4.990   1.169  0.00  0.00    +0.029 A 
ATOM      7 CL   UNL     1       0.876  -7.205   2.665  0.00  0.00    -0.080 Cl
ATOM      8  O   UNL     1       1.100  -8.357  -0.057  0.00  0.00    -0.487 OA
ATOM      9  C   UNL     1       0.051  -9.201  -0.536  0.00  0.00    +0.232 C 
ATOM     10  C   UNL     1       0.080  -9.289  -2.054  0.00  0.00    +0.082 C 
ATOM     11  C   UNL     1      -0.211  -7.951  -2.716  0.00  0.00    +0.232 C 
ATOM     12  O   UNL     1       0.816  -7.003  -2.418  0.00  0.00    -0.488 OA
ENDROOT
BRANCH   1  13
ATOM     13  C   UNL     1      -0.021  -2.832  -0.013  0.00  0.00    +0.137 C 
BRANCH  13  14
ATOM     14  N   UNL     1       1.236  -2.079  -0.021  0.00  0.00    -0.338 N 
ATOM     15  H   UNL     1       2.084  -2.550  -0.032  0.00  0.00    +0.146 HD
BRANCH  14  20
ATOM     16  C   UNL     1      -0.017   1.377   0.010  0.00  0.00    +0.002 A 
ATOM     17  C   UNL     1       1.170   2.087   0.002  0.00  0.00    +0.003 A 
ATOM     18  C   UNL     1       2.380   1.418  -0.013  0.00  0.00    +0.040 A 
ATOM     19  C   UNL     1       2.406   0.035  -0.021  0.00  0.00    +0.144 A 
ATOM     20  C   UNL     1       1.214  -0.681  -0.013  0.00  0.00    +0.063 A 
ATOM     21  C   UNL     1       0.002  -0.004   0.002  0.00  0.00    +0.026 A 
ATOM     22  F   UNL     1       3.588  -0.619  -0.036  0.00  0.00    -0.204 F 
ENDBRANCH  14  20
ENDBRANCH  13  14
ENDBRANCH   1  13
TORSDOF 3
