REMARK  Name = ZINC39654258
REMARK  7 active torsions:
REMARK  status: ('A' for Active; 'I' for Inactive)
REMARK    1  A    between atoms: C_1  and  C_2
REMARK    2  A    between atoms: C_2  and  C_3
REMARK    3  A    between atoms: C_6  and  C_9
REMARK    4  A    between atoms: C_9  and  C_10
REMARK    5  A    between atoms: C_10  and  N_11
REMARK    6  A    between atoms: C_12  and  C_14
REMARK    7  A    between atoms: C_25  and  C_27
REMARK                            x       y       z     vdW  Elec       q    Type
REMARK                         _______ _______ _______ _____ _____    ______ ____
ROOT
ATOM      1  C   UNL     1      -9.948  -0.746  -0.512  0.00  0.00    +0.100 C 
ATOM      2  C   UNL     1     -10.458  -1.673  -1.638  0.00  0.00    +0.121 C 
ATOM      3  N   UNL     1     -11.882  -1.300  -1.813  0.00  0.00    -0.296 N 
ATOM      4  C   UNL     1     -11.896   0.176  -1.673  0.00  0.00    +0.115 C 
ATOM      5  C   UNL     1     -10.894   0.466  -0.538  0.00  0.00    -0.004 C 
ATOM      6  C   UNL     1     -11.627   0.593   0.794  0.00  0.00    -0.010 C 
ATOM      7  C   UNL     1     -12.519   1.838   0.763  0.00  0.00    -0.082 C 
ATOM      8  N   UNL     1     -11.694   3.027   0.520  0.00  0.00    +0.379 N 
ATOM      9  C   UNL     1     -11.065   2.939  -0.804  0.00  0.00    -0.082 C 
ATOM     10  C   UNL     1     -10.112   1.741  -0.839  0.00  0.00    -0.010 C 
ATOM     11  C   UNL     1     -12.927  -2.118  -2.047  0.00  0.00    +0.247 C 
ATOM     12  O   UNL     1     -12.776  -3.324  -2.009  0.00  0.00    -0.270 OA
ATOM     13  H   UNL     1     -12.274   3.852   0.560  0.00  0.00    -0.086 HD
ATOM     14  H   UNL     1     -10.978   3.088   1.228  0.00  0.00    -0.086 HD
ENDROOT
BRANCH  11  15
ATOM     15  C   UNL     1     -14.257  -1.549  -2.351  0.00  0.00    +0.038 A 
ATOM     16  C   UNL     1     -14.369  -0.239  -2.818  0.00  0.00    +0.013 A 
ATOM     17  C   UNL     1     -15.613   0.287  -3.099  0.00  0.00    +0.002 A 
ATOM     18  C   UNL     1     -16.750  -0.482  -2.919  0.00  0.00    +0.015 A 
ATOM     19  C   UNL     1     -16.646  -1.783  -2.456  0.00  0.00    +0.019 A 
ATOM     20  C   UNL     1     -15.406  -2.322  -2.177  0.00  0.00    +0.028 A 
ATOM     21 BR   UNL     1     -18.205  -2.825  -2.212  0.00  0.00    -0.050 Br
ENDBRANCH  11  15
BRANCH   1  23
ATOM     22  N   UNL     1      -7.696  -0.045   0.233  0.00  0.00    -0.315 N 
ATOM     23  C   UNL     1      -8.532  -0.313  -0.790  0.00  0.00    +0.218 C 
ATOM     24  O   UNL     1      -8.145  -0.205  -1.934  0.00  0.00    -0.275 OA
ATOM     25  H   UNL     1      -8.006  -0.131   1.148  0.00  0.00    +0.149 HD
BRANCH  22  26
ATOM     26  C   UNL     1      -6.319   0.377  -0.038  0.00  0.00    +0.109 C 
BRANCH  26  27
ATOM     27  C   UNL     1      -5.589   0.615   1.286  0.00  0.00    +0.054 C 
BRANCH  27  31
ATOM     28  C   UNL     1      -1.575   1.844   0.499  0.00  0.00    -0.048 A 
ATOM     29  C   UNL     1      -2.577   2.789   0.614  0.00  0.00    +0.004 A 
ATOM     30  C   UNL     1      -3.876   2.391   0.868  0.00  0.00    +0.004 A 
ATOM     31  C   UNL     1      -4.173   1.048   1.007  0.00  0.00    -0.046 A 
ATOM     32  C   UNL     1      -3.171   0.103   0.891  0.00  0.00    +0.004 A 
ATOM     33  C   UNL     1      -1.872   0.501   0.633  0.00  0.00    +0.004 A 
BRANCH  28  35
ATOM     34  C   UNL     1       0.070   2.339  -1.290  0.00  0.00    +0.009 C 
ATOM     35  C   UNL     1      -0.158   2.278   0.222  0.00  0.00    +0.032 C 
ENDBRANCH  28  35
ENDBRANCH  27  31
ENDBRANCH  26  27
ENDBRANCH  22  26
ENDBRANCH   1  23
TORSDOF 6
