REMARK  Name = ZINC18158997
REMARK  8 active torsions:
REMARK  status: ('A' for Active; 'I' for Inactive)
REMARK    1  A    between atoms: C_1  and  O_2
REMARK    2  A    between atoms: O_2  and  C_3
REMARK    3  A    between atoms: C_6  and  C_11
REMARK    4  A    between atoms: C_8  and  O_9
REMARK    5  A    between atoms: O_9  and  C_10
REMARK    6  A    between atoms: N_16  and  C_17
REMARK    7  A    between atoms: N_27  and  C_30
REMARK    8  A    between atoms: C_30  and  C_31
REMARK                            x       y       z     vdW  Elec       q    Type
REMARK                         _______ _______ _______ _____ _____    ______ ____
ROOT
ATOM      1  C   UNL     1       2.281   7.043  -4.512  0.00  0.00    +0.087 C 
ATOM      2  C   UNL     1       2.932   6.674  -5.669  0.00  0.00    +0.059 C 
ATOM      3  C   UNL     1       3.033   5.255  -6.066  0.00  0.00    +0.000 A 
ATOM      4  C   UNL     1       2.469   4.239  -5.301  0.00  0.00    +0.009 A 
ATOM      5  C   UNL     1       2.586   2.929  -5.717  0.00  0.00    +0.001 A 
ATOM      6  C   UNL     1       3.255   2.619  -6.892  0.00  0.00    +0.001 A 
ATOM      7  C   UNL     1       3.815   3.613  -7.666  0.00  0.00    +0.013 A 
ATOM      8  C   UNL     1       3.708   4.944  -7.264  0.00  0.00    +0.045 A 
ATOM      9  C   UNL     1       4.291   6.033  -8.059  0.00  0.00    +0.254 C 
ATOM     10  O   UNL     1       4.879   5.771  -9.091  0.00  0.00    -0.270 OA
ATOM     11  N   UNL     1       4.185   7.313  -7.666  0.00  0.00    -0.230 N 
ATOM     12  C   UNL     1       3.551   7.680  -6.540  0.00  0.00    +0.255 C 
ATOM     13  O   UNL     1       3.490   8.858  -6.240  0.00  0.00    -0.269 OA
ENDROOT
BRANCH   1  19
ATOM     14  C   UNL     1      -0.663   6.353  -0.950  0.00  0.00    +0.080 A 
ATOM     15  C   UNL     1      -0.076   7.449  -0.383  0.00  0.00    +0.076 A 
ATOM     16  S   UNL     1       1.121   7.873  -1.642  0.00  0.00    -0.060 S 
ATOM     17  C   UNL     1       0.719   6.557  -2.783  0.00  0.00    +0.163 A 
ATOM     18  N   UNL     1      -0.246   5.932  -2.135  0.00  0.00    -0.225 NA
ATOM     19  N   UNL     1       1.278   6.267  -4.019  0.00  0.00    -0.299 N 
ATOM     20  H   UNL     1       0.909   5.409  -4.601  0.00  0.00    +0.154 HD
BRANCH  14  24
ATOM     21  C   UNL     1      -3.791   4.303   1.084  0.00  0.00    +0.162 A 
ATOM     22  C   UNL     1      -3.270   5.474   1.613  0.00  0.00    +0.050 A 
ATOM     23  C   UNL     1      -2.256   6.141   0.956  0.00  0.00    +0.014 A 
ATOM     24  C   UNL     1      -1.754   5.637  -0.243  0.00  0.00    +0.005 A 
ATOM     25  C   UNL     1      -2.273   4.458  -0.773  0.00  0.00    +0.059 A 
ATOM     26  C   UNL     1      -3.293   3.796  -0.113  0.00  0.00    +0.162 A 
BRANCH  21  28
ATOM     27  C   UNL     1      -5.253   4.226   2.958  0.00  0.00    +0.277 C 
ATOM     28  O   UNL     1      -4.790   3.649   1.736  0.00  0.00    -0.491 OA
ENDBRANCH  21  28
BRANCH  26  29
ATOM     29  O   UNL     1      -3.805   2.647  -0.630  0.00  0.00    -0.491 OA
ATOM     30  C   UNL     1      -3.246   2.184  -1.861  0.00  0.00    +0.277 C 
ENDBRANCH  26  29
ENDBRANCH  14  24
ENDBRANCH   1  19
BRANCH  11  31
ATOM     31  C   UNL     1       4.787   8.354  -8.502  0.00  0.00    +0.152 C 
BRANCH  31  32
ATOM     32  C   UNL     1       6.210   8.590  -8.064  0.00  0.00    -0.030 A 
ATOM     33  C   UNL     1       6.488   9.537  -7.096  0.00  0.00    +0.005 A 
ATOM     34  C   UNL     1       7.792   9.749  -6.691  0.00  0.00    +0.000 A 
ATOM     35  C   UNL     1       8.820   9.022  -7.261  0.00  0.00    +0.000 A 
ATOM     36  C   UNL     1       8.543   8.078  -8.232  0.00  0.00    +0.000 A 
ATOM     37  C   UNL     1       7.238   7.862  -8.634  0.00  0.00    +0.005 A 
ENDBRANCH  31  32
ENDBRANCH  11  31
TORSDOF 6
