REMARK  Name = ZINC63572413
REMARK  4 active torsions:
REMARK  status: ('A' for Active; 'I' for Inactive)
REMARK    1  A    between atoms: C_1  and  C_2
REMARK    2  A    between atoms: C_5  and  C_34
REMARK    3  A    between atoms: C_6  and  N_8
REMARK    4  A    between atoms: C_24  and  C_26
REMARK                            x       y       z     vdW  Elec       q    Type
REMARK                         _______ _______ _______ _____ _____    ______ ____
ROOT
ATOM      1  N   UNL     1      -0.058  -3.116   2.478  0.00  0.00    -0.269 N 
ATOM      2  C   UNL     1       0.097  -2.354   3.579  0.00  0.00    +0.307 C 
ATOM      3  O   UNL     1       0.143  -1.143   3.478  0.00  0.00    -0.252 OA
ATOM      4  N   UNL     1       0.202  -2.934   4.791  0.00  0.00    -0.276 N 
ATOM      5  C   UNL     1       0.261  -4.396   4.893  0.00  0.00    +0.114 C 
ATOM      6  C   UNL     1      -0.890  -4.894   5.787  0.00  0.00    +0.052 C 
ATOM      7  C   UNL     1      -0.915  -3.997   7.000  0.00  0.00    -0.035 C 
ATOM      8  C   UNL     1      -0.909  -4.275   8.298  0.00  0.00    +0.001 A 
ATOM      9  C   UNL     1      -0.988  -5.552   9.026  0.00  0.00    +0.030 A 
ATOM     10  C   UNL     1      -0.935  -5.473  10.383  0.00  0.00    +0.042 A 
ATOM     11  C   UNL     1      -0.813  -4.265  11.079  0.00  0.00    +0.022 A 
ATOM     12  C   UNL     1      -0.743  -3.044  10.490  0.00  0.00    +0.027 A 
ATOM     13  C   UNL     1      -0.797  -2.998   9.066  0.00  0.00    +0.043 A 
ATOM     14  N   UNL     1      -0.774  -1.981   8.256  0.00  0.00    -0.375 N 
ATOM     15  C   UNL     1      -0.930  -2.477   6.888  0.00  0.00    +0.131 C 
ATOM     16  C   UNL     1       0.261  -2.093   5.997  0.00  0.00    +0.134 C 
ATOM     17 CL   UNL     1      -1.024  -6.945  11.298  0.00  0.00    -0.084 Cl
ATOM     18  H   UNL     1      -0.162  -4.077   2.564  0.00  0.00    +0.156 HD
ATOM     19  H   UNL     1      -0.671  -1.052   8.515  0.00  0.00    +0.160 HD
ENDROOT
BRANCH   1  25
ATOM     20  C   UNL     1      -1.048   0.771  -0.364  0.00  0.00    +0.044 C 
ATOM     21  C   UNL     1      -0.544  -0.638  -0.195  0.00  0.00    -0.049 A 
ATOM     22  C   UNL     1      -0.091  -1.346  -1.294  0.00  0.00    +0.004 A 
ATOM     23  C   UNL     1       0.373  -2.640  -1.143  0.00  0.00    +0.005 A 
ATOM     24  C   UNL     1       0.385  -3.230   0.106  0.00  0.00    -0.029 A 
ATOM     25  C   UNL     1      -0.069  -2.522   1.211  0.00  0.00    +0.038 A 
ATOM     26  C   UNL     1      -0.529  -1.220   1.057  0.00  0.00    +0.027 A 
ATOM     27  C   UNL     1       0.890  -4.640   0.270  0.00  0.00    +0.045 C 
ENDBRANCH   1  25
BRANCH  16  28
ATOM     28  C   UNL     1       1.554  -2.345   6.731  0.00  0.00    -0.025 A 
ATOM     29  C   UNL     1       2.430  -1.301   6.964  0.00  0.00    +0.008 A 
ATOM     30  C   UNL     1       3.615  -1.530   7.637  0.00  0.00    +0.038 A 
ATOM     31  C   UNL     1       3.924  -2.806   8.078  0.00  0.00    +0.123 A 
ATOM     32  C   UNL     1       3.046  -3.850   7.844  0.00  0.00    +0.038 A 
ATOM     33  C   UNL     1       1.859  -3.618   7.175  0.00  0.00    +0.008 A 
ATOM     34  F   UNL     1       5.082  -3.031   8.736  0.00  0.00    -0.205 F 
ENDBRANCH  16  28
TORSDOF 2
