REMARK  Name = ZINC41428488
REMARK  8 active torsions:
REMARK  status: ('A' for Active; 'I' for Inactive)
REMARK    1  A    between atoms: C_1  and  C_2
REMARK    2  A    between atoms: C_2  and  C_3
REMARK    3  A    between atoms: C_2  and  C_4
REMARK    4  A    between atoms: C_2  and  C_5
REMARK    5  A    between atoms: C_8  and  S_11
REMARK    6  A    between atoms: S_11  and  N_14
REMARK    7  A    between atoms: N_14  and  C_15
REMARK    8  A    between atoms: C_15  and  C_16
REMARK                            x       y       z     vdW  Elec       q    Type
REMARK                         _______ _______ _______ _____ _____    ______ ____
ROOT
ATOM      1  N   UNL     1       2.603  -0.823  -6.145  0.00  0.00    -0.181 NA
ATOM      2  H   UNL     1       2.071  -1.044  -6.925  0.00  0.00    +0.149 HD
ENDROOT
BRANCH   1   3
ATOM      3  S   UNL     1       2.875  -1.965  -4.977  0.00  0.00    +0.059 S 
ATOM      4  O   UNL     1       4.272  -1.955  -4.716  0.00  0.00    -0.153 OA
ATOM      5  O   UNL     1       2.185  -3.138  -5.387  0.00  0.00    -0.153 OA
BRANCH   3   9
ATOM      6  C   UNL     1       0.842  -0.526  -1.197  0.00  0.00    -0.042 A 
ATOM      7  C   UNL     1       0.149  -1.314  -2.097  0.00  0.00    +0.006 A 
ATOM      8  C   UNL     1       0.770  -1.753  -3.252  0.00  0.00    +0.029 A 
ATOM      9  C   UNL     1       2.083  -1.405  -3.506  0.00  0.00    +0.105 A 
ATOM     10  C   UNL     1       2.776  -0.616  -2.606  0.00  0.00    +0.029 A 
ATOM     11  C   UNL     1       2.154  -0.173  -1.454  0.00  0.00    +0.006 A 
BRANCH   6  13
ATOM     12  C   UNL     1       0.147   1.482   0.080  0.00  0.00    +0.015 C 
ATOM     13  C   UNL     1       0.166  -0.047   0.062  0.00  0.00    -0.013 C 
ATOM     14  C   UNL     1       0.933  -0.563   1.281  0.00  0.00    +0.015 C 
ATOM     15  C   UNL     1      -1.270  -0.575   0.101  0.00  0.00    +0.015 C 
ENDBRANCH   6  13
ENDBRANCH   3   9
ENDBRANCH   1   3
BRANCH   1  16
ATOM     16  C   UNL     1       3.167   0.521  -6.000  0.00  0.00    +0.202 C 
BRANCH  16  17
ATOM     17  C   UNL     1       3.100   1.239  -7.323  0.00  0.00    +0.235 C 
ATOM     18  O   UNL     1       2.711   0.654  -8.312  0.00  0.00    -0.274 OA
ATOM     19  N   UNL     1       3.471   2.532  -7.408  0.00  0.00    -0.270 N 
ATOM     20  C   UNL     1       4.024   3.229  -6.238  0.00  0.00    +0.114 C 
ATOM     21  C   UNL     1       3.356   4.608  -6.155  0.00  0.00    +0.024 C 
ATOM     22  C   UNL     1       3.729   5.413  -7.399  0.00  0.00    +0.038 C 
ATOM     23  C   UNL     1       3.450   4.616  -8.646  0.00  0.00    -0.026 A 
ATOM     24  C   UNL     1       3.341   3.234  -8.614  0.00  0.00    +0.039 A 
ATOM     25  C   UNL     1       3.093   2.526  -9.785  0.00  0.00    +0.024 A 
ATOM     26  C   UNL     1       2.959   3.199 -10.984  0.00  0.00    +0.002 A 
ATOM     27  C   UNL     1       3.071   4.577 -11.017  0.00  0.00    +0.000 A 
ATOM     28  C   UNL     1       3.307   5.285  -9.851  0.00  0.00    +0.005 A 
ENDBRANCH  16  17
ENDBRANCH   1  16
TORSDOF 5
