REMARK  Name = ZINC35361437
REMARK  9 active torsions:
REMARK  status: ('A' for Active; 'I' for Inactive)
REMARK    1  A    between atoms: C_1  and  C_2
REMARK    2  A    between atoms: C_13  and  O_15
REMARK    3  A    between atoms: N_21  and  O_22
REMARK    4  A    between atoms: O_22  and  C_23
REMARK    5  A    between atoms: C_23  and  C_24
REMARK    6  A    between atoms: N_26  and  CA_27
REMARK    7  A    between atoms: CA_27  and  C_29
REMARK    8  A    between atoms: CA_27  and  C_35
REMARK    9  A    between atoms: C_40  and  C_41
REMARK                            x       y       z     vdW  Elec       q    Type
REMARK                         _______ _______ _______ _____ _____    ______ ____
ROOT
ATOM      1  C   UNL     1      -0.019   1.524   0.010  0.00  0.00    +0.014 C 
ATOM      2  C   UNL     1       0.002  -0.004   0.002  0.00  0.00    -0.003 C 
ATOM      3  C   UNL     1      -1.401  -0.564  -0.063  0.00  0.00    +0.010 C 
ATOM      4  C   UNL     1      -1.847  -1.002   1.342  0.00  0.00    +0.005 C 
ATOM      5  C   UNL     1      -1.362  -0.006   2.387  0.00  0.00    +0.002 C 
ATOM      6  C   UNL     1       0.144  -0.029   2.523  0.00  0.00    -0.003 C 
ATOM      7  C   UNL     1       0.737  -0.578   1.231  0.00  0.00    +0.001 C 
ATOM      8  C   UNL     1       2.190  -0.153   0.968  0.00  0.00    +0.007 C 
ATOM      9  C   UNL     1       2.349  -0.325  -0.566  0.00  0.00    +0.032 C 
ATOM     10  C   UNL     1       0.921  -0.464  -1.145  0.00  0.00    +0.121 C 
ATOM     11  C   UNL     1       0.637  -0.915   3.662  0.00  0.00    +0.008 C 
ATOM     12  C   UNL     1      -0.019  -0.542   4.983  0.00  0.00    +0.031 C 
ATOM     13  C   UNL     1      -1.521  -0.667   4.816  0.00  0.00    -0.062 C 
ATOM     14  C   UNL     1      -2.184  -1.379   5.721  0.00  0.00    +0.026 C 
ATOM     15  C   UNL     1      -3.647  -1.523   5.646  0.00  0.00    +0.080 C 
ATOM     16  N   UNL     1      -4.278  -2.390   6.377  0.00  0.00    -0.089 NA
ATOM     17  C   UNL     1      -4.393  -0.604   4.701  0.00  0.00    +0.059 C 
ATOM     18  C   UNL     1      -3.591  -0.500   3.405  0.00  0.00    +0.017 C 
ATOM     19  C   UNL     1      -2.176  -0.004   3.653  0.00  0.00    -0.007 C 
ATOM     20  C   UNL     1      -2.316   1.476   4.039  0.00  0.00    +0.016 C 
ENDROOT
BRANCH  10  21
ATOM     21  O   UNL     1       0.755   0.391  -2.275  0.00  0.00    -0.391 OA
ATOM     22  H   UNL     1       1.307   0.153  -3.033  0.00  0.00    +0.210 HD
ENDBRANCH  10  21
BRANCH  16  23
ATOM     23  O   UNL     1      -3.559  -3.221   7.269  0.00  0.00    -0.384 OA
BRANCH  23  24
ATOM     24  C   UNL     1      -4.380  -4.127   8.009  0.00  0.00    +0.358 C 
BRANCH  24  25
ATOM     25  C   UNL     1      -3.515  -4.957   8.922  0.00  0.00    +0.254 C 
ATOM     26  O   UNL     1      -2.314  -4.790   8.938  0.00  0.00    -0.272 OA
ATOM     27  N   UNL     1      -4.077  -5.886   9.722  0.00  0.00    -0.296 N 
ATOM     28  H   UNL     1      -5.038  -6.020   9.709  0.00  0.00    +0.150 HD
BRANCH  27  29
ATOM     29  CA  UNL     1      -3.236  -6.694  10.609  0.00  0.00    +0.217 C 
BRANCH  29  30
ATOM     30  C   UNL     1      -4.057  -7.174  11.778  0.00  0.00    -0.016 A 
ATOM     31  C   UNL     1      -5.357  -7.599  11.582  0.00  0.00    +0.006 A 
ATOM     32  C   UNL     1      -6.110  -8.040  12.654  0.00  0.00    +0.000 A 
ATOM     33  C   UNL     1      -5.562  -8.056  13.923  0.00  0.00    +0.000 A 
ATOM     34  C   UNL     1      -4.262  -7.631  14.120  0.00  0.00    +0.000 A 
ATOM     35  C   UNL     1      -3.507  -7.195  13.046  0.00  0.00    +0.006 A 
ENDBRANCH  29  30
BRANCH  29  36
ATOM     36  C   UNL     1      -2.700  -7.880   9.851  0.00  0.00    +0.380 C 
ATOM     37  O   UNL     1      -1.619  -8.357  10.151  0.00  0.00    -0.244 OA
ATOM     38  OXT UNL     1      -3.346  -8.362   8.937  0.00  0.00    -0.244 OA
ENDBRANCH  29  36
ENDBRANCH  27  29
ENDBRANCH  24  25
ENDBRANCH  23  24
ENDBRANCH  16  23
TORSDOF 7
