REMARK  Name = ZINC00529953
REMARK  6 active torsions:
REMARK  status: ('A' for Active; 'I' for Inactive)
REMARK    1  A    between atoms: C_1  and  C_2
REMARK    2  A    between atoms: C_2  and  C_3
REMARK    3  A    between atoms: C_2  and  O_4
REMARK    4  A    between atoms: O_4  and  C_5
REMARK    5  A    between atoms: C_8  and  C_11
REMARK    6  A    between atoms: C_23  and  O_25
REMARK                            x       y       z     vdW  Elec       q    Type
REMARK                         _______ _______ _______ _____ _____    ______ ____
ROOT
ATOM      1  C   UNL     1       6.287  -0.831  -0.944  0.00  0.00    +0.224 C 
ATOM      2  N   UNL     1       6.747  -1.809  -1.946  0.00  0.00    -0.313 N 
ATOM      3  C   UNL     1       6.709  -3.132  -1.568  0.00  0.00    +0.080 A 
ATOM      4  C   UNL     1       6.763  -3.520  -0.224  0.00  0.00    +0.068 A 
ATOM      5  C   UNL     1       6.700  -4.949   0.021  0.00  0.00    -0.023 A 
ATOM      6  C   UNL     1       6.605  -5.707  -1.096  0.00  0.00    -0.005 A 
ATOM      7  S   UNL     1       6.599  -4.543  -2.432  0.00  0.00    -0.078 S 
ATOM      8  C   UNL     1       6.525  -7.200  -1.167  0.00  0.00    +0.043 C 
ATOM      9  C   UNL     1       6.942  -7.772   0.195  0.00  0.00    +0.005 C 
ATOM     10  C   UNL     1       6.198  -7.016   1.299  0.00  0.00    +0.005 C 
ATOM     11  C   UNL     1       6.734  -5.586   1.403  0.00  0.00    +0.037 C 
ATOM     12  C   UNL     1       6.884  -2.445   0.795  0.00  0.00    +0.220 C 
ATOM     13  N   UNL     1       6.683  -1.217   0.405  0.00  0.00    -0.223 NA
ATOM     14  H   UNL     1       7.058  -1.536  -2.823  0.00  0.00    +0.149 HD
ENDROOT
BRANCH   1  18
ATOM     15  C   UNL     1       2.026  -0.553  -1.118  0.00  0.00    +0.121 A 
ATOM     16  C   UNL     1       2.690  -0.309   0.075  0.00  0.00    +0.046 A 
ATOM     17  C   UNL     1       4.067  -0.400   0.129  0.00  0.00    +0.011 A 
ATOM     18  C   UNL     1       4.784  -0.733  -1.005  0.00  0.00    -0.005 A 
ATOM     19  C   UNL     1       4.125  -0.976  -2.196  0.00  0.00    +0.011 A 
ATOM     20  C   UNL     1       2.747  -0.893  -2.253  0.00  0.00    +0.046 A 
BRANCH  15  21
ATOM     21  O   UNL     1       0.671  -0.465  -1.174  0.00  0.00    -0.489 OA
BRANCH  21  23
ATOM     22  C   UNL     1      -0.044   1.273   0.345  0.00  0.00    +0.051 C 
ATOM     23  C   UNL     1      -0.015  -0.229   0.058  0.00  0.00    +0.167 C 
ATOM     24  C   UNL     1      -1.447  -0.757  -0.047  0.00  0.00    +0.051 C 
ENDBRANCH  21  23
ENDBRANCH  15  21
ENDBRANCH   1  18
BRANCH  12  25
ATOM     25  O   UNL     1       7.192  -2.731   2.081  0.00  0.00    -0.492 OA
ATOM     26  H   UNL     1       7.244  -1.954   2.655  0.00  0.00    +0.294 HD
ENDBRANCH  12  25
TORSDOF 4
