REMARK  Name = ZINC36027063
REMARK  9 active torsions:
REMARK  status: ('A' for Active; 'I' for Inactive)
REMARK    1  A    between atoms: C_1  and  C_2
REMARK    2  A    between atoms: C_2  and  C_3
REMARK    3  A    between atoms: C_2  and  N_4
REMARK    4  A    between atoms: N_4  and  C_5
REMARK    5  A    between atoms: C_5  and  N_7
REMARK    6  A    between atoms: C_14  and  C_26
REMARK    7  A    between atoms: N_18  and  C_19
REMARK    8  A    between atoms: C_19  and  C_20
REMARK    9  A    between atoms: C_26  and  C_27
REMARK                            x       y       z     vdW  Elec       q    Type
REMARK                         _______ _______ _______ _____ _____    ______ ____
ROOT
ATOM      1  N   UNL     1       2.366  -1.171  -2.502  0.00  0.00    -0.313 N 
ATOM      2  C   UNL     1       1.732  -1.623  -3.748  0.00  0.00    +0.107 C 
ATOM      3  C   UNL     1       2.417  -0.930  -4.930  0.00  0.00    +0.025 C 
ATOM      4  C   UNL     1       3.923  -1.175  -4.857  0.00  0.00    +0.006 C 
ATOM      5  C   UNL     1       4.492  -0.606  -3.559  0.00  0.00    +0.025 C 
ATOM      6  C   UNL     1       3.825  -1.291  -2.367  0.00  0.00    +0.107 C 
ATOM      7  N   UNL     1       4.589  -0.541  -6.015  0.00  0.00    +0.401 N 
ATOM      8  C   UNL     1       4.636  -1.633  -7.016  0.00  0.00    +0.023 C 
ATOM      9  C   UNL     1       4.623  -2.907  -6.199  0.00  0.00    +0.201 C 
ATOM     10  O   UNL     1       4.932  -4.009  -6.599  0.00  0.00    -0.277 OA
ATOM     11  N   UNL     1       4.209  -2.610  -4.949  0.00  0.00    -0.311 N 
ATOM     12  H   UNL     1       4.043   0.235  -6.359  0.00  0.00    -0.082 HD
ATOM     13  H   UNL     1       5.521  -0.241  -5.770  0.00  0.00    -0.082 HD
ENDROOT
BRANCH   1  14
ATOM     14  C   UNL     1       1.625  -0.650  -1.504  0.00  0.00    +0.133 C 
ATOM     15  S   UNL     1       2.392   0.002  -0.119  0.00  0.00    -0.019 S 
BRANCH  14  16
ATOM     16  N   UNL     1       0.281  -0.643  -1.596  0.00  0.00    -0.324 N 
ATOM     17  H   UNL     1      -0.151  -0.946  -2.410  0.00  0.00    +0.148 HD
BRANCH  16  19
ATOM     18  C   UNL     1      -0.662   1.345  -0.530  0.00  0.00    +0.027 C 
ATOM     19  C   UNL     1      -0.528  -0.177  -0.467  0.00  0.00    +0.066 C 
ATOM     20  C   UNL     1      -1.918  -0.815  -0.538  0.00  0.00    +0.027 C 
ENDBRANCH  16  19
ENDBRANCH  14  16
ENDBRANCH   1  14
BRANCH  11  21
ATOM     21  C   UNL     1       4.067  -3.572  -3.854  0.00  0.00    +0.137 C 
BRANCH  21  22
ATOM     22  C   UNL     1       5.397  -3.695  -3.108  0.00  0.00    +0.136 C 
ATOM     23  C   UNL     1       5.257  -4.676  -1.917  0.00  0.00    +0.035 C 
ATOM     24  C   UNL     1       6.729  -5.139  -1.742  0.00  0.00    +0.031 C 
ATOM     25  C   UNL     1       7.247  -5.140  -3.196  0.00  0.00    +0.160 C 
ATOM     26  O   UNL     1       6.396  -4.277  -3.961  0.00  0.00    -0.375 OA
ENDBRANCH  21  22
ENDBRANCH  11  21
BRANCH   8  27
ATOM     27  C   UNL     1       5.919  -1.542  -7.845  0.00  0.00    +0.028 C 
BRANCH  27  28
ATOM     28  C   UNL     1       5.903  -0.272  -8.656  0.00  0.00    -0.048 A 
ATOM     29  C   UNL     1       5.353  -0.269  -9.924  0.00  0.00    +0.003 A 
ATOM     30  C   UNL     1       5.338   0.896 -10.668  0.00  0.00    +0.000 A 
ATOM     31  C   UNL     1       5.875   2.057 -10.145  0.00  0.00    +0.000 A 
ATOM     32  C   UNL     1       6.425   2.054  -8.876  0.00  0.00    +0.000 A 
ATOM     33  C   UNL     1       6.435   0.890  -8.130  0.00  0.00    +0.003 A 
ENDBRANCH  27  28
ENDBRANCH   8  27
TORSDOF 7
