REMARK  Name = ZINC59018352
REMARK  9 active torsions:
REMARK  status: ('A' for Active; 'I' for Inactive)
REMARK    1  A    between atoms: C_1  and  C_2
REMARK    2  A    between atoms: C_3  and  C_12
REMARK    3  A    between atoms: C_5  and  C_7
REMARK    4  A    between atoms: C_12  and  C_13
REMARK    5  A    between atoms: C_13  and  O_15
REMARK    6  A    between atoms: O_15  and  C_16
REMARK    7  A    between atoms: C_16  and  C_18
REMARK    8  A    between atoms: C_16  and  C_19
REMARK    9  A    between atoms: N_21  and  C_22
REMARK                            x       y       z     vdW  Elec       q    Type
REMARK                         _______ _______ _______ _____ _____    ______ ____
ROOT
ATOM      1  O   UNL     1      -4.269   0.180  -1.641  0.00  0.00    -0.452 OA
ENDROOT
BRANCH   1   2
ATOM      2  C   UNL     1      -3.002  -0.193  -1.402  0.00  0.00    +0.314 C 
ATOM      3  O   UNL     1      -2.252  -0.411  -2.324  0.00  0.00    -0.250 OA
BRANCH   2   4
ATOM      4  C   UNL     1      -2.515  -0.341   0.017  0.00  0.00    +0.179 C 
BRANCH   4   7
ATOM      5  C   UNL     1      -0.036   1.560   0.016  0.00  0.00    +0.088 C 
ATOM      6  C   UNL     1      -0.004   0.054   0.010  0.00  0.00    +0.126 A 
ATOM      7  C   UNL     1      -1.070  -0.766   0.010  0.00  0.00    +0.093 A 
ATOM      8  N   UNL     1      -0.618  -2.030   0.003  0.00  0.00    -0.213 NA
ATOM      9  C   UNL     1       0.697  -2.006  -0.001  0.00  0.00    +0.234 A 
ATOM     10  O   UNL     1       1.100  -0.722  -0.003  0.00  0.00    -0.440 OA
BRANCH   9  11
ATOM     11  C   UNL     1       1.578  -3.183  -0.009  0.00  0.00    +0.074 A 
ATOM     12  C   UNL     1       2.959  -3.238  -0.008  0.00  0.00    +0.021 A 
ATOM     13  C   UNL     1       3.565  -4.473  -0.017  0.00  0.00    +0.008 A 
ATOM     14  C   UNL     1       2.794  -5.591  -0.025  0.00  0.00    +0.046 A 
ATOM     15  S   UNL     1       1.143  -4.914  -0.014  0.00  0.00    -0.092 S 
ENDBRANCH   9  11
ENDBRANCH   4   7
ENDBRANCH   2   4
ENDBRANCH   1   2
BRANCH   1  16
ATOM     16  C   UNL     1      -4.662   0.300  -3.010  0.00  0.00    +0.259 C 
ATOM     17  C   UNL     1      -4.396   1.727  -3.494  0.00  0.00    +0.062 C 
BRANCH  16  18
ATOM     18  C   UNL     1      -6.132  -0.008  -3.139  0.00  0.00    +0.258 C 
ATOM     19  O   UNL     1      -6.798  -0.212  -2.146  0.00  0.00    -0.271 OA
ATOM     20  N   UNL     1      -6.706  -0.056  -4.357  0.00  0.00    -0.281 N 
ATOM     21  H   UNL     1      -6.189   0.171  -5.146  0.00  0.00    +0.155 HD
BRANCH  20  22
ATOM     22  C   UNL     1      -8.048  -0.434  -4.484  0.00  0.00    +0.052 A 
ATOM     23  C   UNL     1      -8.966  -0.080  -3.504  0.00  0.00    +0.026 A 
ATOM     24  C   UNL     1     -10.290  -0.454  -3.632  0.00  0.00    +0.022 A 
ATOM     25  C   UNL     1     -10.702  -1.180  -4.735  0.00  0.00    +0.042 A 
ATOM     26  C   UNL     1      -9.790  -1.534  -5.714  0.00  0.00    +0.041 A 
ATOM     27  C   UNL     1      -8.466  -1.158  -5.595  0.00  0.00    +0.064 A 
ATOM     28 CL   UNL     1      -7.323  -1.596  -6.826  0.00  0.00    -0.082 Cl
ATOM     29 CL   UNL     1     -12.366  -1.649  -4.891  0.00  0.00    -0.083 Cl
ENDBRANCH  20  22
ENDBRANCH  16  18
ENDBRANCH   1  16
TORSDOF 7
