REMARK  Name = ZINC20686806
REMARK  8 active torsions:
REMARK  status: ('A' for Active; 'I' for Inactive)
REMARK    1  A    between atoms: C_1  and  C_2
REMARK    2  A    between atoms: C_2  and  C_3
REMARK    3  A    between atoms: C_3  and  O_4
REMARK    4  A    between atoms: O_4  and  C_5
REMARK    5  A    between atoms: C_18  and  C_21
REMARK    6  A    between atoms: C_24  and  N_27
REMARK    7  A    between atoms: N_27  and  C_28
REMARK    8  A    between atoms: N_27  and  C_29
REMARK                            x       y       z     vdW  Elec       q    Type
REMARK                         _______ _______ _______ _____ _____    ______ ____
ROOT
ATOM      1  C   UNL     1      -2.753  -8.546   0.258  0.00  0.00    +0.121 A 
ATOM      2  C   UNL     1      -3.125  -7.763   1.341  0.00  0.00    +0.047 A 
ATOM      3  C   UNL     1      -2.534  -6.532   1.540  0.00  0.00    +0.027 A 
ATOM      4  C   UNL     1      -1.563  -6.068   0.662  0.00  0.00    +0.032 A 
ATOM      5  C   UNL     1      -1.182  -6.867  -0.421  0.00  0.00    -0.016 A 
ATOM      6  C   UNL     1      -1.781  -8.092  -0.620  0.00  0.00    +0.051 A 
ATOM      7  C   UNL     1      -0.124  -6.347  -1.314  0.00  0.00    +0.049 C 
ATOM      8  C   UNL     1      -0.035  -6.743  -2.743  0.00  0.00    -0.023 C 
ATOM      9  C   UNL     1       0.480  -5.732  -3.432  0.00  0.00    -0.030 C 
ATOM     10  C   UNL     1       0.749  -4.548  -2.501  0.00  0.00    +0.033 C 
ATOM     11  C   UNL     1      -0.286  -4.800  -1.402  0.00  0.00    +0.029 C 
ATOM     12  C   UNL     1       0.060  -4.278  -0.019  0.00  0.00    +0.105 C 
ATOM     13  N   UNL     1      -0.988  -4.807   0.880  0.00  0.00    -0.336 N 
ATOM     14  H   UNL     1      -1.329  -4.210   1.739  0.00  0.00    +0.147 HD
ENDROOT
BRANCH  12  15
ATOM     15  C   UNL     1       0.040  -2.771  -0.012  0.00  0.00    -0.027 A 
ATOM     16  C   UNL     1       1.229  -2.065  -0.020  0.00  0.00    +0.007 A 
ATOM     17  C   UNL     1       1.214  -0.684  -0.013  0.00  0.00    +0.023 A 
ATOM     18  C   UNL     1       0.002  -0.004   0.002  0.00  0.00    +0.029 A 
ATOM     19  C   UNL     1      -1.190  -0.717   0.015  0.00  0.00    +0.023 A 
ATOM     20  C   UNL     1      -1.168  -2.097   0.003  0.00  0.00    +0.007 A 
BRANCH  18  21
ATOM     21  N   UNL     1      -0.017   1.393   0.010  0.00  0.00    -0.336 N 
ATOM     22  C   UNL     1       1.242   2.142   0.002  0.00  0.00    +0.129 C 
ATOM     23  C   UNL     1      -1.295   2.108   0.020  0.00  0.00    +0.129 C 
ENDBRANCH  18  21
ENDBRANCH  12  15
BRANCH   1  24
ATOM     24  O   UNL     1      -3.341  -9.756   0.059  0.00  0.00    -0.492 OA
BRANCH  24  25
ATOM     25  C   UNL     1      -4.334 -10.159   1.004  0.00  0.00    +0.229 C 
BRANCH  25  27
ATOM     26  C   UNL     1      -5.940 -11.967   1.629  0.00  0.00    +0.007 C 
ATOM     27  C   UNL     1      -4.877 -11.536   0.618  0.00  0.00    +0.038 C 
ENDBRANCH  25  27
ENDBRANCH  24  25
ENDBRANCH   1  24
TORSDOF 5
