REMARK  Name = ZINC43596620
REMARK  5 active torsions:
REMARK  status: ('A' for Active; 'I' for Inactive)
REMARK    1  A    between atoms: C_3  and  N_11
REMARK    2  A    between atoms: C_6  and  N_7
REMARK    3  A    between atoms: N_11  and  C_12
REMARK    4  A    between atoms: N_15  and  C_18
REMARK    5  A    between atoms: C_18  and  C_19
REMARK                            x       y       z     vdW  Elec       q    Type
REMARK                         _______ _______ _______ _____ _____    ______ ____
ROOT
ATOM      1  C   UNL     1       3.564   3.589  -0.014  0.00  0.00    +0.067 C 
ATOM      2  C   UNL     1       3.427   4.106  -1.448  0.00  0.00    +0.003 C 
ATOM      3  C   UNL     1       3.489   5.635  -1.441  0.00  0.00    -0.076 C 
ATOM      4  N   UNL     1       4.772   6.075  -0.881  0.00  0.00    +0.385 N 
ATOM      5  C   UNL     1       4.879   5.643   0.518  0.00  0.00    -0.076 C 
ATOM      6  C   UNL     1       4.871   4.114   0.586  0.00  0.00    +0.003 C 
ATOM      7  H   UNL     1       5.527   5.671  -1.415  0.00  0.00    -0.081 HD
ENDROOT
BRANCH   1   8
ATOM      8  N   UNL     1       3.582   2.124  -0.021  0.00  0.00    -0.340 N 
ATOM      9  H   UNL     1       4.428   1.649  -0.032  0.00  0.00    +0.146 HD
BRANCH   8  12
ATOM     10  C   UNL     1      -0.017   1.378   0.010  0.00  0.00    +0.034 A 
ATOM     11  C   UNL     1       1.169   2.087   0.002  0.00  0.00    +0.026 A 
ATOM     12  C   UNL     1       2.381   1.410  -0.013  0.00  0.00    +0.042 A 
ATOM     13  C   UNL     1       2.397   0.020  -0.021  0.00  0.00    +0.041 A 
ATOM     14  C   UNL     1       1.207  -0.682  -0.013  0.00  0.00    +0.049 A 
ATOM     15  C   UNL     1       0.002  -0.004   0.002  0.00  0.00    +0.127 A 
ATOM     16 BR   UNL     1       4.044  -0.908  -0.042  0.00  0.00    -0.048 Br
BRANCH  15  17
ATOM     17  N   UNL     1      -1.270  -0.760   0.010  0.00  0.00    +0.056 N 
ATOM     18  O   UNL     1      -2.325  -0.168   0.023  0.00  0.00    -0.126 OA
ATOM     19  O   UNL     1      -1.256  -1.969   0.003  0.00  0.00    -0.126 OA
ENDBRANCH  15  17
ENDBRANCH   8  12
ENDBRANCH   1   8
BRANCH   4  20
ATOM     20  C   UNL     1       4.858   7.540  -0.947  0.00  0.00    +0.018 C 
BRANCH  20  21
ATOM     21  C   UNL     1       6.223   7.984  -0.487  0.00  0.00    +0.194 C 
ATOM     22  O   UNL     1       7.043   7.161  -0.137  0.00  0.00    -0.278 OA
ATOM     23  N   UNL     1       6.532   9.296  -0.463  0.00  0.00    -0.331 N 
ATOM     24  H   UNL     1       5.876   9.954  -0.743  0.00  0.00    +0.145 HD
ATOM     25  H   UNL     1       7.410   9.582  -0.167  0.00  0.00    +0.145 HD
ENDBRANCH  20  21
ENDBRANCH   4  20
TORSDOF 5
