REMARK  Name = ZINC02474270
REMARK  4 active torsions:
REMARK  status: ('A' for Active; 'I' for Inactive)
REMARK    1  A    between atoms: C_1  and  C_2
REMARK    2  A    between atoms: C_2  and  C_4
REMARK    3  A    between atoms: C_7  and  N_10
REMARK    4  A    between atoms: C_12  and  C_22
REMARK                            x       y       z     vdW  Elec       q    Type
REMARK                         _______ _______ _______ _____ _____    ______ ____
ROOT
ATOM      1  N   UNL     1      -1.295   7.056   2.168  0.00  0.00    -0.325 N 
ATOM      2  C   UNL     1      -0.729   7.925   1.352  0.00  0.00    +0.212 A 
ATOM      3  C   UNL     1      -0.778   9.373   1.628  0.00  0.00    +0.097 A 
ATOM      4  C   UNL     1       0.237  10.156   1.091  0.00  0.00    +0.030 A 
ATOM      5  C   UNL     1       1.219   9.521   0.286  0.00  0.00    +0.019 A 
ATOM      6  C   UNL     1       2.372  10.216  -0.107  0.00  0.00    +0.026 A 
ATOM      7  C   UNL     1       3.343   9.567  -0.836  0.00  0.00    +0.019 A 
ATOM      8  C   UNL     1       3.181   8.234  -1.192  0.00  0.00    +0.019 A 
ATOM      9  C   UNL     1       2.042   7.544  -0.832  0.00  0.00    +0.048 A 
ATOM     10  C   UNL     1       1.047   8.181  -0.104  0.00  0.00    +0.137 A 
ATOM     11  O   UNL     1      -0.088   7.517   0.229  0.00  0.00    -0.439 OA
ATOM     12 BR   UNL     1       4.905  10.496  -1.358  0.00  0.00    -0.050 Br
ATOM     13  H   UNL     1      -1.885   7.411   3.026  0.00  0.00    +0.169 HD
ENDROOT
BRANCH   1  17
ATOM     14  C   UNL     1      -0.853   3.009   1.500  0.00  0.00    +0.017 A 
ATOM     15  C   UNL     1      -1.978   3.684   1.002  0.00  0.00    +0.013 A 
ATOM     16  C   UNL     1      -2.126   5.020   1.228  0.00  0.00    +0.026 A 
ATOM     17  C   UNL     1      -1.149   5.722   1.948  0.00  0.00    +0.042 A 
ATOM     18  C   UNL     1      -0.023   5.049   2.441  0.00  0.00    +0.026 A 
ATOM     19  C   UNL     1       0.124   3.712   2.220  0.00  0.00    +0.013 A 
BRANCH  14  21
ATOM     20  C   UNL     1      -1.746   0.817   0.489  0.00  0.00    +0.091 C 
ATOM     21  C   UNL     1      -0.696   1.572   1.263  0.00  0.00    +0.160 C 
ATOM     22  O   UNL     1       0.279   0.989   1.690  0.00  0.00    -0.292 OA
ENDBRANCH  14  21
ENDBRANCH   1  17
BRANCH   3  23
ATOM     23  C   UNL     1      -1.856   9.962   2.441  0.00  0.00    +0.247 C 
ATOM     24  O   UNL     1      -2.729   9.251   2.900  0.00  0.00    -0.270 OA
ATOM     25  N   UNL     1      -1.875  11.289   2.676  0.00  0.00    -0.325 N 
ATOM     26  H   UNL     1      -2.679  11.729   3.283  0.00  0.00    +0.145 HD
ATOM     27  H   UNL     1      -1.085  11.932   2.260  0.00  0.00    +0.145 HD
ENDBRANCH   3  23
TORSDOF 3
