REMARK  Name = ZINC32202276
REMARK  12 active torsions:
REMARK  status: ('A' for Active; 'I' for Inactive)
REMARK    1  A    between atoms: C_1  and  N_2
REMARK    2  A    between atoms: N_2  and  C_3
REMARK    3  A    between atoms: N_2  and  C_4
REMARK    4  A    between atoms: C_4  and  C_6
REMARK    5  A    between atoms: C_4  and  C_27
REMARK    6  A    between atoms: C_6  and  N_7
REMARK    7  A    between atoms: C_8  and  C_10
REMARK    8  A    between atoms: C_12  and  N_24
REMARK    9  A    between atoms: C_15  and  S_16
REMARK   10  A    between atoms: S_16  and  C_17
REMARK   11  A    between atoms: C_30  and  O_33
REMARK   12  A    between atoms: O_33  and  C_34
REMARK                            x       y       z     vdW  Elec       q    Type
REMARK                         _______ _______ _______ _____ _____    ______ ____
ROOT
ATOM      1  N   UNL     1       2.865  -1.008  -0.273  0.00  0.00    -0.313 N 
ATOM      2  C   UNL     1       2.680   0.326  -0.240  0.00  0.00    +0.245 C 
ATOM      3  O   UNL     1       3.637   1.075  -0.305  0.00  0.00    -0.270 OA
ATOM      4  H   UNL     1       2.000  -1.685  -0.213  0.00  0.00    +0.149 HD
ENDROOT
BRANCH   2   5
ATOM      5  C   UNL     1       1.319   0.879  -0.125  0.00  0.00    +0.053 A 
ATOM      6  C   UNL     1       0.217   0.024  -0.049  0.00  0.00    +0.047 A 
ATOM      7  C   UNL     1      -1.053   0.547   0.053  0.00  0.00    +0.127 A 
ATOM      8  C   UNL     1      -1.245   1.919   0.093  0.00  0.00    +0.034 A 
ATOM      9  C   UNL     1      -0.168   2.778   0.020  0.00  0.00    +0.018 A 
ATOM     10  C   UNL     1       1.121   2.269  -0.090  0.00  0.00    +0.025 A 
BRANCH   7  11
ATOM     11  N   UNL     1      -2.220  -0.362   0.127  0.00  0.00    +0.056 N 
ATOM     12  O   UNL     1      -2.055  -1.568   0.097  0.00  0.00    -0.126 OA
ATOM     13  O   UNL     1      -3.344   0.097   0.217  0.00  0.00    -0.126 OA
ENDBRANCH   7  11
BRANCH  10  14
ATOM     14  S   UNL     1       2.500   3.363  -0.183  0.00  0.00    -0.086 S 
BRANCH  14  15
ATOM     15  C   UNL     1       3.212   3.289   1.427  0.00  0.00    +0.048 A 
ATOM     16  C   UNL     1       2.686   2.430   2.382  0.00  0.00    +0.018 A 
ATOM     17  C   UNL     1       3.249   2.371   3.642  0.00  0.00    +0.001 A 
ATOM     18  C   UNL     1       4.331   3.174   3.956  0.00  0.00    +0.003 A 
ATOM     19  C   UNL     1       4.856   4.035   3.010  0.00  0.00    +0.039 A 
ATOM     20  C   UNL     1       4.300   4.095   1.745  0.00  0.00    +0.137 A 
ATOM     21  F   UNL     1       4.813   4.936   0.821  0.00  0.00    -0.204 F 
ENDBRANCH  14  15
ENDBRANCH  10  14
ENDBRANCH   2   5
BRANCH   1  22
ATOM     22  C   UNL     1       4.218  -1.558  -0.387  0.00  0.00    +0.094 C 
BRANCH  22  23
ATOM     23  C   UNL     1       4.141  -3.080  -0.518  0.00  0.00    -0.021 C 
BRANCH  23  24
ATOM     24  C   UNL     1       3.548  -3.663   0.739  0.00  0.00    -0.059 A 
ATOM     25  C   UNL     1       4.340  -3.838   1.859  0.00  0.00    +0.005 A 
ATOM     26  C   UNL     1       3.797  -4.367   3.014  0.00  0.00    +0.046 A 
ATOM     27  C   UNL     1       2.459  -4.732   3.046  0.00  0.00    +0.120 A 
ATOM     28  C   UNL     1       1.668  -4.561   1.920  0.00  0.00    +0.046 A 
ATOM     29  C   UNL     1       2.214  -4.026   0.769  0.00  0.00    +0.005 A 
BRANCH  27  30
ATOM     30  O   UNL     1       1.924  -5.258   4.180  0.00  0.00    -0.495 OA
ATOM     31  C   UNL     1       2.797  -5.407   5.301  0.00  0.00    +0.277 C 
ENDBRANCH  27  30
ENDBRANCH  23  24
BRANCH  23  33
ATOM     32  C   UNL     1       5.448  -5.077  -0.925  0.00  0.00    -0.096 C 
ATOM     33  N   UNL     1       5.491  -3.623  -0.719  0.00  0.00    +0.382 N 
ATOM     34  C   UNL     1       6.167  -2.953  -1.838  0.00  0.00    -0.096 C 
ATOM     35  H   UNL     1       6.074  -3.428   0.193  0.00  0.00    -0.082 HD
ENDBRANCH  23  33
ENDBRANCH  22  23
ENDBRANCH   1  22
TORSDOF 9
