REMARK  Name = ZINC31892765
REMARK  7 active torsions:
REMARK  status: ('A' for Active; 'I' for Inactive)
REMARK    1  A    between atoms: C_1  and  C_2
REMARK    2  A    between atoms: C_5  and  N_8
REMARK    3  A    between atoms: N_8  and  C_9
REMARK    4  A    between atoms: N_8  and  S_14
REMARK    5  A    between atoms: C_9  and  C_10
REMARK    6  A    between atoms: S_14  and  C_17
REMARK    7  A    between atoms: C_20  and  N_23
REMARK                            x       y       z     vdW  Elec       q    Type
REMARK                         _______ _______ _______ _____ _____    ______ ____
ROOT
ATOM      1  N   UNL     1       0.369   1.195   0.981  0.00  0.00    -0.194 N 
ENDROOT
BRANCH   1   6
ATOM      2  C   UNL     1      -0.544   0.810   6.564  0.00  0.00    +0.044 C 
ATOM      3  C   UNL     1      -0.301   0.912   5.080  0.00  0.00    -0.050 A 
ATOM      4  C   UNL     1       0.310  -0.130   4.408  0.00  0.00    +0.005 A 
ATOM      5  C   UNL     1       0.534  -0.039   3.048  0.00  0.00    +0.025 A 
ATOM      6  C   UNL     1       0.144   1.100   2.356  0.00  0.00    +0.052 A 
ATOM      7  C   UNL     1      -0.465   2.147   3.035  0.00  0.00    +0.025 A 
ATOM      8  C   UNL     1      -0.691   2.048   4.394  0.00  0.00    +0.005 A 
ENDBRANCH   1   6
BRANCH   1   9
ATOM      9  S   UNL     1      -0.899   1.470  -0.049  0.00  0.00    +0.075 S 
ATOM     10  O   UNL     1      -0.452   1.109  -1.349  0.00  0.00    -0.150 OA
ATOM     11  O   UNL     1      -2.045   0.883   0.553  0.00  0.00    -0.150 OA
BRANCH   9  12
ATOM     12  C   UNL     1      -1.179   3.209  -0.077  0.00  0.00    +0.109 A 
ATOM     13  C   UNL     1      -2.139   3.767   0.747  0.00  0.00    +0.030 A 
ATOM     14  C   UNL     1      -2.357   5.130   0.731  0.00  0.00    +0.024 A 
ATOM     15  C   UNL     1      -1.619   5.940  -0.122  0.00  0.00    +0.025 A 
ATOM     16  C   UNL     1      -0.660   5.376  -0.954  0.00  0.00    +0.024 A 
ATOM     17  C   UNL     1      -0.443   4.013  -0.929  0.00  0.00    +0.030 A 
BRANCH  15  18
ATOM     18  N   UNL     1      -1.841   7.319  -0.145  0.00  0.00    -0.358 N 
ATOM     19  H   UNL     1      -1.256   7.960  -0.822  0.00  0.00    +0.142 HD
ATOM     20  H   UNL     1      -2.601   7.765   0.514  0.00  0.00    +0.142 HD
ENDBRANCH  15  18
ENDBRANCH   9  12
ENDBRANCH   1   9
BRANCH   1  21
ATOM     21  C   UNL     1       1.726   1.052   0.449  0.00  0.00    +0.244 C 
BRANCH  21  22
ATOM     22  C   UNL     1       2.444   2.401   0.511  0.00  0.00    +0.407 C 
ATOM     23  F   UNL     1       2.507   2.835   1.840  0.00  0.00    -0.169 F 
ATOM     24  F   UNL     1       3.740   2.264   0.003  0.00  0.00    -0.169 F 
ATOM     25  F   UNL     1       1.740   3.339  -0.253  0.00  0.00    -0.169 F 
ENDBRANCH  21  22
ENDBRANCH   1  21
TORSDOF 6
