REMARK  Name = ZINC06195789
REMARK  10 active torsions:
REMARK  status: ('A' for Active; 'I' for Inactive)
REMARK    1  A    between atoms: C_1  and  C_2
REMARK    2  A    between atoms: C_5  and  C_41
REMARK    3  A    between atoms: C_6  and  N_8
REMARK    4  A    between atoms: C_13  and  C_15
REMARK    5  A    between atoms: C_13  and  C_29
REMARK    6  A    between atoms: C_13  and  N_76
REMARK    7  A    between atoms: C_18  and  C_28
REMARK    8  A    between atoms: C_20  and  C_27
REMARK    9  A    between atoms: N_33  and  C_34
REMARK   10  A    between atoms: C_34  and  C_35
REMARK                            x       y       z     vdW  Elec       q    Type
REMARK                         _______ _______ _______ _____ _____    ______ ____
ROOT
ATOM      1  C   UNL     1       3.512   0.638  -0.028  0.00  0.00    +0.039 C 
ENDROOT
BRANCH   1   2
ATOM      2  C   UNL     1       4.027   0.263   1.338  0.00  0.00    +0.011 A 
ATOM      3  C   UNL     1       4.726   1.167   2.068  0.00  0.00    +0.018 A 
ATOM      4  C   UNL     1       5.213   0.771   3.390  0.00  0.00    +0.002 A 
ATOM      5  C   UNL     1       5.940   1.660   4.190  0.00  0.00    -0.041 A 
ATOM      6  C   UNL     1       6.380   1.261   5.420  0.00  0.00    +0.007 A 
ATOM      7  C   UNL     1       6.112  -0.020   5.884  0.00  0.00    -0.048 A 
ATOM      8  C   UNL     1       5.398  -0.912   5.114  0.00  0.00    +0.029 A 
ATOM      9  C   UNL     1       4.940  -0.528   3.858  0.00  0.00    +0.050 A 
ATOM     10  N   UNL     1       4.222  -1.399   3.067  0.00  0.00    -0.322 N 
ATOM     11  H   UNL     1       4.035  -2.295   3.390  0.00  0.00    +0.169 HD
ATOM     12  C   UNL     1       3.775  -1.026   1.855  0.00  0.00    +0.251 A 
ATOM     13  O   UNL     1       3.139  -1.821   1.185  0.00  0.00    -0.268 OA
ATOM     14  C   UNL     1       6.607  -0.439   7.244  0.00  0.00    +0.044 C 
ATOM     15  C   UNL     1       6.237   3.053   3.695  0.00  0.00    +0.044 C 
ENDBRANCH   1   2
BRANCH   1  21
ATOM     16  N   UNL     1       5.431  -1.171  -3.327  0.00  0.00    -0.333 N 
ATOM     17  C   UNL     1       3.965  -1.079  -3.349  0.00  0.00    +0.086 C 
ATOM     18  C   UNL     1       3.509  -0.001  -2.364  0.00  0.00    -0.058 C 
ATOM     19  C   UNL     1       5.460  -0.427  -0.995  0.00  0.00    -0.058 C 
ATOM     20  C   UNL     1       5.915  -1.506  -1.981  0.00  0.00    +0.086 C 
ATOM     21  N   UNL     1       3.983  -0.361  -1.010  0.00  0.00    +0.391 N 
ATOM     22  H   UNL     1       3.605  -1.281  -0.758  0.00  0.00    -0.080 HD
BRANCH  16  28
ATOM     23  C   UNL     1       5.520  -5.780  -5.030  0.00  0.00    +0.044 C 
ATOM     24  C   UNL     1       5.948  -4.338  -5.118  0.00  0.00    -0.049 A 
ATOM     25  C   UNL     1       6.797  -3.930  -6.130  0.00  0.00    +0.004 A 
ATOM     26  C   UNL     1       7.193  -2.608  -6.215  0.00  0.00    +0.005 A 
ATOM     27  C   UNL     1       6.742  -1.690  -5.286  0.00  0.00    -0.029 A 
ATOM     28  C   UNL     1       5.889  -2.096  -4.268  0.00  0.00    +0.033 A 
ATOM     29  C   UNL     1       5.497  -3.427  -4.184  0.00  0.00    +0.026 A 
ATOM     30  C   UNL     1       7.174  -0.249  -5.379  0.00  0.00    +0.045 C 
ENDBRANCH  16  28
ENDBRANCH   1  21
BRANCH   1  31
ATOM     31  C   UNL     1       2.005   0.637  -0.014  0.00  0.00    +0.143 A 
ATOM     32  N   UNL     1       1.223  -0.415  -0.012  0.00  0.00    -0.115 NA
ATOM     33  N   UNL     1       0.002  -0.004   0.002  0.00  0.00    -0.023 NA
ATOM     34  N   UNL     1      -0.015   1.283   0.009  0.00  0.00    -0.044 NA
ATOM     35  N   UNL     1       1.200   1.716  -0.000  0.00  0.00    -0.228 N 
BRANCH  35  36
ATOM     36  C   UNL     1       1.625   3.118   0.003  0.00  0.00    +0.178 C 
BRANCH  36  37
ATOM     37  C   UNL     1       1.787   3.599   1.446  0.00  0.00    +0.140 C 
ATOM     38  C   UNL     1       2.288   5.064   1.472  0.00  0.00    +0.035 C 
ATOM     39  C   UNL     1       1.773   5.528   2.862  0.00  0.00    +0.031 C 
ATOM     40  C   UNL     1       0.447   4.749   2.996  0.00  0.00    +0.160 C 
ATOM     41  O   UNL     1       0.512   3.627   2.108  0.00  0.00    -0.375 OA
ENDBRANCH  36  37
ENDBRANCH  35  36
ENDBRANCH   1  31
TORSDOF 6
