REMARK  Name = ZINC08940490
REMARK  10 active torsions:
REMARK  status: ('A' for Active; 'I' for Inactive)
REMARK    1  A    between atoms: C_1  and  C_2
REMARK    2  A    between atoms: C_2  and  C_4
REMARK    3  A    between atoms: C_2  and  N_61
REMARK    4  A    between atoms: N_6  and  C_7
REMARK    5  A    between atoms: C_7  and  C_8
REMARK    6  A    between atoms: C_8  and  C_9
REMARK    7  A    between atoms: C_12  and  S_15
REMARK    8  A    between atoms: S_15  and  N_18
REMARK    9  A    between atoms: N_22  and  C_25
REMARK   10  A    between atoms: C_28  and  C_30
REMARK                            x       y       z     vdW  Elec       q    Type
REMARK                         _______ _______ _______ _____ _____    ______ ____
ROOT
ATOM      1  C   UNL     1      -5.930   3.393   8.813  0.00  0.00    -0.004 C 
ATOM      2  C   UNL     1      -4.409   3.425   8.653  0.00  0.00    +0.016 C 
ENDROOT
BRANCH   2   9
ATOM      3  C   UNL     1      -4.704   1.503   7.194  0.00  0.00    -0.076 C 
ATOM      4  C   UNL     1      -6.100   1.622   6.639  0.00  0.00    +0.000 C 
ATOM      5  C   UNL     1      -6.039   1.506   5.100  0.00  0.00    +0.104 C 
ATOM      6  N   UNL     1      -5.564   2.687   4.514  0.00  0.00    -0.318 N 
ATOM      7  C   UNL     1      -4.192   3.061   4.913  0.00  0.00    +0.088 C 
ATOM      8  C   UNL     1      -4.266   3.752   6.251  0.00  0.00    -0.059 C 
ATOM      9  N   UNL     1      -3.991   2.810   7.382  0.00  0.00    +0.388 N 
ATOM     10  H   UNL     1      -2.981   2.628   7.417  0.00  0.00    -0.081 HD
BRANCH   6  11
ATOM     11  C   UNL     1      -5.684   2.640   3.130  0.00  0.00    +0.099 A 
ATOM     12  C   UNL     1      -6.928   2.400   2.554  0.00  0.00    +0.042 A 
ATOM     13  C   UNL     1      -7.035   2.361   1.176  0.00  0.00    +0.017 A 
ATOM     14  C   UNL     1      -5.888   2.553   0.417  0.00  0.00    +0.071 A 
ATOM     15  C   UNL     1      -4.686   2.786   1.054  0.00  0.00    +0.096 A 
ATOM     16  N   UNL     1      -4.545   2.837   2.406  0.00  0.00    -0.349 N 
ATOM     17  H   UNL     1      -3.638   3.012   2.854  0.00  0.00    +0.167 HD
BRANCH  14  18
ATOM     18  C   UNL     1      -5.956   2.514  -1.088  0.00  0.00    +0.419 C 
ATOM     19  F   UNL     1      -4.681   2.740  -1.619  0.00  0.00    -0.166 F 
ATOM     20  F   UNL     1      -6.832   3.506  -1.542  0.00  0.00    -0.166 F 
ATOM     21  F   UNL     1      -6.417   1.259  -1.502  0.00  0.00    -0.166 F 
ENDBRANCH  14  18
ENDBRANCH   6  11
ENDBRANCH   2   9
BRANCH   2  22
ATOM     22  C   UNL     1      -3.769   2.655   9.780  0.00  0.00    +0.199 C 
ATOM     23  O   UNL     1      -3.257   1.577   9.563  0.00  0.00    -0.278 OA
ATOM     24  N   UNL     1      -3.766   3.164  11.027  0.00  0.00    -0.316 N 
ATOM     25  H   UNL     1      -4.175   4.027  11.200  0.00  0.00    +0.149 HD
BRANCH  24  26
ATOM     26  C   UNL     1      -3.144   2.416  12.122  0.00  0.00    +0.109 C 
BRANCH  26  27
ATOM     27  C   UNL     1      -3.276   3.210  13.423  0.00  0.00    +0.054 C 
BRANCH  27  28
ATOM     28  C   UNL     1      -2.637   2.440  14.550  0.00  0.00    -0.046 A 
ATOM     29  C   UNL     1      -3.389   1.551  15.293  0.00  0.00    +0.005 A 
ATOM     30  C   UNL     1      -2.801   0.841  16.324  0.00  0.00    +0.029 A 
ATOM     31  C   UNL     1      -1.463   1.028  16.616  0.00  0.00    +0.105 A 
ATOM     32  C   UNL     1      -0.712   1.921  15.876  0.00  0.00    +0.029 A 
ATOM     33  C   UNL     1      -1.299   2.628  14.843  0.00  0.00    +0.005 A 
BRANCH  31  34
ATOM     34  S   UNL     1      -0.715   0.127  17.933  0.00  0.00    +0.056 S 
ATOM     35  O   UNL     1      -1.496  -1.046  18.118  0.00  0.00    -0.153 OA
ATOM     36  O   UNL     1       0.677   0.078  17.651  0.00  0.00    -0.153 OA
BRANCH  34  37
ATOM     37  N   UNL     1      -0.888   1.034  19.308  0.00  0.00    -0.204 NA
ATOM     38  H   UNL     1      -1.340   1.891  19.269  0.00  0.00    +0.144 HD
ATOM     39  H   UNL     1      -0.538   0.707  20.151  0.00  0.00    +0.144 HD
ENDBRANCH  34  37
ENDBRANCH  31  34
ENDBRANCH  27  28
ENDBRANCH  26  27
ENDBRANCH  24  26
ENDBRANCH   2  22
TORSDOF 9
