REMARK  Name = ZINC66859798
REMARK  3 active torsions:
REMARK  status: ('A' for Active; 'I' for Inactive)
REMARK    1  A    between atoms: C_10  and  C_11
REMARK    2  A    between atoms: C_10  and  O_21
REMARK    3  A    between atoms: C_11  and  N_12
REMARK                            x       y       z     vdW  Elec       q    Type
REMARK                         _______ _______ _______ _____ _____    ______ ____
ROOT
ATOM      1  C   UNL     1       4.671   0.060  -0.987  0.00  0.00    +0.142 C 
ENDROOT
BRANCH   1   2
ATOM      2  N   UNL     1       5.979  -0.599  -0.997  0.00  0.00    -0.326 N 
ATOM      3  C   UNL     1       7.026  -0.050  -1.719  0.00  0.00    +0.125 A 
ATOM      4  C   UNL     1       6.847   1.134  -2.437  0.00  0.00    +0.083 A 
ATOM      5  C   UNL     1       7.920   1.646  -3.143  0.00  0.00    +0.136 A 
ATOM      6  N   UNL     1       9.079   1.002  -3.118  0.00  0.00    -0.203 NA
ATOM      7  C   UNL     1       9.219  -0.120  -2.428  0.00  0.00    +0.216 A 
ATOM      8  N   UNL     1       8.217  -0.640  -1.735  0.00  0.00    -0.200 NA
ATOM      9  N   UNL     1      10.445  -0.762  -2.428  0.00  0.00    -0.327 N 
ATOM     10 CL   UNL     1       7.751   3.115  -4.053  0.00  0.00    -0.062 Cl
ATOM     11  H   UNL     1       6.112  -1.420  -0.498  0.00  0.00    +0.148 HD
ATOM     12  H   UNL     1      11.188  -0.391  -2.928  0.00  0.00    +0.145 HD
ATOM     13  H   UNL     1      10.561  -1.585  -1.926  0.00  0.00    +0.145 HD
ENDBRANCH   1   2
BRANCH   1  23
ATOM     14  C   UNL     1      -0.060   1.293  -0.095  0.00  0.00    +0.000 A 
ATOM     15  C   UNL     1       1.117   2.018  -0.083  0.00  0.00    +0.000 A 
ATOM     16  C   UNL     1       2.328   1.358  -0.066  0.00  0.00    +0.007 A 
ATOM     17  C   UNL     1       2.375  -0.030  -0.064  0.00  0.00    -0.011 A 
ATOM     18  C   UNL     1       1.203  -0.752  -0.081  0.00  0.00    -0.041 A 
ATOM     19  C   UNL     1      -0.015  -0.085  -0.093  0.00  0.00    +0.004 A 
ATOM     20  C   UNL     1       1.179  -2.258  -0.096  0.00  0.00    +0.035 C 
ATOM     21  C   UNL     1       2.527  -2.822   0.349  0.00  0.00    +0.008 C 
ATOM     22  C   UNL     1       3.629  -2.147  -0.474  0.00  0.00    +0.041 C 
ATOM     23  C   UNL     1       3.731  -0.686  -0.038  0.00  0.00    +0.107 C 
BRANCH  23  24
ATOM     24  O   UNL     1       4.258  -0.627   1.289  0.00  0.00    -0.382 OA
ATOM     25  H   UNL     1       4.367   0.272   1.629  0.00  0.00    +0.211 HD
ENDBRANCH  23  24
ENDBRANCH   1  23
TORSDOF 3
