REMARK  Name = ZINC34900325
REMARK  6 active torsions:
REMARK  status: ('A' for Active; 'I' for Inactive)
REMARK    1  A    between atoms: C_4  and  C_7
REMARK    2  A    between atoms: N_9  and  C_10
REMARK    3  A    between atoms: C_16  and  N_18
REMARK    4  A    between atoms: C_19  and  C_21
REMARK    5  A    between atoms: N_24  and  S_27
REMARK    6  A    between atoms: S_27  and  C_30
REMARK                            x       y       z     vdW  Elec       q    Type
REMARK                         _______ _______ _______ _____ _____    ______ ____
ROOT
ATOM      1  N   UNL     1       4.342  -4.013   1.924  0.00  0.00    -0.310 N 
ATOM      2  C   UNL     1       4.578  -5.002   2.809  0.00  0.00    +0.216 C 
ATOM      3  O   UNL     1       5.181  -5.996   2.461  0.00  0.00    -0.276 OA
ATOM      4  H   UNL     1       3.860  -3.219   2.202  0.00  0.00    +0.149 HD
ENDROOT
BRANCH   1  10
ATOM      5  C   UNL     1       4.997  -2.744  -0.061  0.00  0.00    +0.093 C 
ATOM      6  C   UNL     1       5.490  -2.874  -1.504  0.00  0.00    +0.024 C 
ATOM      7  C   UNL     1       4.462  -3.655  -2.325  0.00  0.00    +0.002 C 
ATOM      8  C   UNL     1       4.278  -5.049  -1.721  0.00  0.00    +0.002 C 
ATOM      9  C   UNL     1       3.786  -4.918  -0.279  0.00  0.00    +0.024 C 
ATOM     10  C   UNL     1       4.814  -4.138   0.543  0.00  0.00    +0.093 C 
BRANCH   5  13
ATOM     11  C   UNL     1       3.696  -0.685  -0.037  0.00  0.00    +0.244 C 
ATOM     12  O   UNL     1       4.738  -0.060  -0.044  0.00  0.00    -0.270 OA
ATOM     13  N   UNL     1       3.717  -2.032  -0.045  0.00  0.00    -0.307 N 
ATOM     14  H   UNL     1       2.885  -2.531  -0.039  0.00  0.00    +0.149 HD
BRANCH  11  18
ATOM     15  C   UNL     1      -0.017   1.379   0.010  0.00  0.00    +0.000 A 
ATOM     16  C   UNL     1       1.168   2.094   0.002  0.00  0.00    +0.001 A 
ATOM     17  C   UNL     1       2.377   1.429  -0.013  0.00  0.00    +0.013 A 
ATOM     18  C   UNL     1       2.403   0.034  -0.021  0.00  0.00    +0.037 A 
ATOM     19  C   UNL     1       1.204  -0.681  -0.013  0.00  0.00    +0.013 A 
ATOM     20  C   UNL     1       0.002  -0.004   0.002  0.00  0.00    +0.001 A 
ENDBRANCH  11  18
ENDBRANCH   5  13
ENDBRANCH   1  10
BRANCH   2  21
ATOM     21  C   UNL     1       4.093  -4.874   4.230  0.00  0.00    +0.077 C 
ATOM     22  C   UNL     1       2.570  -4.725   4.237  0.00  0.00    +0.030 C 
ATOM     23  C   UNL     1       2.084  -4.560   5.680  0.00  0.00    +0.110 C 
ATOM     24  N   UNL     1       2.583  -5.687   6.479  0.00  0.00    -0.177 NA
ATOM     25  C   UNL     1       4.024  -5.975   6.471  0.00  0.00    +0.110 C 
ATOM     26  C   UNL     1       4.489  -6.124   5.019  0.00  0.00    +0.030 C 
BRANCH  24  27
ATOM     27  S   UNL     1       1.543  -6.615   7.373  0.00  0.00    +0.061 S 
ATOM     28  O   UNL     1       2.313  -7.203   8.412  0.00  0.00    -0.153 OA
ATOM     29  O   UNL     1       0.402  -5.809   7.634  0.00  0.00    -0.153 OA
BRANCH  27  30
ATOM     30  C   UNL     1       1.001  -7.934   6.338  0.00  0.00    +0.106 A 
ATOM     31  C   UNL     1      -0.127  -7.779   5.554  0.00  0.00    +0.030 A 
ATOM     32  C   UNL     1      -0.552  -8.814   4.742  0.00  0.00    +0.022 A 
ATOM     33  C   UNL     1       0.152 -10.005   4.715  0.00  0.00    +0.041 A 
ATOM     34  C   UNL     1       1.281 -10.159   5.500  0.00  0.00    +0.022 A 
ATOM     35  C   UNL     1       1.708  -9.122   6.307  0.00  0.00    +0.030 A 
ATOM     36 CL   UNL     1      -0.382 -11.305   3.696  0.00  0.00    -0.084 Cl
ENDBRANCH  27  30
ENDBRANCH  24  27
ENDBRANCH   2  21
TORSDOF 6
