REMARK  Name = ZINC16671451
REMARK  9 active torsions:
REMARK  status: ('A' for Active; 'I' for Inactive)
REMARK    1  A    between atoms: C_1  and  C_2
REMARK    2  A    between atoms: C_5  and  C_8
REMARK    3  A    between atoms: C_10  and  C_23
REMARK    4  A    between atoms: N_14  and  N_15
REMARK    5  A    between atoms: C_16  and  C_17
REMARK    6  A    between atoms: C_26  and  O_31
REMARK    7  A    between atoms: C_27  and  O_29
REMARK    8  A    between atoms: O_29  and  C_30
REMARK    9  A    between atoms: O_31  and  C_32
REMARK                            x       y       z     vdW  Elec       q    Type
REMARK                         _______ _______ _______ _____ _____    ______ ____
ROOT
ATOM      1  C   UNL     1       4.671  -2.633  -0.056  0.00  0.00    +0.077 A 
ATOM      2  C   UNL     1       4.710  -4.027  -0.064  0.00  0.00    +0.057 A 
ATOM      3  C   UNL     1       3.501  -4.724  -0.056  0.00  0.00    +0.077 A 
ATOM      4  N   UNL     1       2.359  -4.039  -0.037  0.00  0.00    -0.213 NA
ATOM      5  C   UNL     1       2.362  -2.715  -0.035  0.00  0.00    +0.236 A 
ATOM      6  N   UNL     1       3.489  -2.019  -0.042  0.00  0.00    -0.213 NA
ATOM      7  N   UNL     1       1.154  -2.038  -0.020  0.00  0.00    -0.205 N 
ATOM      8  H   UNL     1       0.320  -2.535  -0.015  0.00  0.00    +0.177 HD
ENDROOT
BRANCH   1  13
ATOM      9  C   UNL     1       9.550   0.426  -0.084  0.00  0.00    +0.044 C 
ATOM     10  C   UNL     1       8.273  -0.374  -0.077  0.00  0.00    -0.050 A 
ATOM     11  C   UNL     1       7.052   0.276  -0.062  0.00  0.00    +0.004 A 
ATOM     12  C   UNL     1       5.880  -0.452  -0.056  0.00  0.00    +0.010 A 
ATOM     13  C   UNL     1       5.927  -1.845  -0.064  0.00  0.00    +0.001 A 
ATOM     14  C   UNL     1       7.160  -2.494  -0.072  0.00  0.00    +0.010 A 
ATOM     15  C   UNL     1       8.326  -1.756  -0.085  0.00  0.00    +0.004 A 
ENDBRANCH   1  13
BRANCH   3  16
ATOM     16  C   UNL     1       3.488  -6.206  -0.063  0.00  0.00    +0.004 A 
ATOM     17  C   UNL     1       4.685  -6.916   0.027  0.00  0.00    +0.014 A 
ATOM     18  C   UNL     1       4.672  -8.295   0.021  0.00  0.00    +0.050 A 
ATOM     19  C   UNL     1       3.470  -8.979  -0.076  0.00  0.00    +0.162 A 
ATOM     20  C   UNL     1       2.271  -8.276  -0.167  0.00  0.00    +0.162 A 
ATOM     21  C   UNL     1       2.278  -6.893  -0.155  0.00  0.00    +0.059 A 
BRANCH  20  22
ATOM     22  O   UNL     1       1.093  -8.949  -0.262  0.00  0.00    -0.491 OA
ATOM     23  C   UNL     1      -0.098  -8.164  -0.352  0.00  0.00    +0.277 C 
ENDBRANCH  20  22
BRANCH  19  24
ATOM     24  O   UNL     1       3.461 -10.338  -0.082  0.00  0.00    -0.491 OA
ATOM     25  C   UNL     1       4.726 -10.996   0.015  0.00  0.00    +0.277 C 
ENDBRANCH  19  24
ENDBRANCH   3  16
BRANCH   7  26
ATOM     26  N   UNL     1       1.135  -0.638  -0.012  0.00  0.00    -0.187 NA
ATOM     27  C   UNL     1       0.002  -0.004   0.002  0.00  0.00    +0.139 C 
BRANCH  27  28
ATOM     28  C   UNL     1      -0.018   1.471   0.010  0.00  0.00    +0.013 A 
ATOM     29  C   UNL     1      -1.234   2.167   0.020  0.00  0.00    +0.012 A 
ATOM     30  C   UNL     1      -1.197   3.550   0.033  0.00  0.00    +0.020 A 
ATOM     31  C   UNL     1       0.027   4.195   0.025  0.00  0.00    +0.111 A 
ATOM     32  N   UNL     1       1.156   3.514   0.010  0.00  0.00    -0.263 NA
ATOM     33  C   UNL     1       1.175   2.197   0.003  0.00  0.00    +0.120 A 
ENDBRANCH  27  28
ENDBRANCH   7  26
TORSDOF 6
