REMARK  Name = ZINC21505427
REMARK  5 active torsions:
REMARK  status: ('A' for Active; 'I' for Inactive)
REMARK    1  A    between atoms: C_1  and  C_2
REMARK    2  A    between atoms: C_2  and  C_4
REMARK    3  A    between atoms: C_2  and  N_15
REMARK    4  A    between atoms: C_13  and  O_14
REMARK    5  A    between atoms: N_15  and  C_16
REMARK                            x       y       z     vdW  Elec       q    Type
REMARK                         _______ _______ _______ _____ _____    ______ ____
ROOT
ATOM      1  C   UNL     1       0.994   7.969   1.510  0.00  0.00    -0.009 C 
ATOM      2  C   UNL     1       1.037   7.537   0.043  0.00  0.00    -0.040 C 
ENDROOT
BRANCH   2   3
ATOM      3  C   UNL     1       0.775   6.056  -0.053  0.00  0.00    -0.020 A 
ATOM      4  C   UNL     1       1.849   5.172  -0.104  0.00  0.00    +0.006 A 
ATOM      5  C   UNL     1       1.649   3.828  -0.192  0.00  0.00    +0.009 A 
ATOM      6  C   UNL     1       0.339   3.319  -0.232  0.00  0.00    -0.014 A 
ATOM      7  C   UNL     1       0.096   1.938  -0.323  0.00  0.00    +0.008 A 
ATOM      8  C   UNL     1      -1.185   1.481  -0.360  0.00  0.00    +0.001 A 
ATOM      9  C   UNL     1      -2.263   2.363  -0.315  0.00  0.00    +0.001 A 
ATOM     10  C   UNL     1      -2.065   3.707  -0.221  0.00  0.00    +0.012 A 
ATOM     11  C   UNL     1      -0.757   4.215  -0.180  0.00  0.00    +0.024 A 
ATOM     12  C   UNL     1      -0.512   5.601  -0.090  0.00  0.00    +0.126 A 
BRANCH  12  13
ATOM     13  O   UNL     1      -1.549   6.476  -0.039  0.00  0.00    -0.506 OA
ATOM     14  H   UNL     1      -2.584   6.105  -0.068  0.00  0.00    +0.292 HD
ENDBRANCH  12  13
ENDBRANCH   2   3
BRANCH   2  15
ATOM     15  N   UNL     1       2.361   7.838  -0.517  0.00  0.00    +0.386 N 
ATOM     16  H   UNL     1       2.757   8.754  -0.052  0.00  0.00    -0.085 HD
ATOM     17  H   UNL     1       3.044   7.000  -0.315  0.00  0.00    -0.085 HD
BRANCH  15  18
ATOM     18  C   UNL     1       2.284   8.043  -1.970  0.00  0.00    -0.048 C 
ATOM     19  C   UNL     1       1.923   9.510  -2.260  0.00  0.00    +0.008 C 
ATOM     20  C   UNL     1       2.154   9.775  -3.775  0.00  0.00    +0.164 C 
ATOM     21  S   UNL     1       3.726   8.851  -4.043  0.00  0.00    -0.033 S 
ATOM     22  O   UNL     1       4.820   9.740  -3.864  0.00  0.00    -0.174 OA
ATOM     23  O   UNL     1       3.622   8.101  -5.245  0.00  0.00    -0.174 OA
ATOM     24  C   UNL     1       3.651   7.700  -2.611  0.00  0.00    +0.150 C 
ENDBRANCH  15  18
ENDBRANCH   2  15
TORSDOF 4
