REMARK  Name = ZINC22073683
REMARK  10 active torsions:
REMARK  status: ('A' for Active; 'I' for Inactive)
REMARK    1  A    between atoms: C_1  and  C_2
REMARK    2  A    between atoms: C_2  and  C_4
REMARK    3  A    between atoms: C_2  and  N_14
REMARK    4  A    between atoms: N_14  and  C_15
REMARK    5  A    between atoms: C_15  and  C_16
REMARK    6  A    between atoms: C_18  and  O_33
REMARK    7  A    between atoms: C_19  and  O_23
REMARK    8  A    between atoms: O_23  and  C_24
REMARK    9  A    between atoms: C_24  and  C_25
REMARK   10  A    between atoms: O_33  and  C_34
REMARK                            x       y       z     vdW  Elec       q    Type
REMARK                         _______ _______ _______ _____ _____    ______ ____
ROOT
ATOM      1  C   UNL     1      -0.367   5.119   0.561  0.00  0.00    -0.059 A 
ATOM      2  C   UNL     1      -0.254   3.751   0.398  0.00  0.00    +0.051 A 
ATOM      3  C   UNL     1      -0.787   2.893   1.346  0.00  0.00    +0.163 A 
ATOM      4  C   UNL     1      -1.427   3.411   2.468  0.00  0.00    +0.181 A 
ATOM      5  C   UNL     1      -1.532   4.784   2.629  0.00  0.00    +0.086 A 
ATOM      6  C   UNL     1      -1.002   5.635   1.675  0.00  0.00    +0.025 A 
ATOM      7 CL   UNL     1      -2.329   5.436   4.027  0.00  0.00    -0.080 Cl
ENDROOT
BRANCH   3   8
ATOM      8  O   UNL     1      -0.682   1.547   1.184  0.00  0.00    -0.491 OA
ATOM      9  C   UNL     1      -0.013   1.086   0.008  0.00  0.00    +0.277 C 
ENDBRANCH   3   8
BRANCH   1  10
ATOM     10  C   UNL     1       0.209   6.050  -0.474  0.00  0.00    -0.046 C 
BRANCH  10  11
ATOM     11  N   UNL     1       1.601   6.365  -0.129  0.00  0.00    +0.384 N 
ATOM     12  H   UNL     1       2.177   5.428  -0.098  0.00  0.00    -0.085 HD
ATOM     13  H   UNL     1       1.620   6.841   0.862  0.00  0.00    -0.085 HD
BRANCH  11  15
ATOM     14  C   UNL     1       1.849   8.718  -0.759  0.00  0.00    -0.013 C 
ATOM     15  C   UNL     1       2.197   7.272  -1.119  0.00  0.00    -0.068 C 
BRANCH  15  16
ATOM     16  C   UNL     1       3.717   7.098  -1.122  0.00  0.00    -0.041 C 
ATOM     17  C   UNL     1       4.064   5.653  -1.482  0.00  0.00    +0.009 C 
ATOM     18  C   UNL     1       5.584   5.479  -1.484  0.00  0.00    -0.010 C 
ATOM     19  C   UNL     1       6.204   6.424  -2.515  0.00  0.00    +0.007 C 
ATOM     20  C   UNL     1       5.857   7.870  -2.155  0.00  0.00    -0.010 C 
ATOM     21  C   UNL     1       4.337   8.044  -2.153  0.00  0.00    +0.009 C 
ATOM     22  C   UNL     1       6.410   8.197  -0.766  0.00  0.00    +0.007 C 
ATOM     23  C   UNL     1       5.790   7.251   0.265  0.00  0.00    -0.010 C 
ATOM     24  C   UNL     1       6.137   5.805  -0.095  0.00  0.00    +0.007 C 
ATOM     25  C   UNL     1       4.270   7.425   0.267  0.00  0.00    +0.009 C 
ENDBRANCH  15  16
ENDBRANCH  11  15
ENDBRANCH  10  11
ENDBRANCH   1  10
BRANCH   4  26
ATOM     26  O   UNL     1      -1.947   2.573   3.405  0.00  0.00    -0.482 OA
BRANCH  26  27
ATOM     27  C   UNL     1      -1.087   2.184   4.477  0.00  0.00    +0.266 C 
BRANCH  27  28
ATOM     28  C   UNL     1      -1.831   1.262   5.409  0.00  0.00    +0.008 A 
ATOM     29  C   UNL     1      -3.145   0.925   5.144  0.00  0.00    +0.010 A 
ATOM     30  C   UNL     1      -3.827   0.079   5.997  0.00  0.00    +0.020 A 
ATOM     31  C   UNL     1      -3.195  -0.431   7.117  0.00  0.00    +0.042 A 
ATOM     32  C   UNL     1      -1.880  -0.095   7.383  0.00  0.00    +0.040 A 
ATOM     33  C   UNL     1      -1.196   0.748   6.525  0.00  0.00    +0.049 A 
ATOM     34 CL   UNL     1       0.457   1.166   6.854  0.00  0.00    -0.083 Cl
ATOM     35 CL   UNL     1      -4.053  -1.494   8.189  0.00  0.00    -0.083 Cl
ENDBRANCH  27  28
ENDBRANCH  26  27
ENDBRANCH   4  26
TORSDOF 8
