REMARK  Name = ZINC10058633
REMARK  11 active torsions:
REMARK  status: ('A' for Active; 'I' for Inactive)
REMARK    1  A    between atoms: C_1  and  C_2
REMARK    2  A    between atoms: C_6  and  C_32
REMARK    3  A    between atoms: C_7  and  N_8
REMARK    4  A    between atoms: C_9  and  C_11
REMARK    5  A    between atoms: C_11  and  S_12
REMARK    6  A    between atoms: S_12  and  C_13
REMARK    7  A    between atoms: N_26  and  C_27
REMARK    8  A    between atoms: C_27  and  C_28
REMARK    9  A    between atoms: C_28  and  C_29
REMARK   10  A    between atoms: C_29  and  C_30
REMARK   11  A    between atoms: C_29  and  C_31
REMARK                            x       y       z     vdW  Elec       q    Type
REMARK                         _______ _______ _______ _____ _____    ______ ____
ROOT
ATOM      1  C   UNL     1       0.611   1.990  -1.681  0.00  0.00    +0.198 A 
ATOM      2  N   UNL     1      -0.311   1.481  -0.901  0.00  0.00    -0.120 NA
ATOM      3  N   UNL     1      -0.334   0.096  -1.103  0.00  0.00    -0.109 NA
ATOM      4  C   UNL     1       0.578  -0.201  -2.002  0.00  0.00    +0.240 A 
ATOM      5  N   UNL     1       1.185   0.965  -2.382  0.00  0.00    -0.256 N 
ATOM      6  C   UNL     1       2.203   0.955  -3.334  0.00  0.00    +0.064 A 
ATOM      7  C   UNL     1       2.825   2.131  -3.726  0.00  0.00    +0.027 A 
ATOM      8  C   UNL     1       3.831   2.094  -4.671  0.00  0.00    +0.002 A 
ATOM      9  C   UNL     1       4.226   0.891  -5.233  0.00  0.00    +0.001 A 
ATOM     10  C   UNL     1       3.619  -0.288  -4.855  0.00  0.00    +0.015 A 
ATOM     11  C   UNL     1       2.602  -0.264  -3.902  0.00  0.00    +0.064 A 
ATOM     12  C   UNL     1       1.927  -1.502  -3.471  0.00  0.00    +0.263 A 
ATOM     13  O   UNL     1       2.247  -2.577  -3.941  0.00  0.00    -0.267 OA
ATOM     14  N   UNL     1       0.949  -1.421  -2.546  0.00  0.00    -0.277 N 
ENDROOT
BRANCH   1  15
ATOM     15  S   UNL     1       1.036   3.696  -1.805  0.00  0.00    -0.076 S 
BRANCH  15  16
ATOM     16  C   UNL     1      -0.080   4.513  -0.631  0.00  0.00    +0.173 C 
BRANCH  16  18
ATOM     17  N   UNL     1      -0.533   6.812   0.161  0.00  0.00    -0.284 N 
ATOM     18  C   UNL     1       0.183   5.997  -0.639  0.00  0.00    +0.228 C 
ATOM     19  O   UNL     1       1.039   6.458  -1.364  0.00  0.00    -0.275 OA
ATOM     20  H   UNL     1      -1.253   6.451   0.702  0.00  0.00    +0.155 HD
BRANCH  17  27
ATOM     21  C   UNL     1       2.155   7.590   0.674  0.00  0.00    +0.045 C 
ATOM     22  C   UNL     1       1.060   8.602   0.458  0.00  0.00    -0.029 A 
ATOM     23  C   UNL     1       1.349   9.952   0.502  0.00  0.00    +0.005 A 
ATOM     24  C   UNL     1       0.344  10.882   0.309  0.00  0.00    +0.001 A 
ATOM     25  C   UNL     1      -0.952  10.464   0.068  0.00  0.00    +0.005 A 
ATOM     26  C   UNL     1      -1.246   9.115   0.018  0.00  0.00    -0.029 A 
ATOM     27  C   UNL     1      -0.239   8.179   0.211  0.00  0.00    +0.039 A 
ATOM     28  C   UNL     1      -2.659   8.660  -0.246  0.00  0.00    +0.045 C 
ENDBRANCH  17  27
ENDBRANCH  16  18
ENDBRANCH  15  16
ENDBRANCH   1  15
BRANCH  14  29
ATOM     29  C   UNL     1       0.270  -2.643  -2.107  0.00  0.00    +0.128 C 
BRANCH  29  30
ATOM     30  C   UNL     1      -0.945  -2.900  -3.001  0.00  0.00    +0.025 C 
BRANCH  30  31
ATOM     31  C   UNL     1      -1.655  -4.175  -2.543  0.00  0.00    -0.016 C 
ATOM     32  C   UNL     1      -2.223  -3.966  -1.138  0.00  0.00    +0.007 C 
ATOM     33  C   UNL     1      -2.794  -4.501  -3.511  0.00  0.00    +0.007 C 
ENDBRANCH  30  31
ENDBRANCH  29  30
ENDBRANCH  14  29
TORSDOF 7
