REMARK  Name = ZINC35392886
REMARK  7 active torsions:
REMARK  status: ('A' for Active; 'I' for Inactive)
REMARK    1  A    between atoms: C_1  and  C_2
REMARK    2  A    between atoms: C_14  and  C_16
REMARK    3  A    between atoms: C_16  and  N_17
REMARK    4  A    between atoms: N_20  and  S_23
REMARK    5  A    between atoms: S_23  and  C_26
REMARK    6  A    between atoms: C_29  and  C_32
REMARK    7  A    between atoms: C_32  and  C_34
REMARK                            x       y       z     vdW  Elec       q    Type
REMARK                         _______ _______ _______ _____ _____    ______ ____
ROOT
ATOM      1  N   UNL     1      -2.271  -4.205   4.049  0.00  0.00    -0.291 NA
ATOM      2  C   UNL     1      -2.691  -2.951   4.689  0.00  0.00    +0.102 C 
ATOM      3  C   UNL     1      -3.897  -3.223   5.595  0.00  0.00    +0.125 C 
ATOM      4  N   UNL     1      -3.547  -4.309   6.524  0.00  0.00    -0.174 NA
ATOM      5  C   UNL     1      -2.988  -5.550   5.966  0.00  0.00    +0.125 C 
ATOM      6  C   UNL     1      -1.819  -5.186   5.045  0.00  0.00    +0.102 C 
ENDROOT
BRANCH   4   7
ATOM      7  S   UNL     1      -3.776  -4.139   8.155  0.00  0.00    +0.061 S 
ATOM      8  O   UNL     1      -2.876  -5.038   8.788  0.00  0.00    -0.153 OA
ATOM      9  O   UNL     1      -3.773  -2.743   8.422  0.00  0.00    -0.153 OA
BRANCH   7  10
ATOM     10  C   UNL     1      -5.402  -4.716   8.515  0.00  0.00    +0.106 A 
ATOM     11  C   UNL     1      -6.470  -3.837   8.475  0.00  0.00    +0.029 A 
ATOM     12  C   UNL     1      -7.744  -4.281   8.756  0.00  0.00    +0.013 A 
ATOM     13  C   UNL     1      -7.957  -5.624   9.082  0.00  0.00    +0.017 A 
ATOM     14  C   UNL     1      -6.872  -6.507   9.121  0.00  0.00    +0.013 A 
ATOM     15  C   UNL     1      -5.604  -6.048   8.832  0.00  0.00    +0.029 A 
BRANCH  13  16
ATOM     16  C   UNL     1      -9.314  -6.106   9.384  0.00  0.00    +0.160 C 
ATOM     17  O   UNL     1     -10.252  -5.338   9.350  0.00  0.00    -0.292 OA
ATOM     18  C   UNL     1      -9.538  -7.554   9.736  0.00  0.00    +0.091 C 
ENDBRANCH  13  16
ENDBRANCH   7  10
ENDBRANCH   4   7
BRANCH   1  19
ATOM     19  C   UNL     1      -1.229  -3.958   3.042  0.00  0.00    +0.181 C 
BRANCH  19  32
ATOM     20  C   UNL     1      -0.019   1.526   0.010  0.00  0.00    +0.019 C 
ATOM     21  C   UNL     1       0.002  -0.004   0.002  0.00  0.00    +0.050 C 
ATOM     22  C   UNL     1      -1.426  -0.528   0.007  0.00  0.00    +0.033 C 
ATOM     23  C   UNL     1      -1.573  -2.005  -0.245  0.00  0.00    +0.115 C 
ATOM     24  N   UNL     1      -1.028  -2.798   0.868  0.00  0.00    -0.269 N 
ATOM     25  C   UNL     1       0.319  -3.182   0.816  0.00  0.00    +0.050 A 
ATOM     26  C   UNL     1       0.648  -4.508   0.560  0.00  0.00    +0.024 A 
ATOM     27  C   UNL     1       1.977  -4.878   0.462  0.00  0.00    +0.002 A 
ATOM     28  C   UNL     1       2.984  -3.941   0.612  0.00  0.00    +0.001 A 
ATOM     29  C   UNL     1       2.666  -2.621   0.886  0.00  0.00    +0.016 A 
ATOM     30  C   UNL     1       1.338  -2.259   1.007  0.00  0.00    +0.030 A 
ATOM     31  S   UNL     1       0.888  -0.603   1.472  0.00  0.00    -0.120 S 
ATOM     32  C   UNL     1      -1.806  -3.146   1.912  0.00  0.00    +0.234 C 
ATOM     33  O   UNL     1      -2.970  -2.806   1.941  0.00  0.00    -0.274 OA
ENDBRANCH  19  32
ENDBRANCH   1  19
TORSDOF 5
