REMARK  Name = ZINC36594218
REMARK  13 active torsions:
REMARK  status: ('A' for Active; 'I' for Inactive)
REMARK    1  A    between atoms: C_1  and  C_2
REMARK    2  A    between atoms: C_2  and  C_3
REMARK    3  A    between atoms: N_5  and  C_6
REMARK    4  A    between atoms: N_5  and  C_26
REMARK    5  A    between atoms: C_6  and  C_8
REMARK    6  A    between atoms: C_6  and  C_17
REMARK    7  A    between atoms: C_9  and  O_16
REMARK    8  A    between atoms: C_11  and  O_15
REMARK    9  A    between atoms: C_13  and  O_14
REMARK   10  A    between atoms: N_19  and  C_20
REMARK   11  A    between atoms: C_26  and  C_27
REMARK   12  A    between atoms: C_26  and  C_28
REMARK   13  A    between atoms: C_26  and  C_29
REMARK                            x       y       z     vdW  Elec       q    Type
REMARK                         _______ _______ _______ _____ _____    ______ ____
ROOT
ATOM      1  C   UNL     1       0.634  -3.759  -1.415  0.00  0.00    +0.200 C 
ENDROOT
BRANCH   1   2
ATOM      2  C   UNL     1       0.075  -3.332  -0.082  0.00  0.00    +0.065 A 
ATOM      3  C   UNL     1      -0.963  -2.413  -0.028  0.00  0.00    +0.129 A 
ATOM      4  C   UNL     1      -1.477  -2.020   1.198  0.00  0.00    +0.091 A 
ATOM      5  C   UNL     1      -0.955  -2.546   2.370  0.00  0.00    +0.124 A 
ATOM      6  C   UNL     1       0.082  -3.465   2.316  0.00  0.00    +0.091 A 
ATOM      7  C   UNL     1       0.594  -3.861   1.090  0.00  0.00    +0.129 A 
BRANCH   7   8
ATOM      8  O   UNL     1       1.607  -4.766   1.037  0.00  0.00    -0.506 OA
ATOM      9  H   UNL     1       2.489  -4.370   1.058  0.00  0.00    +0.292 HD
ENDBRANCH   7   8
BRANCH   5  10
ATOM     10  O   UNL     1      -1.459  -2.160   3.571  0.00  0.00    -0.507 OA
ATOM     11  H   UNL     1      -2.192  -2.708   3.885  0.00  0.00    +0.292 HD
ENDBRANCH   5  10
BRANCH   3  12
ATOM     12  O   UNL     1      -1.474  -1.898  -1.177  0.00  0.00    -0.506 OA
ATOM     13  H   UNL     1      -2.262  -2.359  -1.498  0.00  0.00    +0.292 HD
ENDBRANCH   3  12
ENDBRANCH   1   2
BRANCH   1  14
ATOM     14  C   UNL     1      -0.479  -4.293  -2.279  0.00  0.00    +0.239 C 
ATOM     15  O   UNL     1      -1.079  -3.547  -3.023  0.00  0.00    -0.273 OA
ATOM     16  N   UNL     1      -0.807  -5.599  -2.225  0.00  0.00    -0.311 N 
ATOM     17  H   UNL     1      -0.327  -6.196  -1.630  0.00  0.00    +0.149 HD
BRANCH  16  18
ATOM     18  C   UNL     1      -1.889  -6.117  -3.066  0.00  0.00    +0.073 C 
ATOM     19  C   UNL     1      -3.230  -5.902  -2.361  0.00  0.00    +0.022 C 
ATOM     20  C   UNL     1      -4.360  -6.444  -3.239  0.00  0.00    +0.002 C 
ATOM     21  C   UNL     1      -4.146  -7.939  -3.482  0.00  0.00    +0.000 C 
ATOM     22  C   UNL     1      -2.805  -8.154  -4.186  0.00  0.00    +0.002 C 
ATOM     23  C   UNL     1      -1.675  -7.612  -3.309  0.00  0.00    +0.022 C 
ENDBRANCH  16  18
ENDBRANCH   1  14
BRANCH   1  26
ATOM     24  C   UNL     1       1.642  -1.542  -1.347  0.00  0.00    +0.217 C 
ATOM     25  O   UNL     1       2.011  -0.529  -1.904  0.00  0.00    -0.276 OA
ATOM     26  N   UNL     1       1.257  -2.609  -2.075  0.00  0.00    -0.281 N 
BRANCH  26  27
ATOM     27  C   UNL     1       1.461  -2.619  -3.525  0.00  0.00    +0.030 C 
ATOM     28  C   UNL     1       2.798  -1.953  -3.857  0.00  0.00    +0.031 C 
ATOM     29  C   UNL     1       1.472  -4.064  -4.029  0.00  0.00    +0.031 C 
ATOM     30  C   UNL     1       0.326  -1.850  -4.205  0.00  0.00    +0.031 C 
ENDBRANCH  26  27
BRANCH  24  32
ATOM     31  C   UNL     1       2.539  -0.532   0.732  0.00  0.00    +0.013 C 
ATOM     32  C   UNL     1       1.614  -1.606   0.158  0.00  0.00    +0.092 C 
ENDBRANCH  24  32
ENDBRANCH   1  26
TORSDOF 9
