REMARK  Name = ZINC38610199
REMARK  10 active torsions:
REMARK  status: ('A' for Active; 'I' for Inactive)
REMARK    1  A    between atoms: C_1  and  C_2
REMARK    2  A    between atoms: C_2  and  O_3
REMARK    3  A    between atoms: O_3  and  C_4
REMARK    4  A    between atoms: C_7  and  C_12
REMARK    5  A    between atoms: C_9  and  O_10
REMARK    6  A    between atoms: O_10  and  C_11
REMARK    7  A    between atoms: C_15  and  C_31
REMARK    8  A    between atoms: N_22  and  C_23
REMARK    9  A    between atoms: C_23  and  C_24
REMARK   10  A    between atoms: C_36  and  O_37
REMARK                            x       y       z     vdW  Elec       q    Type
REMARK                         _______ _______ _______ _____ _____    ______ ____
ROOT
ATOM      1  C   UNL     1       1.094  -5.685  -1.478  0.00  0.00    +0.142 C 
ATOM      2  C   UNL     1       2.289  -6.411  -0.925  0.00  0.00    +0.035 A 
ATOM      3  C   UNL     1       3.682  -6.542  -0.900  0.00  0.00    +0.102 A 
ATOM      4  N   UNL     1       3.970  -7.525  -0.069  0.00  0.00    -0.173 NA
ATOM      5  N   UNL     1       2.898  -8.027   0.433  0.00  0.00    -0.272 N 
ATOM      6  H   UNL     1       2.870  -8.759   1.068  0.00  0.00    +0.189 HD
ATOM      7  C   UNL     1       1.804  -7.375  -0.062  0.00  0.00    +0.126 A 
ATOM      8  C   UNL     1       0.340  -7.290  -0.043  0.00  0.00    +0.266 C 
ATOM      9  O   UNL     1      -0.389  -8.004   0.620  0.00  0.00    -0.268 OA
ATOM     10  N   UNL     1      -0.085  -6.311  -0.864  0.00  0.00    -0.281 N 
ENDROOT
BRANCH   1  14
ATOM     11  C   UNL     1       1.275  -1.541  -0.436  0.00  0.00    +0.162 A 
ATOM     12  C   UNL     1       1.433  -1.934  -1.755  0.00  0.00    +0.050 A 
ATOM     13  C   UNL     1       1.375  -3.275  -2.089  0.00  0.00    +0.009 A 
ATOM     14  C   UNL     1       1.157  -4.225  -1.109  0.00  0.00    -0.019 A 
ATOM     15  C   UNL     1       0.998  -3.840   0.209  0.00  0.00    +0.055 A 
ATOM     16  C   UNL     1       1.062  -2.499   0.551  0.00  0.00    +0.162 A 
BRANCH  16  17
ATOM     17  O   UNL     1       0.911  -2.118   1.848  0.00  0.00    -0.491 OA
ATOM     18  C   UNL     1       0.696  -3.155   2.808  0.00  0.00    +0.277 C 
ENDBRANCH  16  17
BRANCH  11  19
ATOM     19  O   UNL     1       1.333  -0.223  -0.106  0.00  0.00    -0.489 OA
BRANCH  19  21
ATOM     20  C   UNL     1       1.589   2.126  -0.610  0.00  0.00    +0.048 C 
ATOM     21  C   UNL     1       1.554   0.703  -1.171  0.00  0.00    +0.226 C 
ENDBRANCH  19  21
ENDBRANCH  11  19
ENDBRANCH   1  14
BRANCH   3  22
ATOM     22  C   UNL     1       4.655  -5.726  -1.667  0.00  0.00    +0.044 A 
ATOM     23  C   UNL     1       4.205  -4.800  -2.605  0.00  0.00    +0.014 A 
ATOM     24  C   UNL     1       5.115  -4.043  -3.316  0.00  0.00    +0.001 A 
ATOM     25  C   UNL     1       6.472  -4.201  -3.101  0.00  0.00    +0.004 A 
ATOM     26  C   UNL     1       6.929  -5.118  -2.173  0.00  0.00    +0.046 A 
ATOM     27  C   UNL     1       6.027  -5.880  -1.448  0.00  0.00    +0.126 A 
BRANCH  27  28
ATOM     28  O   UNL     1       6.474  -6.777  -0.531  0.00  0.00    -0.506 OA
ATOM     29  H   UNL     1       6.634  -7.660  -0.890  0.00  0.00    +0.292 HD
ENDBRANCH  27  28
ENDBRANCH   3  22
BRANCH  10  30
ATOM     30  C   UNL     1      -1.480  -5.933  -1.103  0.00  0.00    +0.144 C 
BRANCH  30  31
ATOM     31  C   UNL     1      -2.025  -6.732  -2.259  0.00  0.00    -0.030 A 
ATOM     32  C   UNL     1      -1.909  -6.248  -3.549  0.00  0.00    +0.006 A 
ATOM     33  C   UNL     1      -2.409  -6.979  -4.609  0.00  0.00    +0.020 A 
ATOM     34  C   UNL     1      -3.026  -8.197  -4.380  0.00  0.00    +0.041 A 
ATOM     35  C   UNL     1      -3.141  -8.681  -3.089  0.00  0.00    +0.020 A 
ATOM     36  C   UNL     1      -2.636  -7.950  -2.030  0.00  0.00    +0.006 A 
ATOM     37 CL   UNL     1      -3.654  -9.116  -5.712  0.00  0.00    -0.084 Cl
ENDBRANCH  30  31
ENDBRANCH  10  30
TORSDOF 8
