REMARK  Name = ZINC17031122
REMARK  5 active torsions:
REMARK  status: ('A' for Active; 'I' for Inactive)
REMARK    1  A    between atoms: C_1  and  C_2
REMARK    2  A    between atoms: C_7  and  C_8
REMARK    3  A    between atoms: C_8  and  N_9
REMARK    4  A    between atoms: N_9  and  C_10
REMARK    5  A    between atoms: C_10  and  C_11
REMARK                            x       y       z     vdW  Elec       q    Type
REMARK                         _______ _______ _______ _____ _____    ______ ____
ROOT
ATOM      1  N   UNL     1      -1.388   0.091   3.019  0.00  0.00    -0.305 N 
ATOM      2  C   UNL     1      -2.041   1.233   2.616  0.00  0.00    +0.131 C 
ATOM      3  N   UNL     1      -1.388   2.120   1.954  0.00  0.00    -0.368 N 
ATOM      4  C   UNL     1      -1.853   3.399   1.468  0.00  0.00    +0.115 C 
ATOM      5  C   UNL     1      -3.364   3.475   1.293  0.00  0.00    +0.032 C 
ATOM      6  C   UNL     1      -4.045   3.185   2.640  0.00  0.00    +0.079 C 
ATOM      7  S   UNL     1      -3.746   1.428   3.019  0.00  0.00    -0.092 S 
ATOM      8  H   UNL     1      -0.463   1.903   1.755  0.00  0.00    +0.161 HD
ENDROOT
BRANCH   1   9
ATOM      9  C   UNL     1      -0.005  -0.149   2.600  0.00  0.00    +0.142 C 
BRANCH   9  16
ATOM     10  C   UNL     1       2.490  -0.994   1.414  0.00  0.00    +0.044 C 
ATOM     11  C   UNL     1       1.196  -1.190   0.667  0.00  0.00    -0.046 A 
ATOM     12  C   UNL     1       1.203  -1.779  -0.584  0.00  0.00    +0.003 A 
ATOM     13  C   UNL     1       0.016  -1.959  -1.269  0.00  0.00    +0.000 A 
ATOM     14  C   UNL     1      -1.177  -1.550  -0.704  0.00  0.00    +0.000 A 
ATOM     15  C   UNL     1      -1.184  -0.962   0.547  0.00  0.00    +0.005 A 
ATOM     16  C   UNL     1       0.003  -0.786   1.234  0.00  0.00    -0.027 A 
ENDBRANCH   9  16
ENDBRANCH   1   9
BRANCH   1  17
ATOM     17  C   UNL     1      -2.077  -0.885   3.867  0.00  0.00    +0.138 C 
BRANCH  17  18
ATOM     18  C   UNL     1      -1.841  -0.538   5.338  0.00  0.00    +0.136 C 
ATOM     19  C   UNL     1      -2.461  -1.629   6.239  0.00  0.00    +0.035 C 
ATOM     20  C   UNL     1      -3.056  -0.793   7.405  0.00  0.00    +0.031 C 
ATOM     21  C   UNL     1      -3.494   0.490   6.655  0.00  0.00    +0.160 C 
ATOM     22  O   UNL     1      -2.483   0.703   5.654  0.00  0.00    -0.375 OA
ENDBRANCH  17  18
ENDBRANCH   1  17
TORSDOF 4
