REMARK  Name = ZINC33939820
REMARK  7 active torsions:
REMARK  status: ('A' for Active; 'I' for Inactive)
REMARK    1  A    between atoms: C_2  and  C_3
REMARK    2  A    between atoms: C_3  and  N_4
REMARK    3  A    between atoms: C_5  and  C_28
REMARK    4  A    between atoms: C_13  and  C_19
REMARK    5  A    between atoms: N_21  and  C_22
REMARK    6  A    between atoms: N_30  and  C_31
REMARK    7  A    between atoms: C_31  and  C_32
REMARK                            x       y       z     vdW  Elec       q    Type
REMARK                         _______ _______ _______ _____ _____    ______ ____
ROOT
ATOM      1  N   UNL     1       1.367  -1.676   1.111  0.00  0.00    -0.283 N 
ATOM      2  C   UNL     1       1.887  -1.354   2.478  0.00  0.00    +0.199 C 
ATOM      3  C   UNL     1       2.275  -2.708   2.987  0.00  0.00    +0.127 C 
ATOM      4  C   UNL     1       3.513  -3.261   2.305  0.00  0.00    +0.009 C 
ATOM      5  C   UNL     1       3.731  -4.444   2.862  0.00  0.00    +0.004 C 
ATOM      6  C   UNL     1       2.575  -4.636   3.852  0.00  0.00    +0.155 C 
ATOM      7  O   UNL     1       2.332  -3.235   4.291  0.00  0.00    -0.358 OA
ATOM      8  C   UNL     1       1.358  -4.919   2.889  0.00  0.00    +0.122 C 
ATOM      9  C   UNL     1       1.011  -3.495   2.455  0.00  0.00    +0.128 C 
ATOM     10  C   UNL     1       0.939  -2.981   1.076  0.00  0.00    +0.224 C 
ATOM     11  O   UNL     1       0.573  -3.594   0.096  0.00  0.00    -0.275 OA
ENDROOT
BRANCH   8  12
ATOM     12  C   UNL     1       1.779  -5.773   1.720  0.00  0.00    +0.220 C 
ATOM     13  O   UNL     1       1.684  -5.343   0.590  0.00  0.00    -0.275 OA
ATOM     14  N   UNL     1       2.260  -7.014   1.932  0.00  0.00    -0.312 N 
ATOM     15  H   UNL     1       2.336  -7.357   2.836  0.00  0.00    +0.149 HD
BRANCH  14  16
ATOM     16  C   UNL     1       2.669  -7.844   0.796  0.00  0.00    +0.073 C 
ATOM     17  C   UNL     1       1.449  -8.573   0.231  0.00  0.00    +0.022 C 
ATOM     18  C   UNL     1       1.876  -9.440  -0.955  0.00  0.00    +0.002 C 
ATOM     19  C   UNL     1       2.912 -10.465  -0.490  0.00  0.00    +0.000 C 
ATOM     20  C   UNL     1       4.133  -9.736   0.075  0.00  0.00    +0.002 C 
ATOM     21  C   UNL     1       3.705  -8.869   1.261  0.00  0.00    +0.022 C 
ENDBRANCH  14  16
ENDBRANCH   8  12
BRANCH   2  22
ATOM     22  C   UNL     1       3.086  -0.444   2.397  0.00  0.00    +0.237 C 
ATOM     23  O   UNL     1       3.702  -0.343   1.358  0.00  0.00    -0.274 OA
ATOM     24  N   UNL     1       3.473   0.258   3.481  0.00  0.00    -0.310 N 
ATOM     25  H   UNL     1       2.980   0.177   4.312  0.00  0.00    +0.149 HD
BRANCH  24  26
ATOM     26  C   UNL     1       4.638   1.142   3.403  0.00  0.00    +0.139 C 
BRANCH  26  27
ATOM     27  C   UNL     1       4.857   1.804   4.739  0.00  0.00    -0.030 A 
ATOM     28  C   UNL     1       4.243   3.010   5.021  0.00  0.00    +0.005 A 
ATOM     29  C   UNL     1       4.444   3.618   6.247  0.00  0.00    +0.000 A 
ATOM     30  C   UNL     1       5.257   3.019   7.190  0.00  0.00    +0.000 A 
ATOM     31  C   UNL     1       5.870   1.812   6.908  0.00  0.00    +0.000 A 
ATOM     32  C   UNL     1       5.666   1.203   5.684  0.00  0.00    +0.005 A 
ENDBRANCH  26  27
ENDBRANCH  24  26
ENDBRANCH   2  22
BRANCH   1  33
ATOM     33  C   UNL     1       1.317  -0.740  -0.015  0.00  0.00    +0.135 C 
BRANCH  33  35
ATOM     34  C   UNL     1      -0.016   1.306   0.009  0.00  0.00    +0.005 C 
ATOM     35  C   UNL     1       0.002  -0.004   0.002  0.00  0.00    -0.016 C 
ENDBRANCH  33  35
ENDBRANCH   1  33
TORSDOF 7
