REMARK  Name = ZINC67585143
REMARK  10 active torsions:
REMARK  status: ('A' for Active; 'I' for Inactive)
REMARK    1  A    between atoms: C_1  and  C_2
REMARK    2  A    between atoms: C_2  and  C_3
REMARK    3  A    between atoms: C_3  and  C_4
REMARK    4  A    between atoms: N_6  and  C_7
REMARK    5  A    between atoms: C_11  and  N_14
REMARK    6  A    between atoms: C_12  and  C_13
REMARK    7  A    between atoms: N_17  and  C_18
REMARK    8  A    between atoms: C_18  and  C_20
REMARK    9  A    between atoms: C_18  and  C_21
REMARK   10  A    between atoms: C_21  and  C_22
REMARK                            x       y       z     vdW  Elec       q    Type
REMARK                         _______ _______ _______ _____ _____    ______ ____
ROOT
ATOM      1  N   UNL     1       2.830  -6.889  -4.072  0.00  0.00    -0.269 N 
ATOM      2  C   UNL     1       2.381  -8.104  -4.444  0.00  0.00    +0.304 C 
ATOM      3  O   UNL     1       1.437  -8.607  -3.866  0.00  0.00    -0.253 OA
ATOM      4  N   UNL     1       2.979  -8.761  -5.457  0.00  0.00    -0.296 N 
ATOM      5  H   UNL     1       3.624  -6.517  -4.485  0.00  0.00    +0.156 HD
ATOM      6  H   UNL     1       3.732  -8.360  -5.918  0.00  0.00    +0.151 HD
ENDROOT
BRANCH   1  11
ATOM      7  C   UNL     1       1.402  -4.064  -2.192  0.00  0.00    +0.038 A 
ATOM      8  C   UNL     1       0.798  -4.734  -1.135  0.00  0.00    +0.024 A 
ATOM      9  C   UNL     1       0.871  -6.111  -1.056  0.00  0.00    +0.004 A 
ATOM     10  C   UNL     1       1.543  -6.827  -2.028  0.00  0.00    +0.024 A 
ATOM     11  C   UNL     1       2.148  -6.163  -3.088  0.00  0.00    +0.039 A 
ATOM     12  C   UNL     1       2.073  -4.780  -3.172  0.00  0.00    -0.008 A 
ATOM     13  C   UNL     1       2.723  -4.057  -4.324  0.00  0.00    +0.047 C 
BRANCH   7  16
ATOM     14  C   UNL     1       0.315  -2.013  -1.672  0.00  0.00    +0.217 C 
ATOM     15  O   UNL     1      -0.587  -2.635  -1.151  0.00  0.00    -0.275 OA
ATOM     16  N   UNL     1       1.328  -2.669  -2.271  0.00  0.00    -0.285 N 
ATOM     17  H   UNL     1       2.006  -2.174  -2.756  0.00  0.00    +0.155 HD
BRANCH  14  18
ATOM     18  C   UNL     1       0.302  -0.506  -1.649  0.00  0.00    +0.096 C 
BRANCH  18  20
ATOM     19  C   UNL     1      -0.961   1.512  -0.890  0.00  0.00    +0.004 C 
ATOM     20  C   UNL     1      -0.948  -0.018  -0.913  0.00  0.00    +0.006 C 
ENDBRANCH  18  20
ENDBRANCH  14  18
ENDBRANCH   7  16
ENDBRANCH   1  11
BRANCH   4  21
ATOM     21  C   UNL     1       2.492 -10.082  -5.862  0.00  0.00    +0.076 C 
ATOM     22  C   UNL     1       1.333  -9.918  -6.848  0.00  0.00    +0.028 C 
BRANCH  21  23
ATOM     23  C   UNL     1       3.625 -10.860  -6.534  0.00  0.00    +0.057 C 
BRANCH  23  24
ATOM     24  C   UNL     1       4.715 -11.129  -5.528  0.00  0.00    -0.045 A 
ATOM     25  C   UNL     1       5.742 -10.218  -5.362  0.00  0.00    +0.006 A 
ATOM     26  C   UNL     1       6.741 -10.463  -4.440  0.00  0.00    +0.038 A 
ATOM     27  C   UNL     1       6.714 -11.621  -3.681  0.00  0.00    +0.123 A 
ATOM     28  C   UNL     1       5.685 -12.532  -3.848  0.00  0.00    +0.038 A 
ATOM     29  C   UNL     1       4.684 -12.283  -4.768  0.00  0.00    +0.006 A 
ATOM     30  F   UNL     1       7.691 -11.861  -2.780  0.00  0.00    -0.205 F 
ENDBRANCH  23  24
ENDBRANCH  21  23
ENDBRANCH   4  21
TORSDOF 7
