REMARK  Name = ZINC04762699
REMARK  10 active torsions:
REMARK  status: ('A' for Active; 'I' for Inactive)
REMARK    1  A    between atoms: C_1  and  C_2
REMARK    2  A    between atoms: C_6  and  N_8
REMARK    3  A    between atoms: C_9  and  C_11
REMARK    4  A    between atoms: C_11  and  C_13
REMARK    5  A    between atoms: C_11  and  N_17
REMARK    6  A    between atoms: C_13  and  C_14
REMARK    7  A    between atoms: C_14  and  C_15
REMARK    8  A    between atoms: C_14  and  C_16
REMARK    9  A    between atoms: C_18  and  C_20
REMARK   10  A    between atoms: C_23  and  C_26
REMARK                            x       y       z     vdW  Elec       q    Type
REMARK                         _______ _______ _______ _____ _____    ______ ____
ROOT
ATOM      1  N   UNL     1      -2.065   0.983   1.341  0.00  0.00    -0.300 N 
ATOM      2  C   UNL     1      -3.097   1.554   0.689  0.00  0.00    +0.245 C 
ATOM      3  O   UNL     1      -2.920   2.566   0.040  0.00  0.00    -0.270 OA
ATOM      4  H   UNL     1      -2.205   0.175   1.859  0.00  0.00    +0.150 HD
ENDROOT
BRANCH   2   5
ATOM      5  C   UNL     1      -4.443   0.948   0.761  0.00  0.00    +0.037 A 
ATOM      6  C   UNL     1      -4.648  -0.219   1.500  0.00  0.00    +0.013 A 
ATOM      7  C   UNL     1      -5.908  -0.776   1.569  0.00  0.00    +0.005 A 
ATOM      8  C   UNL     1      -6.965  -0.188   0.898  0.00  0.00    -0.041 A 
ATOM      9  C   UNL     1      -6.768   0.965   0.159  0.00  0.00    +0.005 A 
ATOM     10  C   UNL     1      -5.514   1.536   0.087  0.00  0.00    +0.013 A 
BRANCH   8  11
ATOM     11  C   UNL     1      -8.338  -0.806   0.972  0.00  0.00    -0.003 C 
ATOM     12  C   UNL     1      -8.804  -1.182  -0.436  0.00  0.00    +0.015 C 
ATOM     13  C   UNL     1     -10.198  -1.809  -0.361  0.00  0.00    -0.010 C 
ATOM     14  C   UNL     1     -10.145  -3.065   0.512  0.00  0.00    +0.007 C 
ATOM     15  C   UNL     1      -9.679  -2.688   1.919  0.00  0.00    -0.010 C 
ATOM     16  C   UNL     1      -8.286  -2.061   1.844  0.00  0.00    +0.015 C 
ATOM     17  C   UNL     1     -10.658  -1.684   2.530  0.00  0.00    +0.007 C 
ATOM     18  C   UNL     1     -10.711  -0.428   1.657  0.00  0.00    -0.010 C 
ATOM     19  C   UNL     1     -11.177  -0.805   0.249  0.00  0.00    +0.007 C 
ATOM     20  C   UNL     1      -9.317   0.199   1.582  0.00  0.00    +0.015 C 
ENDBRANCH   8  11
ENDBRANCH   2   5
BRANCH   1  21
ATOM     21  C   UNL     1      -0.730   1.583   1.269  0.00  0.00    +0.160 C 
BRANCH  21  23
ATOM     22  N   UNL     1       1.331   1.625   2.635  0.00  0.00    -0.269 N 
ATOM     23  C   UNL     1       0.066   1.187   2.486  0.00  0.00    +0.239 C 
ATOM     24  O   UNL     1      -0.433   0.473   3.330  0.00  0.00    -0.273 OA
ATOM     25  H   UNL     1       1.755   2.135   1.927  0.00  0.00    +0.156 HD
BRANCH  22  31
ATOM     26  C   UNL     1       1.453  -0.624   6.862  0.00  0.00    +0.065 C 
ATOM     27  C   UNL     1       2.115   0.275   5.850  0.00  0.00    +0.040 A 
ATOM     28  C   UNL     1       3.372   0.786   6.110  0.00  0.00    +0.023 A 
ATOM     29  C   UNL     1       3.976   1.613   5.174  0.00  0.00    +0.005 A 
ATOM     30  C   UNL     1       3.295   1.892   4.002  0.00  0.00    +0.044 A 
ATOM     31  C   UNL     1       2.031   1.348   3.809  0.00  0.00    +0.125 A 
ATOM     32  N   UNL     1       1.488   0.563   4.726  0.00  0.00    -0.237 NA
ENDBRANCH  22  31
ENDBRANCH  21  23
BRANCH  21  33
ATOM     33  C   UNL     1      -0.016   1.089   0.009  0.00  0.00    +0.034 C 
BRANCH  33  34
ATOM     34  C   UNL     1      -0.756   1.598  -1.230  0.00  0.00    -0.015 C 
ATOM     35  C   UNL     1      -0.667   3.124  -1.286  0.00  0.00    +0.007 C 
ATOM     36  C   UNL     1      -0.117   1.002  -2.486  0.00  0.00    +0.007 C 
ENDBRANCH  33  34
ENDBRANCH  21  33
ENDBRANCH   1  21
TORSDOF 7
