REMARK  Name = ZINC22057806
REMARK  9 active torsions:
REMARK  status: ('A' for Active; 'I' for Inactive)
REMARK    1  A    between atoms: C_1  and  C_2
REMARK    2  A    between atoms: C_2  and  C_3
REMARK    3  A    between atoms: C_2  and  C_4
REMARK    4  A    between atoms: C_4  and  C_6
REMARK    5  A    between atoms: C_4  and  N_12
REMARK    6  A    between atoms: C_13  and  C_15
REMARK    7  A    between atoms: C_15  and  N_16
REMARK    8  A    between atoms: N_19  and  C_22
REMARK    9  A    between atoms: C_27  and  O_28
REMARK                            x       y       z     vdW  Elec       q    Type
REMARK                         _______ _______ _______ _____ _____    ______ ____
ROOT
ATOM      1  C   UNL     1       3.070   3.324   2.982  0.00  0.00    +0.019 C 
ENDROOT
BRANCH   1   2
ATOM      2  N   UNL     1       3.101   4.668   3.575  0.00  0.00    +0.387 N 
ATOM      3  C   UNL     1       2.370   5.630   2.737  0.00  0.00    -0.059 C 
ATOM      4  C   UNL     1       2.358   6.996   3.426  0.00  0.00    +0.086 C 
ATOM      5  N   UNL     1       3.740   7.441   3.651  0.00  0.00    -0.331 N 
ATOM      6  C   UNL     1       4.471   6.480   4.489  0.00  0.00    +0.086 C 
ATOM      7  C   UNL     1       4.483   5.113   3.799  0.00  0.00    -0.059 C 
ATOM      8  H   UNL     1       2.597   4.617   4.551  0.00  0.00    -0.081 HD
BRANCH   5   9
ATOM      9  C   UNL     1       3.769   8.722   4.215  0.00  0.00    +0.072 A 
ATOM     10  C   UNL     1       3.229   8.940   5.474  0.00  0.00    +0.027 A 
ATOM     11  C   UNL     1       3.263  10.204   6.031  0.00  0.00    +0.002 A 
ATOM     12  C   UNL     1       3.826  11.256   5.333  0.00  0.00    +0.004 A 
ATOM     13  C   UNL     1       4.362  11.047   4.075  0.00  0.00    +0.047 A 
ATOM     14  C   UNL     1       4.336   9.782   3.512  0.00  0.00    +0.138 A 
BRANCH  14  15
ATOM     15  O   UNL     1       4.863   9.576   2.275  0.00  0.00    -0.505 OA
ATOM     16  H   UNL     1       5.310  10.414   1.720  0.00  0.00    +0.292 HD
ENDBRANCH  14  15
ENDBRANCH   5   9
ENDBRANCH   1   2
BRANCH   1  18
ATOM     17  N   UNL     1       1.386   1.579   2.496  0.00  0.00    -0.310 N 
ATOM     18  C   UNL     1       1.656   2.803   2.993  0.00  0.00    +0.197 C 
ATOM     19  O   UNL     1       0.762   3.483   3.449  0.00  0.00    -0.278 OA
ATOM     20  H   UNL     1       2.196   0.962   2.082  0.00  0.00    +0.149 HD
BRANCH  17  21
ATOM     21  C   UNL     1       0.011   1.072   2.506  0.00  0.00    +0.106 C 
BRANCH  21  22
ATOM     22  C   UNL     1       0.032  -0.434   2.498  0.00  0.00    -0.027 A 
ATOM     23  C   UNL     1       0.947  -1.109   1.712  0.00  0.00    +0.005 A 
ATOM     24  C   UNL     1       0.969  -2.491   1.708  0.00  0.00    +0.000 A 
ATOM     25  C   UNL     1       0.069  -3.199   2.482  0.00  0.00    +0.000 A 
ATOM     26  C   UNL     1      -0.850  -2.524   3.265  0.00  0.00    +0.000 A 
ATOM     27  C   UNL     1      -0.869  -1.142   3.272  0.00  0.00    +0.005 A 
ENDBRANCH  21  22
BRANCH  21  29
ATOM     28  C   UNL     1      -0.013   1.086   0.008  0.00  0.00    +0.009 C 
ATOM     29  C   UNL     1      -0.729   1.579   1.267  0.00  0.00    +0.008 C 
ATOM     30  C   UNL     1      -0.750   3.109   1.275  0.00  0.00    +0.009 C 
ENDBRANCH  21  29
ENDBRANCH  17  21
ENDBRANCH   1  18
TORSDOF 7
