REMARK  Name = ZINC01056520
REMARK  3 active torsions:
REMARK  status: ('A' for Active; 'I' for Inactive)
REMARK    1  A    between atoms: C_4  and  C_7
REMARK    2  A    between atoms: C_10  and  C_24
REMARK    3  A    between atoms: C_14  and  N_16
REMARK                            x       y       z     vdW  Elec       q    Type
REMARK                         _______ _______ _______ _____ _____    ______ ____
ROOT
ATOM      1  C   UNL     1      -0.757   1.595  -1.230  0.00  0.00    +0.055 C 
ATOM      2  C   UNL     1      -0.842   3.122  -1.164  0.00  0.00    +0.046 C 
ATOM      3  C   UNL     1      -1.531   3.534   0.110  0.00  0.00    -0.036 C 
ATOM      4  C   UNL     1      -1.448   2.778   1.224  0.00  0.00    +0.052 C 
ATOM      5  C   UNL     1      -0.722   1.573   1.245  0.00  0.00    +0.181 C 
ATOM      6  O   UNL     1      -0.666   0.921   2.268  0.00  0.00    -0.290 OA
ATOM      7  C   UNL     1      -0.013   1.086   0.008  0.00  0.00    +0.187 C 
ENDROOT
BRANCH   7   8
ATOM      8  N   UNL     1       1.361   1.595  -0.002  0.00  0.00    -0.239 N 
ATOM      9  C   UNL     1       1.782   2.786   0.455  0.00  0.00    +0.222 A 
ATOM     10  N   UNL     1       3.075   2.860   0.265  0.00  0.00    -0.195 NA
ATOM     11  C   UNL     1       3.512   1.740  -0.308  0.00  0.00    +0.328 A 
ATOM     12  N   UNL     1       2.501   0.931  -0.486  0.00  0.00    -0.125 NA
ATOM     13  N   UNL     1       4.917   1.454  -0.676  0.00  0.00    +0.096 N 
ATOM     14  O   UNL     1       5.784   2.281  -0.458  0.00  0.00    -0.123 OA
ATOM     15  O   UNL     1       5.206   0.392  -1.198  0.00  0.00    -0.123 OA
ENDBRANCH   7   8
BRANCH   1  19
ATOM     16  C   UNL     1       1.359   0.428  -4.753  0.00  0.00    +0.000 A 
ATOM     17  C   UNL     1       0.058   0.004  -4.556  0.00  0.00    +0.000 A 
ATOM     18  C   UNL     1      -0.626   0.382  -3.416  0.00  0.00    +0.004 A 
ATOM     19  C   UNL     1      -0.010   1.183  -2.473  0.00  0.00    -0.042 A 
ATOM     20  C   UNL     1       1.289   1.611  -2.672  0.00  0.00    +0.004 A 
ATOM     21  C   UNL     1       1.976   1.229  -3.810  0.00  0.00    +0.000 A 
ENDBRANCH   1  19
BRANCH   3  22
ATOM     22  C   UNL     1      -2.308   4.782   0.140  0.00  0.00    -0.022 A 
ATOM     23  C   UNL     1      -3.457   4.914  -0.647  0.00  0.00    +0.008 A 
ATOM     24  C   UNL     1      -4.183   6.085  -0.610  0.00  0.00    +0.001 A 
ATOM     25  C   UNL     1      -3.772   7.133   0.196  0.00  0.00    +0.000 A 
ATOM     26  C   UNL     1      -2.633   7.012   0.974  0.00  0.00    +0.001 A 
ATOM     27  C   UNL     1      -1.899   5.846   0.952  0.00  0.00    +0.008 A 
ENDBRANCH   3  22
TORSDOF 3
