REMARK  Name = ZINC44068774
REMARK  5 active torsions:
REMARK  status: ('A' for Active; 'I' for Inactive)
REMARK    1  A    between atoms: C_10  and  S_11
REMARK    2  A    between atoms: S_11  and  N_14
REMARK    3  A    between atoms: N_14  and  C_15
REMARK    4  A    between atoms: C_15  and  C_16
REMARK    5  A    between atoms: C_16  and  C_22
REMARK                            x       y       z     vdW  Elec       q    Type
REMARK                         _______ _______ _______ _____ _____    ______ ____
ROOT
ATOM      1  N   UNL     1       5.460   0.889  -1.727  0.00  0.00    -0.189 NA
ATOM      2  H   UNL     1       6.063   0.625  -2.440  0.00  0.00    +0.148 HD
ENDROOT
BRANCH   1   3
ATOM      3  S   UNL     1       5.527   0.122  -0.261  0.00  0.00    +0.059 S 
ATOM      4  O   UNL     1       5.586   1.141   0.728  0.00  0.00    -0.153 OA
ATOM      5  O   UNL     1       6.521  -0.887  -0.375  0.00  0.00    -0.153 OA
BRANCH   3  15
ATOM      6  C   UNL     1       2.824  -3.793  -2.605  0.00  0.00    +0.001 A 
ATOM      7  C   UNL     1       4.044  -3.147  -2.798  0.00  0.00    +0.001 A 
ATOM      8  C   UNL     1       4.442  -2.140  -1.973  0.00  0.00    +0.010 A 
ATOM      9  C   UNL     1       3.613  -1.744  -0.909  0.00  0.00    +0.008 A 
ATOM     10  C   UNL     1       2.372  -2.401  -0.713  0.00  0.00    -0.016 A 
ATOM     11  C   UNL     1       1.995  -3.437  -1.586  0.00  0.00    +0.008 A 
ATOM     12  C   UNL     1       1.543  -2.005   0.350  0.00  0.00    +0.008 A 
ATOM     13  C   UNL     1       1.941  -0.998   1.175  0.00  0.00    +0.003 A 
ATOM     14  C   UNL     1       3.160  -0.351   0.982  0.00  0.00    +0.029 A 
ATOM     15  C   UNL     1       3.989  -0.709  -0.037  0.00  0.00    +0.113 A 
ENDBRANCH   3  15
ENDBRANCH   1   3
BRANCH   1  16
ATOM     16  C   UNL     1       4.492   1.966  -1.947  0.00  0.00    +0.117 C 
BRANCH  16  17
ATOM     17  C   UNL     1       4.890   2.764  -3.189  0.00  0.00    +0.018 C 
ATOM     18  C   UNL     1       4.951   1.830  -4.402  0.00  0.00    +0.041 C 
ATOM     19  C   UNL     1       3.557   1.253  -4.662  0.00  0.00    +0.160 C 
ATOM     20  O   UNL     1       2.632   2.322  -4.868  0.00  0.00    -0.380 OA
ATOM     21  C   UNL     1       2.498   3.201  -3.750  0.00  0.00    +0.160 C 
ATOM     22  C   UNL     1       3.849   3.856  -3.453  0.00  0.00    +0.041 C 
BRANCH  17  23
ATOM     23  C   UNL     1       6.240   3.397  -2.970  0.00  0.00    +0.014 A 
ATOM     24  C   UNL     1       7.306   3.057  -3.786  0.00  0.00    +0.129 A 
ATOM     25  C   UNL     1       8.545   3.639  -3.583  0.00  0.00    +0.039 A 
ATOM     26  C   UNL     1       8.719   4.560  -2.567  0.00  0.00    +0.004 A 
ATOM     27  C   UNL     1       7.655   4.900  -1.753  0.00  0.00    +0.020 A 
ATOM     28  C   UNL     1       6.414   4.323  -1.958  0.00  0.00    +0.047 A 
ATOM     29 CL   UNL     1       5.077   4.756  -0.938  0.00  0.00    -0.083 Cl
ATOM     30  F   UNL     1       7.136   2.156  -4.779  0.00  0.00    -0.205 F 
ENDBRANCH  17  23
ENDBRANCH  16  17
ENDBRANCH   1  16
TORSDOF 5
