REMARK  Name = ZINC16401811
REMARK  10 active torsions:
REMARK  status: ('A' for Active; 'I' for Inactive)
REMARK    1  A    between atoms: C_6  and  C_7
REMARK    2  A    between atoms: C_7  and  O_8
REMARK    3  A    between atoms: O_8  and  C_9
REMARK    4  A    between atoms: C_14  and  C_15
REMARK    5  A    between atoms: C_15  and  N_50
REMARK    6  A    between atoms: C_16  and  C_17
REMARK    7  A    between atoms: C_16  and  N_50
REMARK    8  A    between atoms: C_17  and  N_18
REMARK    9  A    between atoms: N_18  and  C_19
REMARK   10  A    between atoms: C_22  and  N_26
REMARK                            x       y       z     vdW  Elec       q    Type
REMARK                         _______ _______ _______ _____ _____    ______ ____
ROOT
ATOM      1  C   UNL     1      -2.574   2.783   4.032  0.00  0.00    -0.043 C 
ENDROOT
BRANCH   1   7
ATOM      2  C   UNL     1      -2.917   2.995   1.558  0.00  0.00    +0.122 A 
ATOM      3  C   UNL     1      -3.660   3.414   0.464  0.00  0.00    +0.047 A 
ATOM      4  C   UNL     1      -4.855   4.081   0.656  0.00  0.00    +0.023 A 
ATOM      5  C   UNL     1      -5.310   4.331   1.939  0.00  0.00    +0.041 A 
ATOM      6  C   UNL     1      -4.569   3.915   3.031  0.00  0.00    +0.025 A 
ATOM      7  C   UNL     1      -3.377   3.242   2.842  0.00  0.00    -0.021 A 
ATOM      8 CL   UNL     1      -6.811   5.169   2.178  0.00  0.00    -0.084 Cl
BRANCH   2   9
ATOM      9  O   UNL     1      -1.741   2.339   1.370  0.00  0.00    -0.487 OA
BRANCH   9  10
ATOM     10  C   UNL     1      -1.332   2.114   0.020  0.00  0.00    +0.264 C 
BRANCH  10  16
ATOM     11  C   UNL     1       1.171   2.086   0.002  0.00  0.00    +0.008 A 
ATOM     12  C   UNL     1       2.377   1.412  -0.013  0.00  0.00    +0.020 A 
ATOM     13  C   UNL     1       2.397   0.029  -0.021  0.00  0.00    +0.041 A 
ATOM     14  C   UNL     1       1.208  -0.679  -0.013  0.00  0.00    +0.020 A 
ATOM     15  C   UNL     1       0.002  -0.004   0.002  0.00  0.00    +0.008 A 
ATOM     16  C   UNL     1      -0.017   1.378   0.010  0.00  0.00    -0.010 A 
ATOM     17 CL   UNL     1       3.912  -0.818  -0.039  0.00  0.00    -0.084 Cl
ENDBRANCH  10  16
ENDBRANCH   9  10
ENDBRANCH   2   9
ENDBRANCH   1   7
BRANCH   1  18
ATOM     18  N   UNL     1      -1.479   3.741   4.275  0.00  0.00    +0.383 N 
ATOM     19  H   UNL     1      -1.876   4.670   4.460  0.00  0.00    -0.085 HD
ATOM     20  H   UNL     1      -0.877   3.785   3.445  0.00  0.00    -0.085 HD
BRANCH  18  21
ATOM     21  C   UNL     1      -0.675   3.316   5.437  0.00  0.00    -0.063 C 
BRANCH  21  22
ATOM     22  C   UNL     1       0.451   4.326   5.664  0.00  0.00    +0.082 C 
BRANCH  22  23
ATOM     23  N   UNL     1       1.254   3.911   6.816  0.00  0.00    -0.345 N 
ATOM     24  H   UNL     1       1.028   3.100   7.299  0.00  0.00    +0.146 HD
BRANCH  23  25
ATOM     25  C   UNL     1       2.348   4.682   7.220  0.00  0.00    +0.046 A 
ATOM     26  C   UNL     1       2.674   5.842   6.530  0.00  0.00    +0.026 A 
ATOM     27  C   UNL     1       3.755   6.602   6.932  0.00  0.00    +0.034 A 
ATOM     28  C   UNL     1       4.513   6.209   8.020  0.00  0.00    +0.128 A 
ATOM     29  C   UNL     1       4.192   5.054   8.710  0.00  0.00    +0.054 A 
ATOM     30  C   UNL     1       3.108   4.292   8.317  0.00  0.00    +0.064 A 
ATOM     31 CL   UNL     1       2.700   2.847   9.188  0.00  0.00    -0.082 Cl
BRANCH  28  32
ATOM     32  N   UNL     1       5.671   7.026   8.447  0.00  0.00    +0.056 N 
ATOM     33  O   UNL     1       5.955   8.043   7.841  0.00  0.00    -0.126 OA
ATOM     34  O   UNL     1       6.339   6.681   9.405  0.00  0.00    -0.126 OA
ENDBRANCH  28  32
ENDBRANCH  23  25
ENDBRANCH  22  23
ENDBRANCH  21  22
ENDBRANCH  18  21
ENDBRANCH   1  18
TORSDOF 10
