REMARK  Name = ZINC39711239
REMARK  10 active torsions:
REMARK  status: ('A' for Active; 'I' for Inactive)
REMARK    1  A    between atoms: C_1  and  C_2
REMARK    2  A    between atoms: C_6  and  C_15
REMARK    3  A    between atoms: C_13  and  C_14
REMARK    4  A    between atoms: C_15  and  C_17
REMARK    5  A    between atoms: C_15  and  N_29
REMARK    6  A    between atoms: N_22  and  C_23
REMARK    7  A    between atoms: N_29  and  C_30
REMARK    8  A    between atoms: N_29  and  C_37
REMARK    9  A    between atoms: C_30  and  C_31
REMARK   10  A    between atoms: C_37  and  C_38
REMARK                            x       y       z     vdW  Elec       q    Type
REMARK                         _______ _______ _______ _____ _____    ______ ____
ROOT
ATOM      1  C   UNL     1       0.731  -5.894  -2.573  0.00  0.00    -0.009 C 
ENDROOT
BRANCH   1   7
ATOM      2  C   UNL     1      -1.645  -0.268   1.130  0.00  0.00    +0.044 C 
ATOM      3  C   UNL     1      -1.246  -1.714   0.987  0.00  0.00    -0.047 A 
ATOM      4  C   UNL     1      -1.266  -2.291  -0.242  0.00  0.00    +0.013 A 
ATOM      5  C   UNL     1      -0.875  -3.696  -0.369  0.00  0.00    -0.007 A 
ATOM      6  C   UNL     1      -0.879  -4.316  -1.583  0.00  0.00    -0.006 C 
ATOM      7  C   UNL     1      -0.460  -5.773  -1.620  0.00  0.00    +0.088 C 
ATOM      8  C   UNL     1      -0.072  -6.418  -0.309  0.00  0.00    +0.223 C 
ATOM      9  O   UNL     1       0.273  -7.585  -0.281  0.00  0.00    -0.275 OA
ATOM     10  N   UNL     1      -0.108  -5.710   0.807  0.00  0.00    -0.285 N 
ATOM     11  C   UNL     1      -0.476  -4.429   0.845  0.00  0.00    +0.041 A 
ATOM     12  C   UNL     1      -0.491  -3.738   2.070  0.00  0.00    +0.027 A 
ATOM     13  C   UNL     1      -0.859  -2.431   2.120  0.00  0.00    -0.046 A 
ATOM     14  C   UNL     1      -0.854  -1.728   3.453  0.00  0.00    +0.044 C 
ATOM     15  H   UNL     1       0.145  -6.143   1.637  0.00  0.00    +0.155 HD
ENDBRANCH   1   7
BRANCH   1  16
ATOM     16  C   UNL     1       1.938  -5.166  -1.977  0.00  0.00    +0.205 C 
ATOM     17  N   UNL     1       2.285  -5.737  -0.668  0.00  0.00    -0.152 NA
ATOM     18  N   UNL     1       2.175  -4.860   0.191  0.00  0.00    -0.070 NA
ATOM     19  N   UNL     1       1.766  -3.635  -0.333  0.00  0.00    -0.179 N 
ATOM     20  N   UNL     1       1.600  -3.756  -1.691  0.00  0.00    -0.185 NA
ATOM     21  H   UNL     1       1.621  -2.824   0.180  0.00  0.00    +0.191 HD
BRANCH  20  22
ATOM     22  C   UNL     1       2.493  -2.843  -2.416  0.00  0.00    +0.080 C 
ATOM     23  C   UNL     1       3.912  -2.969  -1.860  0.00  0.00    +0.021 C 
ATOM     24  C   UNL     1       4.843  -2.018  -2.615  0.00  0.00    +0.002 C 
ATOM     25  C   UNL     1       4.352  -0.579  -2.441  0.00  0.00    +0.000 C 
ATOM     26  C   UNL     1       2.933  -0.453  -2.998  0.00  0.00    +0.002 C 
ATOM     27  C   UNL     1       2.002  -1.404  -2.242  0.00  0.00    +0.021 C 
ENDBRANCH  20  22
ENDBRANCH   1  16
BRANCH   1  28
ATOM     28  N   UNL     1       1.062  -7.312  -2.766  0.00  0.00    +0.392 N 
ATOM     29  H   UNL     1       1.129  -7.767  -1.868  0.00  0.00    -0.080 HD
BRANCH  28  30
ATOM     30  C   UNL     1       2.346  -7.425  -3.470  0.00  0.00    -0.042 C 
BRANCH  30  31
ATOM     31  C   UNL     1       3.466  -7.484  -2.464  0.00  0.00    -0.064 A 
ATOM     32  C   UNL     1       4.381  -6.451  -2.386  0.00  0.00    +0.002 A 
ATOM     33  C   UNL     1       5.409  -6.506  -1.463  0.00  0.00    +0.000 A 
ATOM     34  C   UNL     1       5.522  -7.594  -0.619  0.00  0.00    +0.000 A 
ATOM     35  C   UNL     1       4.607  -8.627  -0.696  0.00  0.00    +0.000 A 
ATOM     36  C   UNL     1       3.577  -8.570  -1.616  0.00  0.00    +0.002 A 
ENDBRANCH  30  31
ENDBRANCH  28  30
BRANCH  28  37
ATOM     37  C   UNL     1       0.009  -7.956  -3.563  0.00  0.00    -0.002 C 
BRANCH  37  38
ATOM     38  C   UNL     1      -1.198  -8.205  -2.694  0.00  0.00    +0.089 A 
ATOM     39  C   UNL     1      -2.382  -7.576  -2.795  0.00  0.00    +0.042 A 
ATOM     40  C   UNL     1      -3.219  -8.116  -1.791  0.00  0.00    +0.041 A 
ATOM     41  C   UNL     1      -2.495  -9.042  -1.137  0.00  0.00    +0.195 A 
ATOM     42  O   UNL     1      -1.274  -9.096  -1.692  0.00  0.00    -0.470 OA
ENDBRANCH  37  38
ENDBRANCH  28  37
ENDBRANCH   1  28
TORSDOF 8
