REMARK  Name = ZINC24985295
REMARK  13 active torsions:
REMARK  status: ('A' for Active; 'I' for Inactive)
REMARK    1  A    between atoms: C_1  and  C_2
REMARK    2  A    between atoms: C_2  and  C_4
REMARK    3  A    between atoms: C_2  and  S_14
REMARK    4  A    between atoms: N_10  and  C_11
REMARK    5  A    between atoms: N_10  and  C_12
REMARK    6  A    between atoms: S_14  and  C_15
REMARK    7  A    between atoms: C_18  and  C_23
REMARK    8  A    between atoms: N_19  and  C_20
REMARK    9  A    between atoms: C_20  and  C_21
REMARK   10  A    between atoms: C_26  and  C_29
REMARK   11  A    between atoms: C_29  and  C_30
REMARK   12  A    between atoms: C_29  and  C_31
REMARK   13  A    between atoms: C_29  and  C_32
REMARK                            x       y       z     vdW  Elec       q    Type
REMARK                         _______ _______ _______ _____ _____    ______ ____
ROOT
ATOM      1  C   UNL     1      -2.328   2.003  -2.313  0.00  0.00    +0.193 A 
ATOM      2  N   UNL     1      -2.999   1.174  -3.080  0.00  0.00    -0.122 NA
ATOM      3  N   UNL     1      -3.382   0.154  -2.398  0.00  0.00    -0.128 NA
ATOM      4  C   UNL     1      -2.975   0.267  -1.155  0.00  0.00    +0.165 A 
ATOM      5  N   UNL     1      -2.284   1.453  -1.064  0.00  0.00    -0.298 N 
ENDROOT
BRANCH   4   6
ATOM      6  C   UNL     1      -3.213  -0.698  -0.061  0.00  0.00    +0.019 A 
ATOM      7  C   UNL     1      -2.416  -0.671   1.084  0.00  0.00    +0.012 A 
ATOM      8  C   UNL     1      -2.647  -1.571   2.103  0.00  0.00    +0.005 A 
ATOM      9  C   UNL     1      -3.660  -2.505   1.989  0.00  0.00    -0.042 A 
ATOM     10  C   UNL     1      -4.451  -2.541   0.854  0.00  0.00    +0.005 A 
ATOM     11  C   UNL     1      -4.234  -1.643  -0.171  0.00  0.00    +0.012 A 
BRANCH   9  12
ATOM     12  C   UNL     1      -3.904  -3.489   3.104  0.00  0.00    -0.013 C 
ATOM     13  C   UNL     1      -3.730  -4.914   2.575  0.00  0.00    +0.015 C 
ATOM     14  C   UNL     1      -2.902  -3.238   4.233  0.00  0.00    +0.015 C 
ATOM     15  C   UNL     1      -5.327  -3.313   3.638  0.00  0.00    +0.015 C 
ENDBRANCH   9  12
ENDBRANCH   4   6
BRANCH   1  16
ATOM     16  S   UNL     1      -1.615   3.537  -2.805  0.00  0.00    -0.075 S 
BRANCH  16  18
ATOM     17  C   UNL     1      -3.614   3.644  -4.664  0.00  0.00    +0.028 C 
ATOM     18  C   UNL     1      -2.091   3.559  -4.551  0.00  0.00    +0.119 C 
BRANCH  18  19
ATOM     19  C   UNL     1      -1.470   4.755  -5.226  0.00  0.00    +0.149 A 
ATOM     20  N   UNL     1      -1.513   5.939  -4.640  0.00  0.00    -0.198 NA
ATOM     21  C   UNL     1      -0.962   6.996  -5.231  0.00  0.00    +0.217 A 
ATOM     22  N   UNL     1      -0.377   6.863  -6.416  0.00  0.00    -0.181 NA
ATOM     23  C   UNL     1      -0.341   5.673  -7.005  0.00  0.00    +0.222 A 
ATOM     24  N   UNL     1      -0.890   4.619  -6.406  0.00  0.00    -0.198 NA
ATOM     25  N   UNL     1       0.266   5.529  -8.236  0.00  0.00    -0.306 N 
ATOM     26  C   UNL     1       0.306   4.216  -8.884  0.00  0.00    +0.132 C 
ATOM     27  C   UNL     1       0.870   6.690  -8.895  0.00  0.00    +0.132 C 
ATOM     28  N   UNL     1      -1.002   8.231  -4.615  0.00  0.00    -0.327 N 
ATOM     29  H   UNL     1      -0.547   9.104  -5.104  0.00  0.00    +0.145 HD
ATOM     30  H   UNL     1      -1.490   8.341  -3.635  0.00  0.00    +0.145 HD
ENDBRANCH  18  19
ENDBRANCH  16  18
ENDBRANCH   1  16
BRANCH   5  31
ATOM     31  C   UNL     1      -1.640   2.013   0.128  0.00  0.00    +0.152 C 
BRANCH  31  32
ATOM     32  C   UNL     1      -0.202   1.567   0.177  0.00  0.00    -0.013 C 
ATOM     33  C   UNL     1       0.757   2.456   0.260  0.00  0.00    +0.005 C 
ENDBRANCH  31  32
ENDBRANCH   5  31
TORSDOF 7
