REMARK  Name = ZINC63180015
REMARK  6 active torsions:
REMARK  status: ('A' for Active; 'I' for Inactive)
REMARK    1  A    between atoms: C_1  and  C_2
REMARK    2  A    between atoms: C_5  and  C_9
REMARK    3  A    between atoms: C_11  and  C_15
REMARK    4  A    between atoms: C_15  and  S_16
REMARK    5  A    between atoms: S_16  and  C_17
REMARK    6  A    between atoms: C_20  and  C_22
REMARK                            x       y       z     vdW  Elec       q    Type
REMARK                         _______ _______ _______ _____ _____    ______ ____
ROOT
ATOM      1  C   UNL     1      -1.594  -7.122   0.375  0.00  0.00    +0.135 C 
ENDROOT
BRANCH   1   4
ATOM      2  C   UNL     1       0.059  -4.255  -0.024  0.00  0.00    +0.134 C 
ATOM      3  N   UNL     1      -0.467  -4.999   0.899  0.00  0.00    -0.342 N 
ATOM      4  C   UNL     1      -0.252  -6.408   0.547  0.00  0.00    +0.253 C 
ATOM      5  O   UNL     1       0.466  -6.386  -0.696  0.00  0.00    -0.247 OA
ATOM      6  N   UNL     1       0.631  -5.014  -1.015  0.00  0.00    -0.247 N 
ATOM      7  H   UNL     1       1.078  -4.668  -1.803  0.00  0.00    +0.196 HD
ATOM      8  H   UNL     1      -0.926  -4.678   1.691  0.00  0.00    +0.164 HD
BRANCH   2  13
ATOM      9  C   UNL     1      -0.018   1.503   0.010  0.00  0.00    +0.047 C 
ATOM     10  C   UNL     1       0.002  -0.004   0.002  0.00  0.00    -0.015 A 
ATOM     11  C   UNL     1       0.006  -0.686  -1.201  0.00  0.00    +0.007 A 
ATOM     12  C   UNL     1       0.024  -2.066  -1.216  0.00  0.00    +0.012 A 
ATOM     13  C   UNL     1       0.040  -2.774  -0.014  0.00  0.00    +0.020 A 
ATOM     14  C   UNL     1       0.036  -2.083   1.197  0.00  0.00    +0.050 A 
ATOM     15  C   UNL     1       0.023  -0.701   1.199  0.00  0.00    +0.127 A 
ATOM     16  F   UNL     1       0.025  -0.028   2.371  0.00  0.00    -0.205 F 
ENDBRANCH   2  13
ENDBRANCH   1   4
BRANCH   1  17
ATOM     17  S   UNL     1      -2.540  -6.318  -0.948  0.00  0.00    -0.061 S 
BRANCH  17  18
ATOM     18  C   UNL     1      -4.038  -7.243  -1.023  0.00  0.00    +0.278 A 
ATOM     19  N   UNL     1      -4.357  -8.277  -0.261  0.00  0.00    -0.101 NA
ATOM     20  N   UNL     1      -5.525  -8.706  -0.591  0.00  0.00    -0.107 NA
ATOM     21  C   UNL     1      -5.999  -7.963  -1.578  0.00  0.00    +0.248 A 
ATOM     22  O   UNL     1      -5.066  -7.023  -1.861  0.00  0.00    -0.411 OA
BRANCH  21  23
ATOM     23  C   UNL     1      -7.242  -8.117  -2.210  0.00  0.00    +0.044 C 
ATOM     24  C   UNL     1      -8.220  -9.070  -1.926  0.00  0.00    +0.008 A 
ATOM     25  C   UNL     1      -8.286 -10.117  -0.983  0.00  0.00    +0.010 A 
ATOM     26  C   UNL     1      -9.389 -10.908  -0.929  0.00  0.00    +0.001 A 
ATOM     27  C   UNL     1     -10.471 -10.712  -1.789  0.00  0.00    +0.002 A 
ATOM     28  C   UNL     1     -10.477  -9.726  -2.719  0.00  0.00    +0.026 A 
ATOM     29  C   UNL     1      -9.359  -8.859  -2.835  0.00  0.00    +0.043 A 
ATOM     30  N   UNL     1      -9.123  -7.843  -3.642  0.00  0.00    -0.380 N 
ATOM     31  C   UNL     1      -7.804  -7.281  -3.338  0.00  0.00    +0.154 C 
ATOM     32  H   UNL     1      -9.728  -7.518  -4.327  0.00  0.00    +0.160 HD
ENDBRANCH  21  23
ENDBRANCH  17  18
ENDBRANCH   1  17
TORSDOF 5
