REMARK  Name = ZINC30883014
REMARK  11 active torsions:
REMARK  status: ('A' for Active; 'I' for Inactive)
REMARK    1  A    between atoms: C_1  and  C_2
REMARK    2  A    between atoms: C_4  and  C_31
REMARK    3  A    between atoms: C_6  and  C_28
REMARK    4  A    between atoms: C_9  and  C_11
REMARK    5  A    between atoms: C_11  and  C_12
REMARK    6  A    between atoms: C_15  and  C_17
REMARK    7  A    between atoms: C_17  and  C_18
REMARK    8  A    between atoms: C_28  and  C_29
REMARK    9  A    between atoms: C_28  and  C_30
REMARK   10  A    between atoms: C_31  and  N_32
REMARK   11  A    between atoms: N_35  and  C_38
REMARK                            x       y       z     vdW  Elec       q    Type
REMARK                         _______ _______ _______ _____ _____    ______ ____
ROOT
ATOM      1  C   UNL     1       4.734   7.762  -1.445  0.00  0.00    +0.039 C 
ATOM      2  C   UNL     1       5.159   7.228  -2.788  0.00  0.00    -0.073 C 
ATOM      3  C   UNL     1       6.168   6.418  -2.828  0.00  0.00    -0.026 C 
ATOM      4  C   UNL     1       6.713   5.815  -4.090  0.00  0.00    -0.002 C 
ATOM      5  C   UNL     1       5.686   5.937  -5.218  0.00  0.00    -0.003 C 
ATOM      6  C   UNL     1       5.190   7.388  -5.268  0.00  0.00    +0.012 C 
ATOM      7  C   UNL     1       4.386   7.668  -3.997  0.00  0.00    +0.024 C 
ENDROOT
BRANCH   5   8
ATOM      8  C   UNL     1       6.341   5.571  -6.551  0.00  0.00    -0.014 C 
ATOM      9  C   UNL     1       5.280   5.555  -7.654  0.00  0.00    +0.007 C 
ATOM     10  C   UNL     1       7.416   6.605  -6.893  0.00  0.00    +0.007 C 
ENDBRANCH   5   8
BRANCH   7  11
ATOM     11  C   UNL     1       3.061   6.906  -4.056  0.00  0.00    +0.105 C 
BRANCH  11  12
ATOM     12  C   UNL     1       2.208   7.288  -2.874  0.00  0.00    +0.218 A 
ATOM     13  N   UNL     1       1.347   8.265  -2.829  0.00  0.00    -0.112 NA
ATOM     14  N   UNL     1       0.797   8.296  -1.666  0.00  0.00    -0.112 NA
ATOM     15  C   UNL     1       1.295   7.346  -0.927  0.00  0.00    +0.222 A 
ATOM     16  O   UNL     1       2.195   6.685  -1.674  0.00  0.00    -0.424 OA
BRANCH  15  17
ATOM     17  C   UNL     1       0.925   7.040   0.501  0.00  0.00    +0.135 C 
BRANCH  17  18
ATOM     18  C   UNL     1      -0.219   6.060   0.525  0.00  0.00    -0.013 A 
ATOM     19  C   UNL     1      -1.524   6.358   0.626  0.00  0.00    +0.087 A 
ATOM     20  N   UNL     1      -2.267   5.209   0.616  0.00  0.00    -0.360 N 
ATOM     21  H   UNL     1      -3.363   5.263   0.690  0.00  0.00    +0.165 HD
ATOM     22  C   UNL     1      -1.438   4.116   0.505  0.00  0.00    +0.047 A 
ATOM     23  C   UNL     1      -0.118   4.601   0.444  0.00  0.00    +0.003 A 
ATOM     24  C   UNL     1       0.948   3.707   0.328  0.00  0.00    +0.010 A 
ATOM     25  C   UNL     1       0.704   2.363   0.274  0.00  0.00    +0.001 A 
ATOM     26  C   UNL     1      -0.596   1.880   0.335  0.00  0.00    +0.002 A 
ATOM     27  C   UNL     1      -1.663   2.745   0.444  0.00  0.00    +0.026 A 
ENDBRANCH  17  18
ENDBRANCH  15  17
ENDBRANCH  11  12
ENDBRANCH   7  11
BRANCH   4  28
ATOM     28  C   UNL     1       7.029   4.337  -3.850  0.00  0.00    -0.071 C 
BRANCH  28  29
ATOM     29  N   UNL     1       8.079   4.221  -2.829  0.00  0.00    +0.382 N 
ATOM     30  C   UNL     1       9.351   4.772  -3.316  0.00  0.00    -0.063 C 
ATOM     31  C   UNL     1      10.394   4.705  -2.199  0.00  0.00    +0.065 C 
ATOM     32  N   UNL     1      10.559   3.309  -1.770  0.00  0.00    -0.309 NA
ATOM     33  C   UNL     1       9.287   2.757  -1.282  0.00  0.00    +0.065 C 
ATOM     34  C   UNL     1       8.243   2.825  -2.400  0.00  0.00    -0.063 C 
ATOM     35  C   UNL     1      11.609   3.192  -0.749  0.00  0.00    +0.104 C 
ATOM     36  H   UNL     1       7.765   4.810  -1.955  0.00  0.00    -0.082 HD
ENDBRANCH  28  29
ENDBRANCH   4  28
TORSDOF 7
