REMARK  Name = ZINC61638822
REMARK  7 active torsions:
REMARK  status: ('A' for Active; 'I' for Inactive)
REMARK    1  A    between atoms: C_1  and  C_2
REMARK    2  A    between atoms: C_2  and  C_3
REMARK    3  A    between atoms: C_3  and  C_4
REMARK    4  A    between atoms: N_7  and  C_10
REMARK    5  A    between atoms: C_10  and  C_11
REMARK    6  A    between atoms: C_15  and  N_17
REMARK    7  A    between atoms: N_17  and  N_18
REMARK                            x       y       z     vdW  Elec       q    Type
REMARK                         _______ _______ _______ _____ _____    ______ ____
ROOT
ATOM      1  C   UNL     1      -3.735  -6.462   1.374  0.00  0.00    +0.045 A 
ATOM      2  C   UNL     1      -4.383  -6.580   2.588  0.00  0.00    +0.060 A 
ATOM      3  C   UNL     1      -5.708  -6.995   2.614  0.00  0.00    +0.025 A 
ATOM      4  C   UNL     1      -6.335  -7.276   1.413  0.00  0.00    +0.046 A 
ATOM      5  C   UNL     1      -5.622  -7.135   0.228  0.00  0.00    +0.132 A 
ATOM      6  N   UNL     1      -4.360  -6.732   0.244  0.00  0.00    -0.236 NA
ATOM      7 CL   UNL     1      -3.549  -6.215   4.067  0.00  0.00    -0.082 Cl
ENDROOT
BRANCH   5   8
ATOM      8  N   UNL     1      -6.240  -7.415  -0.986  0.00  0.00    -0.268 N 
ATOM      9  H   UNL     1      -7.165  -7.707  -1.003  0.00  0.00    +0.167 HD
BRANCH   8  10
ATOM     10  N   UNL     1      -5.545  -7.279  -2.154  0.00  0.00    -0.255 NA
ATOM     11  H   UNL     1      -6.121  -7.516  -2.947  0.00  0.00    +0.140 HD
ATOM     12  H   UNL     1      -5.170  -6.346  -2.245  0.00  0.00    +0.140 HD
ENDBRANCH   8  10
ENDBRANCH   5   8
BRANCH   1  13
ATOM     13  C   UNL     1      -2.296  -6.013   1.339  0.00  0.00    -0.021 C 
BRANCH  13  17
ATOM     14  C   UNL     1      -1.413  -2.063   0.004  0.00  0.00    -0.014 C 
ATOM     15  C   UNL     1      -0.792  -2.574   1.308  0.00  0.00    -0.015 C 
ATOM     16  C   UNL     1      -0.847  -4.104   1.328  0.00  0.00    -0.078 C 
ATOM     17  N   UNL     1      -2.243  -4.548   1.241  0.00  0.00    +0.383 N 
ATOM     18  C   UNL     1      -2.823  -4.123  -0.038  0.00  0.00    -0.078 C 
ATOM     19  C   UNL     1      -2.844  -2.594  -0.111  0.00  0.00    -0.015 C 
ATOM     20  H   UNL     1      -2.772  -4.143   2.000  0.00  0.00    -0.081 HD
BRANCH  14  21
ATOM     21  C   UNL     1      -1.433  -0.534   0.013  0.00  0.00    +0.003 C 
BRANCH  21  23
ATOM     22  C   UNL     1      -0.019   1.526   0.010  0.00  0.00    +0.004 C 
ATOM     23  C   UNL     1       0.002  -0.004   0.002  0.00  0.00    -0.003 C 
ENDBRANCH  21  23
ENDBRANCH  14  21
ENDBRANCH  13  17
ENDBRANCH   1  13
TORSDOF 6
