REMARK  Name = ZINC34588103
REMARK  3 active torsions:
REMARK  status: ('A' for Active; 'I' for Inactive)
REMARK    1  A    between atoms: C_4  and  N_7
REMARK    2  A    between atoms: C_8  and  C_30
REMARK    3  A    between atoms: C_21  and  C_23
REMARK                            x       y       z     vdW  Elec       q    Type
REMARK                         _______ _______ _______ _____ _____    ______ ____
ROOT
ATOM      1  N   UNL     1       3.713  -0.634  -0.034  0.00  0.00    -0.280 N 
ATOM      2  C   UNL     1       3.712  -2.098   0.104  0.00  0.00    +0.141 C 
ATOM      3  C   UNL     1       4.839  -2.501   1.026  0.00  0.00    +0.020 A 
ATOM      4  C   UNL     1       4.860  -3.812   1.510  0.00  0.00    +0.010 A 
ATOM      5  C   UNL     1       5.846  -4.248   2.338  0.00  0.00    +0.009 A 
ATOM      6  C   UNL     1       6.873  -3.367   2.717  0.00  0.00    -0.014 A 
ATOM      7  C   UNL     1       7.913  -3.780   3.568  0.00  0.00    +0.008 A 
ATOM      8  C   UNL     1       8.892  -2.899   3.910  0.00  0.00    +0.001 A 
ATOM      9  C   UNL     1       8.880  -1.591   3.429  0.00  0.00    +0.001 A 
ATOM     10  C   UNL     1       7.887  -1.157   2.604  0.00  0.00    +0.012 A 
ATOM     11  C   UNL     1       6.859  -2.038   2.232  0.00  0.00    +0.024 A 
ATOM     12  C   UNL     1       5.811  -1.614   1.381  0.00  0.00    +0.136 A 
ATOM     13  O   UNL     1       5.811  -0.324   0.961  0.00  0.00    -0.466 OA
ATOM     14  C   UNL     1       5.025   0.019  -0.188  0.00  0.00    +0.295 C 
ENDROOT
BRANCH  14  15
ATOM     15  C   UNL     1       4.847   1.514  -0.261  0.00  0.00    +0.011 A 
ATOM     16  C   UNL     1       4.237   2.188   0.780  0.00  0.00    +0.010 A 
ATOM     17  C   UNL     1       4.073   3.559   0.713  0.00  0.00    +0.020 A 
ATOM     18  C   UNL     1       4.520   4.256  -0.396  0.00  0.00    +0.041 A 
ATOM     19  C   UNL     1       5.130   3.580  -1.437  0.00  0.00    +0.020 A 
ATOM     20  C   UNL     1       5.298   2.210  -1.367  0.00  0.00    +0.010 A 
ATOM     21 CL   UNL     1       4.314   5.978  -0.480  0.00  0.00    -0.084 Cl
ENDBRANCH  14  15
BRANCH   2  22
ATOM     22  C   UNL     1       3.910  -2.733  -1.248  0.00  0.00    -0.022 A 
ATOM     23  C   UNL     1       2.920  -3.533  -1.788  0.00  0.00    +0.007 A 
ATOM     24  C   UNL     1       3.102  -4.115  -3.028  0.00  0.00    +0.020 A 
ATOM     25  C   UNL     1       4.275  -3.898  -3.729  0.00  0.00    +0.041 A 
ATOM     26  C   UNL     1       5.265  -3.098  -3.188  0.00  0.00    +0.020 A 
ATOM     27  C   UNL     1       5.080  -2.511  -1.950  0.00  0.00    +0.007 A 
ATOM     28 CL   UNL     1       4.504  -4.630  -5.286  0.00  0.00    -0.084 Cl
ENDBRANCH   2  22
BRANCH   1  32
ATOM     29  C   UNL     1       0.175   1.561  -0.007  0.00  0.00    +0.000 A 
ATOM     30  C   UNL     1       0.601   0.925   1.145  0.00  0.00    +0.002 A 
ATOM     31  C   UNL     1       1.774   0.196   1.139  0.00  0.00    +0.023 A 
ATOM     32  C   UNL     1       2.526   0.102  -0.025  0.00  0.00    +0.033 A 
ATOM     33  C   UNL     1       2.095   0.742  -1.180  0.00  0.00    +0.023 A 
ATOM     34  C   UNL     1       0.921   1.470  -1.167  0.00  0.00    +0.002 A 
ENDBRANCH   1  32
TORSDOF 3
