REMARK  Name = ZINC53568197
REMARK  7 active torsions:
REMARK  status: ('A' for Active; 'I' for Inactive)
REMARK    1  A    between atoms: C_1  and  C_2
REMARK    2  A    between atoms: C_2  and  C_4
REMARK    3  A    between atoms: C_2  and  N_9
REMARK    4  A    between atoms: N_9  and  C_10
REMARK    5  A    between atoms: C_10  and  C_11
REMARK    6  A    between atoms: C_11  and  O_12
REMARK    7  A    between atoms: O_12  and  C_13
REMARK                            x       y       z     vdW  Elec       q    Type
REMARK                         _______ _______ _______ _____ _____    ______ ____
ROOT
ATOM      1  C   UNL     1       2.122  -0.083   1.122  0.00  0.00    -0.040 C 
ENDROOT
BRANCH   1   2
ATOM      2  N   UNL     1       0.713  -0.491   1.192  0.00  0.00    +0.388 N 
ATOM      3  H   UNL     1       0.290  -0.099   2.020  0.00  0.00    -0.085 HD
ATOM      4  H   UNL     1       0.655  -1.497   1.230  0.00  0.00    -0.085 HD
BRANCH   2   6
ATOM      5  C   UNL     1      -0.019   1.526   0.010  0.00  0.00    -0.006 C 
ATOM      6  C   UNL     1       0.002  -0.004   0.002  0.00  0.00    -0.007 C 
BRANCH   6   7
ATOM      7  C   UNL     1      -1.412  -0.526   0.013  0.00  0.00    +0.091 A 
ATOM      8  C   UNL     1      -2.093  -0.975  -1.057  0.00  0.00    +0.043 A 
ATOM      9  C   UNL     1      -3.371  -1.363  -0.595  0.00  0.00    +0.041 A 
ATOM     10  C   UNL     1      -3.395  -1.128   0.729  0.00  0.00    +0.195 A 
ATOM     11  O   UNL     1      -2.204  -0.626   1.093  0.00  0.00    -0.469 OA
ENDBRANCH   6   7
ENDBRANCH   2   6
ENDBRANCH   1   2
BRANCH   1  12
ATOM     12  C   UNL     1       2.862  -0.589   2.361  0.00  0.00    +0.210 C 
BRANCH  12  13
ATOM     13  O   UNL     1       2.881  -2.018   2.354  0.00  0.00    -0.492 OA
BRANCH  13  14
ATOM     14  C   UNL     1       3.505  -2.633   3.393  0.00  0.00    +0.148 A 
ATOM     15  C   UNL     1       4.860  -2.924   3.317  0.00  0.00    +0.061 A 
ATOM     16  C   UNL     1       5.492  -3.549   4.376  0.00  0.00    +0.019 A 
ATOM     17  C   UNL     1       4.776  -3.883   5.510  0.00  0.00    +0.002 A 
ATOM     18  C   UNL     1       3.426  -3.594   5.589  0.00  0.00    +0.019 A 
ATOM     19  C   UNL     1       2.790  -2.964   4.535  0.00  0.00    +0.061 A 
ATOM     20 BR   UNL     1       0.946  -2.562   4.647  0.00  0.00    -0.046 Br
ATOM     21 BR   UNL     1       5.840  -2.469   1.766  0.00  0.00    -0.046 Br
ENDBRANCH  13  14
ENDBRANCH  12  13
ENDBRANCH   1  12
TORSDOF 6
