REMARK  Name = ZINC34802824
REMARK  6 active torsions:
REMARK  status: ('A' for Active; 'I' for Inactive)
REMARK    1  A    between atoms: C_1  and  C_2
REMARK    2  A    between atoms: C_2  and  C_3
REMARK    3  A    between atoms: C_7  and  C_9
REMARK    4  A    between atoms: C_10  and  C_11
REMARK    5  A    between atoms: C_26  and  C_32
REMARK    6  A    between atoms: C_29  and  O_31
REMARK                            x       y       z     vdW  Elec       q    Type
REMARK                         _______ _______ _______ _____ _____    ______ ____
ROOT
ATOM      1  C   UNL     1       5.947   1.349   2.106  0.00  0.00    +0.021 C 
ATOM      2  C   UNL     1       6.861   0.852   0.984  0.00  0.00    -0.001 C 
ATOM      3  C   UNL     1       6.873  -0.678   0.997  0.00  0.00    +0.004 C 
ATOM      4  C   UNL     1       7.830  -1.197  -0.078  0.00  0.00    +0.000 C 
ATOM      5  C   UNL     1       9.241  -0.681   0.211  0.00  0.00    +0.000 C 
ATOM      6  C   UNL     1       9.233   0.848   0.186  0.00  0.00    +0.004 C 
ATOM      7  C   UNL     1       8.272   1.391   1.248  0.00  0.00    -0.007 C 
ATOM      8  C   UNL     1       8.228   2.916   1.164  0.00  0.00    +0.012 C 
ATOM      9  C   UNL     1       7.312   3.505   2.238  0.00  0.00    +0.051 C 
ATOM     10  C   UNL     1       5.918   2.851   2.189  0.00  0.00    +0.033 C 
ATOM     11  C   UNL     1       5.296   3.519   0.951  0.00  0.00    +0.122 C 
ATOM     12  O   UNL     1       5.766   4.880   1.006  0.00  0.00    -0.348 OA
ATOM     13  C   UNL     1       6.974   4.951   1.777  0.00  0.00    +0.251 C 
ATOM     14  C   UNL     1       3.768   3.474   1.030  0.00  0.00    +0.038 C 
ENDROOT
BRANCH   1  16
ATOM     15  C   UNL     1       3.915   0.157   2.797  0.00  0.00    +0.024 C 
ATOM     16  C   UNL     1       4.549   0.845   1.857  0.00  0.00    -0.021 C 
BRANCH  15  21
ATOM     17  C   UNL     1       0.730  -0.511   1.134  0.00  0.00    +0.042 A 
ATOM     18  C   UNL     1       0.017  -1.234   2.073  0.00  0.00    +0.023 A 
ATOM     19  C   UNL     1       0.598  -1.516   3.302  0.00  0.00    +0.004 A 
ATOM     20  C   UNL     1       1.882  -1.060   3.545  0.00  0.00    +0.028 A 
ATOM     21  C   UNL     1       2.544  -0.337   2.553  0.00  0.00    +0.064 A 
ATOM     22  N   UNL     1       1.953  -0.093   1.389  0.00  0.00    -0.252 NA
BRANCH  17  24
ATOM     23  C   UNL     1       0.141   1.306  -0.447  0.00  0.00    +0.010 C 
ATOM     24  C   UNL     1       0.102  -0.203  -0.201  0.00  0.00    +0.052 C 
ENDBRANCH  17  24
ENDBRANCH  15  21
ENDBRANCH   1  16
BRANCH  13  25
ATOM     25  O   UNL     1       6.782   5.791   2.917  0.00  0.00    -0.367 OA
ATOM     26  H   UNL     1       6.567   6.708   2.697  0.00  0.00    +0.212 HD
ENDBRANCH  13  25
TORSDOF 4
