REMARK  Name = ZINC59039928
REMARK  7 active torsions:
REMARK  status: ('A' for Active; 'I' for Inactive)
REMARK    1  A    between atoms: C_1  and  C_2
REMARK    2  A    between atoms: C_2  and  O_3
REMARK    3  A    between atoms: O_3  and  C_4
REMARK    4  A    between atoms: C_4  and  C_6
REMARK    5  A    between atoms: C_7  and  C_8
REMARK    6  A    between atoms: C_11  and  N_14
REMARK    7  A    between atoms: C_20  and  C_23
REMARK                            x       y       z     vdW  Elec       q    Type
REMARK                         _______ _______ _______ _____ _____    ______ ____
ROOT
ATOM      1  N   UNL     1      -8.139  -5.971   0.113  0.00  0.00    -0.269 N 
ATOM      2  C   UNL     1      -8.297  -7.299  -0.055  0.00  0.00    +0.306 C 
ATOM      3  O   UNL     1      -7.324  -8.024  -0.122  0.00  0.00    -0.252 OA
ATOM      4  N   UNL     1      -9.536  -7.823  -0.147  0.00  0.00    -0.285 N 
ATOM      5  C   UNL     1     -10.712  -6.950  -0.255  0.00  0.00    +0.110 C 
ATOM      6  C   UNL     1     -11.524  -7.365  -1.486  0.00  0.00    +0.027 C 
ATOM      7  C   UNL     1     -11.854  -8.857  -1.394  0.00  0.00    +0.022 C 
ATOM      8  C   UNL     1     -10.557  -9.668  -1.375  0.00  0.00    +0.027 C 
ATOM      9  C   UNL     1      -9.734  -9.279  -0.149  0.00  0.00    +0.110 C 
ATOM     10  H   UNL     1      -8.908  -5.410   0.299  0.00  0.00    +0.156 HD
ENDROOT
BRANCH   1  14
ATOM     11  C   UNL     1      -4.343  -4.275  -0.166  0.00  0.00    -0.025 A 
ATOM     12  C   UNL     1      -5.482  -3.488  -0.378  0.00  0.00    +0.010 A 
ATOM     13  C   UNL     1      -6.733  -4.052  -0.285  0.00  0.00    +0.024 A 
ATOM     14  C   UNL     1      -6.868  -5.404   0.020  0.00  0.00    +0.035 A 
ATOM     15  C   UNL     1      -5.740  -6.190   0.232  0.00  0.00    +0.024 A 
ATOM     16  C   UNL     1      -4.484  -5.635   0.135  0.00  0.00    +0.010 A 
BRANCH  11  18
ATOM     17  C   UNL     1      -2.871  -2.364  -0.555  0.00  0.00    +0.092 C 
ATOM     18  C   UNL     1      -3.005  -3.677  -0.264  0.00  0.00    +0.015 C 
BRANCH  17  19
ATOM     19  C   UNL     1      -1.580  -1.787  -0.650  0.00  0.00    +0.332 C 
ATOM     20  O   UNL     1      -0.592  -2.474  -0.470  0.00  0.00    -0.246 OA
BRANCH  19  21
ATOM     21  O   UNL     1      -1.447  -0.476  -0.940  0.00  0.00    -0.462 OA
BRANCH  21  23
ATOM     22  C   UNL     1      -0.165   1.531  -1.355  0.00  0.00    +0.048 C 
ATOM     23  C   UNL     1      -0.116   0.039  -1.020  0.00  0.00    +0.229 C 
ENDBRANCH  21  23
ENDBRANCH  19  21
ENDBRANCH  17  19
ENDBRANCH  11  18
ENDBRANCH   1  14
BRANCH   7  24
ATOM     24  C   UNL     1     -12.682  -9.262  -2.587  0.00  0.00    -0.044 A 
ATOM     25  C   UNL     1     -12.172  -9.115  -3.864  0.00  0.00    +0.004 A 
ATOM     26  C   UNL     1     -12.931  -9.486  -4.958  0.00  0.00    +0.000 A 
ATOM     27  C   UNL     1     -14.200 -10.005  -4.775  0.00  0.00    +0.000 A 
ATOM     28  C   UNL     1     -14.709 -10.153  -3.499  0.00  0.00    +0.000 A 
ATOM     29  C   UNL     1     -13.948  -9.785  -2.404  0.00  0.00    +0.004 A 
ENDBRANCH   7  24
TORSDOF 6
