REMARK  Name = ZINC08215641
REMARK  5 active torsions:
REMARK  status: ('A' for Active; 'I' for Inactive)
REMARK    1  A    between atoms: C_1  and  C_2
REMARK    2  A    between atoms: C_5  and  C_28
REMARK    3  A    between atoms: C_5  and  C_29
REMARK    4  A    between atoms: N_16  and  C_21
REMARK    5  A    between atoms: C_24  and  O_27
REMARK                            x       y       z     vdW  Elec       q    Type
REMARK                         _______ _______ _______ _____ _____    ______ ____
ROOT
ATOM      1  C   UNL     1      -2.480   6.912  -0.471  0.00  0.00    +0.012 C 
ATOM      2  C   UNL     1      -1.997   5.671   0.283  0.00  0.00    +0.020 C 
ATOM      3  C   UNL     1      -2.707   4.432  -0.269  0.00  0.00    +0.033 C 
ATOM      4  C   UNL     1      -2.235   3.145   0.416  0.00  0.00    +0.037 C 
ATOM      5  N   UNL     1      -0.774   3.046   0.255  0.00  0.00    -0.262 N 
ATOM      6  C   UNL     1      -0.015   4.220   0.114  0.00  0.00    +0.047 A 
ATOM      7  C   UNL     1      -0.509   5.524   0.105  0.00  0.00    -0.023 A 
ATOM      8  C   UNL     1       0.365   6.568  -0.059  0.00  0.00    +0.006 A 
ATOM      9  C   UNL     1       1.720   6.305  -0.210  0.00  0.00    +0.001 A 
ATOM     10  C   UNL     1       2.203   5.006  -0.196  0.00  0.00    +0.009 A 
ATOM     11  C   UNL     1       1.331   3.951  -0.030  0.00  0.00    +0.017 A 
ATOM     12  C   UNL     1       1.425   2.461   0.044  0.00  0.00    +0.193 C 
ATOM     13  C   UNL     1       0.016   1.964   0.229  0.00  0.00    +0.259 C 
ATOM     14  O   UNL     1      -0.336   0.807   0.330  0.00  0.00    -0.272 OA
ATOM     15  N   UNL     1       2.098   1.857  -1.100  0.00  0.00    -0.243 N 
ATOM     16  C   UNL     1       3.024   0.924  -0.882  0.00  0.00    +0.231 C 
ATOM     17  O   UNL     1       3.619   0.400  -1.800  0.00  0.00    -0.274 OA
ATOM     18  C   UNL     1       3.307   0.540   0.563  0.00  0.00    +0.168 C 
ATOM     19  S   UNL     1       2.482   1.936   1.449  0.00  0.00    -0.111 S 
ATOM     20  C   UNL     1      -2.593   3.190   1.902  0.00  0.00    +0.032 C 
ATOM     21  C   UNL     1      -2.906   1.936  -0.240  0.00  0.00    +0.032 C 
ENDROOT
BRANCH  15  22
ATOM     22  C   UNL     1       1.777   2.252  -2.406  0.00  0.00    +0.039 A 
ATOM     23  C   UNL     1       0.697   1.674  -3.060  0.00  0.00    +0.027 A 
ATOM     24  C   UNL     1       0.379   2.066  -4.345  0.00  0.00    +0.047 A 
ATOM     25  C   UNL     1       1.144   3.029  -4.986  0.00  0.00    +0.117 A 
ATOM     26  C   UNL     1       2.226   3.603  -4.335  0.00  0.00    +0.047 A 
ATOM     27  C   UNL     1       2.542   3.216  -3.048  0.00  0.00    +0.027 A 
BRANCH  25  28
ATOM     28  O   UNL     1       0.833   3.411  -6.254  0.00  0.00    -0.507 OA
ATOM     29  H   UNL     1       1.271   2.889  -6.940  0.00  0.00    +0.292 HD
ENDBRANCH  25  28
ENDBRANCH  15  22
TORSDOF 2
