REMARK  Name = ZINC20513911
REMARK  7 active torsions:
REMARK  status: ('A' for Active; 'I' for Inactive)
REMARK    1  A    between atoms: C_1  and  C_2
REMARK    2  A    between atoms: C_5  and  C_7
REMARK    3  A    between atoms: C_7  and  N_8
REMARK    4  A    between atoms: C_9  and  C_11
REMARK    5  A    between atoms: C_11  and  C_12
REMARK    6  A    between atoms: N_19  and  C_20
REMARK    7  A    between atoms: C_20  and  C_21
REMARK                            x       y       z     vdW  Elec       q    Type
REMARK                         _______ _______ _______ _____ _____    ______ ____
ROOT
ATOM      1  C   UNL     1      -5.894  -0.312   3.051  0.00  0.00    +0.028 C 
ATOM      2  C   UNL     1      -6.520  -0.329   4.417  0.00  0.00    +0.200 C 
ATOM      3  O   UNL     1      -6.234   0.553   5.199  0.00  0.00    -0.278 OA
ATOM      4  N   UNL     1      -7.379  -1.277   4.807  0.00  0.00    -0.318 N 
ATOM      5  C   UNL     1      -7.761  -2.401   3.957  0.00  0.00    +0.085 C 
ATOM      6  C   UNL     1      -7.425  -2.091   2.497  0.00  0.00    -0.058 C 
ATOM      7  N   UNL     1      -6.029  -1.632   2.421  0.00  0.00    +0.391 N 
ATOM      8  H   UNL     1      -7.803  -1.183   5.818  0.00  0.00    +0.149 HD
ATOM      9  H   UNL     1      -5.394  -2.345   2.968  0.00  0.00    -0.080 HD
ENDROOT
BRANCH   1  10
ATOM     10  C   UNL     1      -4.412   0.043   3.176  0.00  0.00    +0.089 C 
BRANCH  10  12
ATOM     11  N   UNL     1      -2.417  -0.845   4.339  0.00  0.00    -0.311 N 
ATOM     12  C   UNL     1      -3.712  -1.007   4.000  0.00  0.00    +0.212 C 
ATOM     13  O   UNL     1      -4.313  -1.998   4.358  0.00  0.00    -0.276 OA
ATOM     14  H   UNL     1      -1.872   0.054   4.015  0.00  0.00    +0.149 HD
BRANCH  11  15
ATOM     15  C   UNL     1      -1.737  -1.865   5.140  0.00  0.00    +0.146 C 
BRANCH  15  20
ATOM     16  C   UNL     1       3.825  -0.791   5.207  0.00  0.00    +0.051 C 
ATOM     17  C   UNL     1       2.339  -0.936   5.412  0.00  0.00    -0.013 A 
ATOM     18  C   UNL     1       1.564  -0.454   6.414  0.00  0.00    +0.011 A 
ATOM     19  C   UNL     1       0.207  -0.714   6.396  0.00  0.00    +0.013 A 
ATOM     20  C   UNL     1      -0.309  -1.447   5.379  0.00  0.00    +0.007 A 
ATOM     21  S   UNL     1       1.142  -1.786   4.396  0.00  0.00    -0.097 S 
ENDBRANCH  15  20
ENDBRANCH  11  15
ENDBRANCH  10  12
ENDBRANCH   1  10
BRANCH   7  22
ATOM     22  C   UNL     1      -5.560  -1.601   1.029  0.00  0.00    -0.037 C 
BRANCH  22  23
ATOM     23  C   UNL     1      -5.809  -2.940   0.385  0.00  0.00    -0.010 A 
ATOM     24  C   UNL     1      -4.839  -3.926   0.440  0.00  0.00    +0.126 A 
ATOM     25  C   UNL     1      -5.072  -5.159  -0.147  0.00  0.00    +0.038 A 
ATOM     26  C   UNL     1      -6.267  -5.399  -0.798  0.00  0.00    +0.004 A 
ATOM     27  C   UNL     1      -7.233  -4.413  -0.858  0.00  0.00    +0.020 A 
ATOM     28  C   UNL     1      -7.005  -3.183  -0.267  0.00  0.00    +0.045 A 
ATOM     29 CL   UNL     1      -8.219  -1.944  -0.342  0.00  0.00    -0.083 Cl
ATOM     30  F   UNL     1      -3.668  -3.688   1.071  0.00  0.00    -0.205 F 
ENDBRANCH  22  23
ENDBRANCH   7  22
TORSDOF 6
