REMARK  Name = ZINC04747283
REMARK  4 active torsions:
REMARK  status: ('A' for Active; 'I' for Inactive)
REMARK    1  A    between atoms: C_1  and  C_2
REMARK    2  A    between atoms: C_3  and  C_18
REMARK    3  A    between atoms: C_18  and  N_20
REMARK    4  A    between atoms: N_20  and  C_21
REMARK                            x       y       z     vdW  Elec       q    Type
REMARK                         _______ _______ _______ _____ _____    ______ ____
ROOT
ATOM      1  C   UNL     1      -4.267   4.016   0.304  0.00  0.00    +0.079 C 
ATOM      2  C   UNL     1      -3.216   2.908   0.380  0.00  0.00    +0.185 C 
ATOM      3  C   UNL     1      -3.318   2.022  -0.870  0.00  0.00    +0.128 C 
ATOM      4  C   UNL     1      -2.328   0.862  -0.677  0.00  0.00    +0.120 C 
ATOM      5  C   UNL     1      -0.965   1.447  -0.381  0.00  0.00    +0.015 A 
ATOM      6  C   UNL     1       0.161   0.691  -0.649  0.00  0.00    +0.009 A 
ATOM      7  C   UNL     1       1.418   1.198  -0.380  0.00  0.00    +0.001 A 
ATOM      8  C   UNL     1       1.550   2.462   0.165  0.00  0.00    +0.004 A 
ATOM      9  C   UNL     1       0.429   3.218   0.437  0.00  0.00    +0.046 A 
ATOM     10  C   UNL     1      -0.839   2.713   0.163  0.00  0.00    +0.128 A 
ATOM     11  O   UNL     1      -1.919   3.492   0.427  0.00  0.00    -0.468 OA
ATOM     12  N   UNL     1      -2.752   0.110   0.515  0.00  0.00    -0.319 N 
ATOM     13  C   UNL     1      -3.255   0.767   1.574  0.00  0.00    +0.134 C 
ATOM     14  S   UNL     1      -3.657  -0.121   2.981  0.00  0.00    -0.019 S 
ATOM     15  N   UNL     1      -3.453   2.094   1.569  0.00  0.00    -0.289 N 
ATOM     16  H   UNL     1      -2.669  -0.856   0.537  0.00  0.00    +0.148 HD
ATOM     17  H   UNL     1      -3.764   2.526   2.380  0.00  0.00    +0.151 HD
ENDROOT
BRANCH   3  18
ATOM     18  C   UNL     1      -4.720   1.486  -1.007  0.00  0.00    +0.064 C 
ATOM     19  S   UNL     1      -5.016  -0.059  -0.717  0.00  0.00    -0.039 S 
BRANCH  18  20
ATOM     20  N   UNL     1      -5.723   2.307  -1.374  0.00  0.00    -0.312 N 
ATOM     21  H   UNL     1      -5.533   3.228  -1.612  0.00  0.00    +0.152 HD
BRANCH  20  22
ATOM     22  C   UNL     1      -7.037   1.832  -1.413  0.00  0.00    +0.031 A 
ATOM     23  C   UNL     1      -7.318   0.608  -2.007  0.00  0.00    +0.023 A 
ATOM     24  C   UNL     1      -8.617   0.139  -2.038  0.00  0.00    +0.002 A 
ATOM     25  C   UNL     1      -9.639   0.891  -1.489  0.00  0.00    +0.000 A 
ATOM     26  C   UNL     1      -9.364   2.112  -0.902  0.00  0.00    +0.002 A 
ATOM     27  C   UNL     1      -8.066   2.585  -0.862  0.00  0.00    +0.023 A 
ENDBRANCH  20  22
ENDBRANCH  18  20
ENDBRANCH   3  18
TORSDOF 3
