REMARK  Name = ZINC33073362
REMARK  5 active torsions:
REMARK  status: ('A' for Active; 'I' for Inactive)
REMARK    1  A    between atoms: C_1  and  C_2
REMARK    2  A    between atoms: C_12  and  C_13
REMARK    3  A    between atoms: N_15  and  C_16
REMARK    4  A    between atoms: N_19  and  C_22
REMARK    5  A    between atoms: C_22  and  C_23
REMARK                            x       y       z     vdW  Elec       q    Type
REMARK                         _______ _______ _______ _____ _____    ______ ____
ROOT
ATOM      1  C   UNL     1       0.030  -0.168   2.547  0.00  0.00    +0.251 C 
ATOM      2  O   UNL     1       0.016   1.034   2.738  0.00  0.00    -0.270 OA
ATOM      3  N   UNL     1       0.052  -1.016   3.595  0.00  0.00    -0.308 N 
ATOM      4  H   UNL     1       0.063  -1.974   3.443  0.00  0.00    +0.149 HD
ENDROOT
BRANCH   1  16
ATOM      5  C   UNL     1      -0.018   1.503   0.010  0.00  0.00    +0.046 C 
ATOM      6  C   UNL     1       0.002  -0.004   0.002  0.00  0.00    -0.017 A 
ATOM      7  C   UNL     1       0.005  -0.697  -1.210  0.00  0.00    +0.076 A 
ATOM      8  C   UNL     1      -0.009  -0.166  -2.592  0.00  0.00    +0.260 A 
ATOM      9  O   UNL     1      -0.026   1.034  -2.800  0.00  0.00    -0.267 OA
ATOM     10  N   UNL     1      -0.002  -1.044  -3.614  0.00  0.00    -0.313 N 
ATOM     11  H   UNL     1      -0.011  -0.713  -4.526  0.00  0.00    +0.170 HD
ATOM     12  C   UNL     1       0.018  -2.382  -3.395  0.00  0.00    +0.200 A 
ATOM     13  N   UNL     1       0.031  -2.883  -2.190  0.00  0.00    -0.230 NA
ATOM     14  C   UNL     1       0.025  -2.107  -1.113  0.00  0.00    +0.116 A 
ATOM     15  S   UNL     1       0.038  -2.395   0.638  0.00  0.00    -0.064 S 
ATOM     16  C   UNL     1       0.023  -0.694   1.179  0.00  0.00    +0.079 A 
ENDBRANCH   1  16
BRANCH   3  17
ATOM     17  C   UNL     1       0.059  -0.491   4.963  0.00  0.00    +0.070 C 
ATOM     18  C   UNL     1      -1.379  -0.219   5.413  0.00  0.00    +0.004 C 
ATOM     19  C   UNL     1      -1.371   0.253   6.869  0.00  0.00    -0.077 C 
ATOM     20  N   UNL     1      -0.778  -0.785   7.721  0.00  0.00    +0.382 N 
ATOM     21  C   UNL     1       0.624  -1.000   7.340  0.00  0.00    -0.077 C 
ATOM     22  C   UNL     1       0.692  -1.521   5.903  0.00  0.00    +0.004 C 
ATOM     23  H   UNL     1      -1.292  -1.645   7.608  0.00  0.00    -0.081 HD
BRANCH  20  24
ATOM     24  C   UNL     1      -0.842  -0.359   9.125  0.00  0.00    -0.043 C 
BRANCH  24  25
ATOM     25  C   UNL     1      -0.347  -1.474  10.011  0.00  0.00    -0.064 A 
ATOM     26  C   UNL     1      -1.232  -2.420  10.492  0.00  0.00    +0.002 A 
ATOM     27  C   UNL     1      -0.778  -3.442  11.304  0.00  0.00    +0.000 A 
ATOM     28  C   UNL     1       0.562  -3.518  11.635  0.00  0.00    +0.000 A 
ATOM     29  C   UNL     1       1.448  -2.572  11.153  0.00  0.00    +0.000 A 
ATOM     30  C   UNL     1       0.994  -1.553  10.337  0.00  0.00    +0.002 A 
ENDBRANCH  24  25
ENDBRANCH  20  24
ENDBRANCH   3  17
TORSDOF 4
