REMARK  Name = ZINC49320606
REMARK  2 active torsions:
REMARK  status: ('A' for Active; 'I' for Inactive)
REMARK    1  A    between atoms: N_10  and  C_11
REMARK    2  A    between atoms: C_11  and  C_12
REMARK                            x       y       z     vdW  Elec       q    Type
REMARK                         _______ _______ _______ _____ _____    ______ ____
ROOT
ATOM      1  C   UNL     1      -0.017   1.373   0.010  0.00  0.00    +0.002 A 
ATOM      2  C   UNL     1       1.170   2.091   0.002  0.00  0.00    +0.004 A 
ATOM      3  C   UNL     1       2.384   1.435  -0.013  0.00  0.00    +0.048 A 
ATOM      4  C   UNL     1       2.421   0.050  -0.021  0.00  0.00    +0.157 A 
ATOM      5  C   UNL     1       1.223  -0.680  -0.013  0.00  0.00    +0.111 A 
ATOM      6  C   UNL     1       0.002  -0.004   0.002  0.00  0.00    +0.031 A 
ATOM      7  N   UNL     1       1.569  -1.996  -0.024  0.00  0.00    -0.195 NA
ATOM      8  C   UNL     1       2.874  -2.087  -0.038  0.00  0.00    +0.289 A 
ATOM      9  O   UNL     1       3.422  -0.859  -0.036  0.00  0.00    -0.425 OA
ATOM     10  N   UNL     1       3.583  -3.267  -0.052  0.00  0.00    -0.295 N 
ATOM     11  H   UNL     1       3.112  -4.115  -0.052  0.00  0.00    +0.151 HD
ENDROOT
BRANCH  10  12
ATOM     12  C   UNL     1       5.048  -3.242  -0.066  0.00  0.00    +0.142 C 
BRANCH  12  13
ATOM     13  C   UNL     1       5.574  -4.654  -0.080  0.00  0.00    -0.012 A 
ATOM     14  C   UNL     1       6.017  -5.238   1.093  0.00  0.00    +0.008 A 
ATOM     15  C   UNL     1       6.500  -6.532   1.081  0.00  0.00    +0.016 A 
ATOM     16  C   UNL     1       6.541  -7.245  -0.104  0.00  0.00    +0.019 A 
ATOM     17  C   UNL     1       6.098  -6.662  -1.277  0.00  0.00    +0.035 A 
ATOM     18  C   UNL     1       5.609  -5.368  -1.264  0.00  0.00    +0.047 A 
ATOM     19 CL   UNL     1       5.047  -4.637  -2.735  0.00  0.00    -0.083 Cl
ATOM     20 BR   UNL     1       7.203  -9.016  -0.120  0.00  0.00    -0.050 Br
ENDBRANCH  12  13
ENDBRANCH  10  12
TORSDOF 2
