REMARK  Name = ZINC20213712
REMARK  13 active torsions:
REMARK  status: ('A' for Active; 'I' for Inactive)
REMARK    1  A    between atoms: C_1  and  C_2
REMARK    2  A    between atoms: C_2  and  C_3
REMARK    3  A    between atoms: C_8  and  N_9
REMARK    4  A    between atoms: N_9  and  C_10
REMARK    5  A    between atoms: C_10  and  N_12
REMARK    6  A    between atoms: N_12  and  C_13
REMARK    7  A    between atoms: N_12  and  C_20
REMARK    8  A    between atoms: C_13  and  C_14
REMARK    9  A    between atoms: C_17  and  C_19
REMARK   10  A    between atoms: C_22  and  C_28
REMARK   11  A    between atoms: C_22  and  C_29
REMARK   12  A    between atoms: C_24  and  C_26
REMARK   13  A    between atoms: C_24  and  C_27
REMARK                            x       y       z     vdW  Elec       q    Type
REMARK                         _______ _______ _______ _____ _____    ______ ____
ROOT
ATOM      1  N   UNL     1       1.105   3.081  -3.461  0.00  0.00    -0.302 N 
ENDROOT
BRANCH   1   2
ATOM      2  C   UNL     1       0.560   2.715  -2.147  0.00  0.00    +0.073 C 
ATOM      3  C   UNL     1      -0.877   3.226  -2.039  0.00  0.00    +0.009 C 
ATOM      4  C   UNL     1      -1.463   2.877  -0.673  0.00  0.00    -0.072 C 
ATOM      5  N   UNL     1      -0.593   3.244   0.425  0.00  0.00    +0.386 N 
ATOM      6  C   UNL     1       0.836   3.034   0.326  0.00  0.00    -0.072 C 
ATOM      7  C   UNL     1       1.395   3.378  -1.053  0.00  0.00    +0.009 C 
ATOM      8  C   UNL     1       1.532   3.954   1.353  0.00  0.00    -0.010 C 
ATOM      9  C   UNL     1       1.210   1.590   0.684  0.00  0.00    -0.010 C 
ATOM     10  C   UNL     1      -1.810   1.385  -0.630  0.00  0.00    -0.010 C 
ATOM     11  C   UNL     1      -2.787   3.659  -0.521  0.00  0.00    -0.010 C 
ATOM     12  H   UNL     1      -0.687   4.322   0.624  0.00  0.00    -0.084 HD
ATOM     13  H   UNL     1      -0.880   2.679   1.325  0.00  0.00    -0.084 HD
ENDBRANCH   1   2
BRANCH   1  14
ATOM     14  C   UNL     1       1.576   2.124  -4.285  0.00  0.00    +0.138 C 
ATOM     15  S   UNL     1       2.310   2.558  -5.769  0.00  0.00    -0.018 S 
BRANCH  14  16
ATOM     16  N   UNL     1       1.469   0.825  -3.941  0.00  0.00    -0.297 N 
ATOM     17  H   UNL     1       0.748   0.176  -4.460  0.00  0.00    +0.154 HD
BRANCH  16  23
ATOM     18  C   UNL     1       2.068  -0.994  -2.470  0.00  0.00    -0.026 A 
ATOM     19  C   UNL     1       2.865  -1.507  -1.465  0.00  0.00    +0.005 A 
ATOM     20  C   UNL     1       3.866  -0.731  -0.910  0.00  0.00    +0.000 A 
ATOM     21  C   UNL     1       4.073   0.561  -1.359  0.00  0.00    +0.002 A 
ATOM     22  C   UNL     1       3.283   1.078  -2.367  0.00  0.00    +0.023 A 
ATOM     23  C   UNL     1       2.273   0.303  -2.923  0.00  0.00    +0.036 A 
BRANCH  18  25
ATOM     24  C   UNL     1       1.504  -2.522  -4.339  0.00  0.00    +0.009 C 
ATOM     25  C   UNL     1       0.978  -1.840  -3.075  0.00  0.00    +0.033 C 
ENDBRANCH  18  25
ENDBRANCH  16  23
ENDBRANCH  14  16
ENDBRANCH   1  14
BRANCH   1  26
ATOM     26  C   UNL     1       1.138   4.486  -3.875  0.00  0.00    +0.181 C 
BRANCH  26  27
ATOM     27  C   UNL     1       2.440   5.107  -3.442  0.00  0.00    +0.122 A 
ATOM     28  C   UNL     1       3.574   5.141  -4.164  0.00  0.00    +0.046 A 
ATOM     29  C   UNL     1       4.539   5.815  -3.381  0.00  0.00    +0.045 A 
ATOM     30  C   UNL     1       3.937   6.152  -2.226  0.00  0.00    +0.102 A 
ATOM     31  O   UNL     1       2.664   5.726  -2.271  0.00  0.00    -0.463 OA
ATOM     32  C   UNL     1       4.580   6.889  -1.079  0.00  0.00    +0.086 C 
ENDBRANCH  26  27
ENDBRANCH   1  26
TORSDOF 7
