REMARK  Name = ZINC01335318
REMARK  8 active torsions:
REMARK  status: ('A' for Active; 'I' for Inactive)
REMARK    1  A    between atoms: C_1  and  C_2
REMARK    2  A    between atoms: C_4  and  C_34
REMARK    3  A    between atoms: C_7  and  C_14
REMARK    4  A    between atoms: C_14  and  N_15
REMARK    5  A    between atoms: N_15  and  C_16
REMARK    6  A    between atoms: N_15  and  S_24
REMARK    7  A    between atoms: C_16  and  C_17
REMARK    8  A    between atoms: S_24  and  C_27
REMARK                            x       y       z     vdW  Elec       q    Type
REMARK                         _______ _______ _______ _____ _____    ______ ____
ROOT
ATOM      1  N   UNL     1      -1.604  -1.723  -1.425  0.00  0.00    -0.169 NA
ENDROOT
BRANCH   1   2
ATOM      2  S   UNL     1      -1.512  -0.906   0.012  0.00  0.00    +0.064 S 
ATOM      3  O   UNL     1      -1.392  -1.889   1.031  0.00  0.00    -0.153 OA
ATOM      4  O   UNL     1      -2.558   0.056   0.001  0.00  0.00    -0.153 OA
BRANCH   2   5
ATOM      5  C   UNL     1       0.002  -0.004   0.002  0.00  0.00    +0.140 A 
ATOM      6  C   UNL     1      -0.017   1.378   0.010  0.00  0.00    +0.031 A 
ATOM      7  C   UNL     1       1.171   2.086   0.002  0.00  0.00    +0.002 A 
ATOM      8  C   UNL     1       2.378   1.413  -0.013  0.00  0.00    +0.003 A 
ATOM      9  C   UNL     1       2.399   0.031  -0.021  0.00  0.00    +0.040 A 
ATOM     10  C   UNL     1       1.210  -0.679  -0.013  0.00  0.00    +0.150 A 
ATOM     11  F   UNL     1       1.230  -2.030  -0.021  0.00  0.00    -0.203 F 
ENDBRANCH   2   5
ENDBRANCH   1   2
BRANCH   1  12
ATOM     12  C   UNL     1      -1.051  -3.075  -1.536  0.00  0.00    +0.150 C 
BRANCH  12  19
ATOM     13  C   UNL     1      -6.938  -8.451  -1.282  0.00  0.00    +0.044 C 
ATOM     14  C   UNL     1      -5.853  -7.444  -1.562  0.00  0.00    -0.048 A 
ATOM     15  C   UNL     1      -5.563  -7.093  -2.873  0.00  0.00    +0.007 A 
ATOM     16  C   UNL     1      -4.582  -6.183  -3.149  0.00  0.00    -0.041 A 
ATOM     17  C   UNL     1      -3.865  -5.598  -2.100  0.00  0.00    +0.002 A 
ATOM     18  C   UNL     1      -2.807  -4.619  -2.360  0.00  0.00    +0.020 A 
ATOM     19  C   UNL     1      -2.145  -4.086  -1.304  0.00  0.00    +0.033 A 
ATOM     20  C   UNL     1      -2.472  -4.478   0.012  0.00  0.00    +0.254 A 
ATOM     21  O   UNL     1      -1.861  -3.991   0.947  0.00  0.00    -0.268 OA
ATOM     22  N   UNL     1      -3.445  -5.373   0.260  0.00  0.00    -0.322 N 
ATOM     23  H   UNL     1      -3.655  -5.622   1.206  0.00  0.00    +0.169 HD
ATOM     24  C   UNL     1      -4.156  -5.951  -0.769  0.00  0.00    +0.050 A 
ATOM     25  C   UNL     1      -5.158  -6.881  -0.513  0.00  0.00    +0.029 A 
ATOM     26  C   UNL     1      -4.276  -5.809  -4.577  0.00  0.00    +0.044 C 
ENDBRANCH  12  19
ENDBRANCH   1  12
BRANCH   1  27
ATOM     27  C   UNL     1      -2.239  -1.094  -2.586  0.00  0.00    +0.143 C 
BRANCH  27  28
ATOM     28  C   UNL     1      -1.169  -0.427  -3.453  0.00  0.00    +0.160 C 
ATOM     29  C   UNL     1      -1.841   0.329  -4.603  0.00  0.00    +0.192 C 
ATOM     30  O   UNL     1      -0.833   0.855  -5.471  0.00  0.00    -0.375 OA
ATOM     31  C   UNL     1       0.036  -0.145  -6.011  0.00  0.00    +0.188 C 
ATOM     32  C   UNL     1       0.708  -0.901  -4.862  0.00  0.00    +0.188 C 
ATOM     33  O   UNL     1      -0.300  -1.427  -3.994  0.00  0.00    -0.371 OA
ENDBRANCH  27  28
ENDBRANCH   1  27
TORSDOF 6
