REMARK  Name = ZINC04729474
REMARK  8 active torsions:
REMARK  status: ('A' for Active; 'I' for Inactive)
REMARK    1  A    between atoms: C_1  and  C_2
REMARK    2  A    between atoms: C_2  and  C_3
REMARK    3  A    between atoms: C_6  and  C_9
REMARK    4  A    between atoms: C_11  and  C_23
REMARK    5  A    between atoms: C_13  and  C_16
REMARK    6  A    between atoms: C_21  and  O_22
REMARK    7  A    between atoms: C_28  and  O_29
REMARK    8  A    between atoms: O_29  and  C_30
REMARK                            x       y       z     vdW  Elec       q    Type
REMARK                         _______ _______ _______ _____ _____    ______ ____
ROOT
ATOM      1  C   UNL     1      -0.335   7.341  -1.422  0.00  0.00    +0.040 C 
ATOM      2  N   UNL     1      -0.918   7.936  -0.451  0.00  0.00    -0.298 NA
ATOM      3  C   UNL     1      -1.314   7.281   0.789  0.00  0.00    +0.084 C 
ATOM      4  C   UNL     1      -0.082   5.350   0.032  0.00  0.00    -0.028 C 
ATOM      5  C   UNL     1       0.006   5.877  -1.404  0.00  0.00    +0.044 C 
ATOM      6  N   UNL     1      -1.352   5.820   0.621  0.00  0.00    +0.401 N 
ATOM      7  H   UNL     1      -2.129   5.569  -0.002  0.00  0.00    -0.081 HD
ATOM      8  H   UNL     1      -1.488   5.375   1.536  0.00  0.00    -0.081 HD
ENDROOT
BRANCH   1  12
ATOM      9  C   UNL     1       0.686   9.612  -4.862  0.00  0.00    -0.048 A 
ATOM     10  C   UNL     1       0.055  10.225  -3.794  0.00  0.00    +0.004 A 
ATOM     11  C   UNL     1      -0.279   9.493  -2.674  0.00  0.00    +0.010 A 
ATOM     12  C   UNL     1       0.021   8.131  -2.618  0.00  0.00    -0.004 A 
ATOM     13  C   UNL     1       0.663   7.519  -3.697  0.00  0.00    +0.010 A 
ATOM     14  C   UNL     1       0.986   8.262  -4.814  0.00  0.00    +0.004 A 
BRANCH   9  16
ATOM     15  C   UNL     1       2.454  10.997  -5.913  0.00  0.00    +0.009 C 
ATOM     16  C   UNL     1       1.048  10.417  -6.083  0.00  0.00    +0.032 C 
ENDBRANCH   9  16
ENDBRANCH   1  12
BRANCH   4  17
ATOM     17  C   UNL     1      -0.057   3.844   0.023  0.00  0.00    -0.019 A 
ATOM     18  C   UNL     1      -1.242   3.132   0.031  0.00  0.00    +0.005 A 
ATOM     19  C   UNL     1      -1.220   1.750   0.017  0.00  0.00    +0.000 A 
ATOM     20  C   UNL     1      -0.013   1.076   0.008  0.00  0.00    +0.004 A 
ATOM     21  C   UNL     1       1.174   1.782   0.000  0.00  0.00    +0.045 A 
ATOM     22  C   UNL     1       1.155   3.169   0.008  0.00  0.00    +0.118 A 
BRANCH  22  23
ATOM     23  O   UNL     1       2.321   3.867   0.000  0.00  0.00    -0.507 OA
ATOM     24  H   UNL     1       2.650   4.073  -0.885  0.00  0.00    +0.292 HD
ENDBRANCH  22  23
ENDBRANCH   4  17
BRANCH   3  25
ATOM     25  C   UNL     1      -0.327   7.630   1.873  0.00  0.00    +0.001 A 
ATOM     26  C   UNL     1      -0.002   6.698   2.839  0.00  0.00    +0.007 A 
ATOM     27  C   UNL     1       0.904   7.018   3.833  0.00  0.00    +0.000 A 
ATOM     28  C   UNL     1       1.487   8.272   3.863  0.00  0.00    +0.004 A 
ATOM     29  C   UNL     1       1.166   9.207   2.899  0.00  0.00    +0.046 A 
ATOM     30  C   UNL     1       0.261   8.887   1.898  0.00  0.00    +0.123 A 
BRANCH  30  31
ATOM     31  O   UNL     1      -0.053   9.804   0.945  0.00  0.00    -0.495 OA
ATOM     32  C   UNL     1       0.590  11.077   1.033  0.00  0.00    +0.277 C 
ENDBRANCH  30  31
ENDBRANCH   3  25
TORSDOF 6
