REMARK  Name = ZINC05868803
REMARK  6 active torsions:
REMARK  status: ('A' for Active; 'I' for Inactive)
REMARK    1  A    between atoms: C_1  and  C_2
REMARK    2  A    between atoms: C_2  and  C_3
REMARK    3  A    between atoms: C_3  and  C_4
REMARK    4  A    between atoms: C_4  and  S_5
REMARK    5  A    between atoms: S_5  and  C_6
REMARK    6  A    between atoms: C_17  and  C_19
REMARK                            x       y       z     vdW  Elec       q    Type
REMARK                         _______ _______ _______ _____ _____    ______ ____
ROOT
ATOM      1  C   UNL     1       0.002  -0.004   0.002  0.00  0.00    +0.171 A 
ATOM      2  N   UNL     1      -0.016   1.358   0.009  0.00  0.00    -0.302 N 
ATOM      3  H   UNL     1      -0.976   1.895   0.021  0.00  0.00    +0.171 HD
ATOM      4  C   UNL     1       1.142   2.051   0.002  0.00  0.00    +0.258 A 
ATOM      5  O   UNL     1       1.136   3.272   0.009  0.00  0.00    -0.267 OA
ATOM      6  C   UNL     1       2.350   1.345  -0.014  0.00  0.00    +0.069 A 
ATOM      7  C   UNL     1       2.313  -0.039  -0.019  0.00  0.00    +0.135 A 
ATOM      8  N   UNL     1       1.136  -0.674  -0.011  0.00  0.00    -0.208 NA
ATOM      9  N   UNL     1       3.495  -0.754  -0.030  0.00  0.00    -0.302 N 
ATOM     10  C   UNL     1       4.670  -0.166   0.350  0.00  0.00    +0.017 C 
ATOM     11  C   UNL     1       4.796   1.177   0.381  0.00  0.00    +0.024 C 
ATOM     12  C   UNL     1       3.658   2.078  -0.027  0.00  0.00    +0.092 C 
ATOM     13  C   UNL     1       5.998   1.783   0.790  0.00  0.00    +0.162 C 
ATOM     14  O   UNL     1       6.080   2.995   0.799  0.00  0.00    -0.292 OA
ATOM     15  C   UNL     1       7.182   0.960   1.216  0.00  0.00    +0.080 C 
ATOM     16  C   UNL     1       6.685  -0.371   1.789  0.00  0.00    +0.014 C 
ATOM     17  C   UNL     1       5.824  -1.062   0.730  0.00  0.00    +0.051 C 
ATOM     18  H   UNL     1       3.497  -1.808  -0.348  0.00  0.00    +0.153 HD
ENDROOT
BRANCH  12  19
ATOM     19  C   UNL     1       3.916   2.600  -1.417  0.00  0.00    -0.035 A 
ATOM     20  C   UNL     1       4.051   1.718  -2.473  0.00  0.00    +0.004 A 
ATOM     21  C   UNL     1       4.284   2.197  -3.748  0.00  0.00    +0.000 A 
ATOM     22  C   UNL     1       4.389   3.558  -3.967  0.00  0.00    +0.000 A 
ATOM     23  C   UNL     1       4.258   4.440  -2.910  0.00  0.00    +0.000 A 
ATOM     24  C   UNL     1       4.022   3.961  -1.635  0.00  0.00    +0.004 A 
ENDBRANCH  12  19
BRANCH   1  25
ATOM     25  S   UNL     1      -1.522  -0.888   0.011  0.00  0.00    -0.088 S 
BRANCH  25  26
ATOM     26  C   UNL     1      -0.900  -2.587  -0.004  0.00  0.00    +0.077 C 
BRANCH  26  27
ATOM     27  C   UNL     1      -2.079  -3.562   0.002  0.00  0.00    +0.011 C 
BRANCH  27  29
ATOM     28  C   UNL     1      -2.733  -5.974  -0.005  0.00  0.00    +0.004 C 
ATOM     29  C   UNL     1      -1.554  -4.999  -0.011  0.00  0.00    -0.003 C 
ENDBRANCH  27  29
ENDBRANCH  26  27
ENDBRANCH  25  26
ENDBRANCH   1  25
TORSDOF 5
