REMARK  Name = ZINC03300206
REMARK  7 active torsions:
REMARK  status: ('A' for Active; 'I' for Inactive)
REMARK    1  A    between atoms: C_1  and  C_2
REMARK    2  A    between atoms: C_5  and  N_8
REMARK    3  A    between atoms: C_9  and  C_30
REMARK    4  A    between atoms: N_13  and  C_16
REMARK    5  A    between atoms: C_16  and  C_18
REMARK    6  A    between atoms: C_16  and  C_19
REMARK    7  A    between atoms: N_21  and  C_22
REMARK                            x       y       z     vdW  Elec       q    Type
REMARK                         _______ _______ _______ _____ _____    ______ ____
ROOT
ATOM      1  N   UNL     1      -2.045   3.134   4.604  0.00  0.00    -0.243 N 
ATOM      2  C   UNL     1      -3.509   3.297   4.590  0.00  0.00    +0.166 C 
ATOM      3  C   UNL     1      -3.841   3.663   6.023  0.00  0.00    +0.244 C 
ATOM      4  O   UNL     1      -4.937   3.893   6.486  0.00  0.00    -0.273 OA
ATOM      5  N   UNL     1      -2.662   3.679   6.677  0.00  0.00    -0.212 N 
ATOM      6  C   UNL     1      -1.643   3.373   5.865  0.00  0.00    +0.317 C 
ATOM      7  O   UNL     1      -0.484   3.319   6.227  0.00  0.00    -0.252 OA
ATOM      8  C   UNL     1      -4.193   1.986   4.197  0.00  0.00    +0.038 C 
ENDROOT
BRANCH   1  13
ATOM      9  C   UNL     1       1.252   1.749   0.200  0.00  0.00    +0.044 C 
ATOM     10  C   UNL     1       0.376   2.117   1.370  0.00  0.00    -0.050 A 
ATOM     11  C   UNL     1      -0.990   2.238   1.197  0.00  0.00    +0.005 A 
ATOM     12  C   UNL     1      -1.796   2.570   2.268  0.00  0.00    +0.024 A 
ATOM     13  C   UNL     1      -1.232   2.793   3.517  0.00  0.00    +0.039 A 
ATOM     14  C   UNL     1       0.142   2.676   3.686  0.00  0.00    +0.024 A 
ATOM     15  C   UNL     1       0.942   2.339   2.612  0.00  0.00    +0.005 A 
ENDBRANCH   1  13
BRANCH   5  16
ATOM     16  C   UNL     1      -2.515   3.989   8.101  0.00  0.00    +0.168 C 
ATOM     17  C   UNL     1      -1.613   5.214   8.266  0.00  0.00    +0.038 C 
BRANCH  16  18
ATOM     18  C   UNL     1      -1.897   2.812   8.810  0.00  0.00    +0.238 C 
ATOM     19  O   UNL     1      -1.608   1.812   8.188  0.00  0.00    -0.273 OA
ATOM     20  N   UNL     1      -1.666   2.870  10.137  0.00  0.00    -0.284 N 
ATOM     21  H   UNL     1      -1.847   3.806  10.686  0.00  0.00    +0.155 HD
BRANCH  20  22
ATOM     22  C   UNL     1      -1.195   1.740  10.815  0.00  0.00    +0.036 A 
ATOM     23  C   UNL     1      -1.590   0.472  10.411  0.00  0.00    +0.043 A 
ATOM     24  C   UNL     1      -1.120  -0.643  11.079  0.00  0.00    +0.044 A 
ATOM     25  C   UNL     1      -0.265  -0.495  12.158  0.00  0.00    +0.040 A 
ATOM     26  C   UNL     1       0.125   0.768  12.566  0.00  0.00    +0.044 A 
ATOM     27  C   UNL     1      -0.338   1.886  11.898  0.00  0.00    +0.043 A 
ATOM     28 CL   UNL     1       1.197   0.949  13.919  0.00  0.00    -0.083 Cl
ATOM     29 CL   UNL     1      -1.607  -2.229  10.570  0.00  0.00    -0.083 Cl
ENDBRANCH  20  22
ENDBRANCH  16  18
ENDBRANCH   5  16
TORSDOF 4
