REMARK  Name = ZINC06112325
REMARK  5 active torsions:
REMARK  status: ('A' for Active; 'I' for Inactive)
REMARK    1  A    between atoms: C_1  and  C_2
REMARK    2  A    between atoms: C_7  and  N_8
REMARK    3  A    between atoms: C_9  and  C_11
REMARK    4  A    between atoms: C_11  and  S_12
REMARK    5  A    between atoms: S_12  and  C_13
REMARK                            x       y       z     vdW  Elec       q    Type
REMARK                         _______ _______ _______ _____ _____    ______ ____
ROOT
ATOM      1  C   UNL     1      -3.702   2.127  -0.184  0.00  0.00    +0.171 C 
ENDROOT
BRANCH   1   3
ATOM      2  N   UNL     1      -1.238   2.069   0.019  0.00  0.00    -0.285 N 
ATOM      3  C   UNL     1      -2.395   1.385  -0.081  0.00  0.00    +0.227 C 
ATOM      4  O   UNL     1      -2.383   0.172  -0.088  0.00  0.00    -0.275 OA
ATOM      5  H   UNL     1      -1.251   3.037   0.090  0.00  0.00    +0.155 HD
BRANCH   2  12
ATOM      6  C   UNL     1       0.999   3.305  -1.232  0.00  0.00    +0.046 C 
ATOM      7  C   UNL     1       1.099   1.950  -0.581  0.00  0.00    -0.028 A 
ATOM      8  C   UNL     1       2.301   1.269  -0.584  0.00  0.00    +0.025 A 
ATOM      9  C   UNL     1       2.393   0.024   0.013  0.00  0.00    +0.041 A 
ATOM     10  C   UNL     1       1.282  -0.543   0.614  0.00  0.00    +0.022 A 
ATOM     11  C   UNL     1       0.078   0.134   0.619  0.00  0.00    +0.025 A 
ATOM     12  C   UNL     1      -0.017   1.384   0.021  0.00  0.00    +0.036 A 
ATOM     13 CL   UNL     1       3.905  -0.830   0.008  0.00  0.00    -0.084 Cl
ENDBRANCH   2  12
ENDBRANCH   1   3
BRANCH   1  14
ATOM     14  S   UNL     1      -5.062   0.939  -0.304  0.00  0.00    -0.096 S 
BRANCH  14  15
ATOM     15  C   UNL     1      -6.428   2.047  -0.410  0.00  0.00    +0.109 A 
ATOM     16  C   UNL     1      -7.756   1.548  -0.523  0.00  0.00    +0.043 A 
ATOM     17  C   UNL     1      -8.206   0.148  -0.571  0.00  0.00    -0.025 A 
ATOM     18  C   UNL     1      -9.528  -0.061  -0.679  0.00  0.00    -0.004 A 
ATOM     19  S   UNL     1     -10.251   1.563  -0.728  0.00  0.00    -0.073 S 
ATOM     20  C   UNL     1      -8.767   2.523  -0.599  0.00  0.00    +0.113 A 
ATOM     21  N   UNL     1      -8.486   3.812  -0.568  0.00  0.00    -0.228 NA
ATOM     22  C   UNL     1      -7.235   4.217  -0.462  0.00  0.00    +0.223 A 
ATOM     23  N   UNL     1      -6.235   3.357  -0.380  0.00  0.00    -0.229 NA
ATOM     24  C   UNL     1      -9.872  -1.526  -0.714  0.00  0.00    +0.043 C 
ATOM     25  C   UNL     1      -8.608  -2.233  -0.178  0.00  0.00    +0.010 C 
ATOM     26  C   UNL     1      -7.506  -1.214  -0.528  0.00  0.00    +0.037 C 
ENDBRANCH  14  15
ENDBRANCH   1  14
TORSDOF 4
