REMARK  Name = ZINC36288412
REMARK  7 active torsions:
REMARK  status: ('A' for Active; 'I' for Inactive)
REMARK    1  A    between atoms: C_1  and  C_2
REMARK    2  A    between atoms: C_3  and  C_15
REMARK    3  A    between atoms: C_5  and  N_7
REMARK    4  A    between atoms: N_7  and  S_8
REMARK    5  A    between atoms: S_8  and  C_11
REMARK    6  A    between atoms: C_18  and  C_20
REMARK    7  A    between atoms: C_20  and  N_21
REMARK                            x       y       z     vdW  Elec       q    Type
REMARK                         _______ _______ _______ _____ _____    ______ ____
ROOT
ATOM      1  C   UNL     1      -0.018   1.503   0.010  0.00  0.00    +0.054 C 
ATOM      2  C   UNL     1       0.002  -0.004   0.002  0.00  0.00    +0.016 A 
ATOM      3  C   UNL     1      -1.040  -0.890   0.002  0.00  0.00    +0.090 A 
ATOM      4  N   UNL     1      -0.782  -2.197  -0.007  0.00  0.00    -0.221 NA
ATOM      5  C   UNL     1       0.459  -2.648  -0.014  0.00  0.00    +0.202 A 
ATOM      6  S   UNL     1       1.395  -1.125  -0.018  0.00  0.00    -0.054 S 
ENDROOT
BRANCH   3   7
ATOM      7  C   UNL     1      -2.436  -0.404   0.011  0.00  0.00    +0.039 A 
ATOM      8  C   UNL     1      -3.541  -0.941  -0.593  0.00  0.00    +0.018 A 
ATOM      9  C   UNL     1      -4.754  -0.303  -0.442  0.00  0.00    +0.010 A 
ATOM     10  C   UNL     1      -4.816   0.834   0.295  0.00  0.00    -0.027 A 
ATOM     11  S   UNL     1      -3.121   1.034   0.818  0.00  0.00    -0.094 S 
BRANCH  10  12
ATOM     12  C   UNL     1      -6.010   1.701   0.601  0.00  0.00    -0.043 C 
BRANCH  12  13
ATOM     13  N   UNL     1      -6.653   1.231   1.836  0.00  0.00    +0.381 N 
ATOM     14  H   UNL     1      -6.953   0.276   1.717  0.00  0.00    -0.090 HD
ATOM     15  H   UNL     1      -5.994   1.285   2.599  0.00  0.00    -0.090 HD
ATOM     16  H   UNL     1      -7.452   1.812   2.041  0.00  0.00    -0.090 HD
ENDBRANCH  12  13
ENDBRANCH  10  12
ENDBRANCH   3   7
BRANCH   5  17
ATOM     17  N   UNL     1       0.916  -3.956  -0.023  0.00  0.00    -0.067 NA
BRANCH  17  18
ATOM     18  S   UNL     1       2.542  -4.265  -0.031  0.00  0.00    +0.162 S 
ATOM     19  O   UNL     1       3.006  -3.735  -1.266  0.00  0.00    -0.145 OA
ATOM     20  O   UNL     1       3.017  -3.747   1.204  0.00  0.00    -0.145 OA
BRANCH  18  21
ATOM     21  C   UNL     1       2.673  -6.074  -0.041  0.00  0.00    +0.540 C 
ATOM     22  F   UNL     1       2.044  -6.582  -1.183  0.00  0.00    -0.149 F 
ATOM     23  F   UNL     1       4.022  -6.445  -0.049  0.00  0.00    -0.149 F 
ATOM     24  F   UNL     1       2.054  -6.593   1.102  0.00  0.00    -0.149 F 
ENDBRANCH  18  21
ENDBRANCH  17  18
ENDBRANCH   5  17
TORSDOF 6
