REMARK  Name = ZINC67590236
REMARK  6 active torsions:
REMARK  status: ('A' for Active; 'I' for Inactive)
REMARK    1  A    between atoms: C_1  and  C_2
REMARK    2  A    between atoms: C_5  and  C_7
REMARK    3  A    between atoms: C_7  and  C_9
REMARK    4  A    between atoms: C_7  and  N_10
REMARK    5  A    between atoms: C_15  and  C_27
REMARK    6  A    between atoms: C_18  and  C_21
REMARK                            x       y       z     vdW  Elec       q    Type
REMARK                         _______ _______ _______ _____ _____    ______ ____
ROOT
ATOM      1  N   UNL     1       2.808  -2.961  -0.918  0.00  0.00    -0.290 N 
ATOM      2  C   UNL     1       3.494  -3.975  -1.482  0.00  0.00    +0.303 C 
ATOM      3  O   UNL     1       3.236  -5.125  -1.181  0.00  0.00    -0.253 OA
ATOM      4  N   UNL     1       4.465  -3.714  -2.380  0.00  0.00    -0.280 N 
ATOM      5  C   UNL     1       4.876  -2.332  -2.671  0.00  0.00    +0.140 C 
ATOM      6  C   UNL     1       6.403  -2.248  -2.559  0.00  0.00    +0.133 C 
ATOM      7  O   UNL     1       6.991  -3.269  -3.368  0.00  0.00    -0.366 OA
ATOM      8  C   UNL     1       6.658  -4.600  -2.965  0.00  0.00    +0.166 C 
ATOM      9  C   UNL     1       5.149  -4.804  -3.093  0.00  0.00    +0.145 C 
ATOM     10  C   UNL     1       6.876  -0.876  -3.042  0.00  0.00    +0.039 C 
ATOM     11  H   UNL     1       3.061  -2.043  -1.102  0.00  0.00    +0.151 HD
ENDROOT
BRANCH   8  12
ATOM     12  C   UNL     1       7.380  -5.588  -3.845  0.00  0.00    -0.017 A 
ATOM     13  C   UNL     1       7.593  -5.298  -5.179  0.00  0.00    +0.006 A 
ATOM     14  C   UNL     1       8.255  -6.204  -5.987  0.00  0.00    +0.000 A 
ATOM     15  C   UNL     1       8.703  -7.400  -5.459  0.00  0.00    +0.000 A 
ATOM     16  C   UNL     1       8.491  -7.690  -4.125  0.00  0.00    +0.000 A 
ATOM     17  C   UNL     1       7.833  -6.782  -3.316  0.00  0.00    +0.006 A 
ENDBRANCH   8  12
BRANCH   1  18
ATOM     18  C   UNL     1       1.681  -3.246  -0.025  0.00  0.00    +0.137 C 
ATOM     19  C   UNL     1       2.203  -3.488   1.393  0.00  0.00    +0.036 C 
BRANCH  18  24
ATOM     20  C   UNL     1      -0.034   1.497  -0.008  0.00  0.00    +0.086 C 
ATOM     21  C   UNL     1      -0.009  -0.009  -0.011  0.00  0.00    +0.102 A 
ATOM     22  C   UNL     1      -1.088  -0.814  -0.009  0.00  0.00    +0.045 A 
ATOM     23  C   UNL     1      -0.607  -2.143  -0.014  0.00  0.00    +0.047 A 
ATOM     24  C   UNL     1       0.737  -2.072  -0.019  0.00  0.00    +0.125 A 
ATOM     25  O   UNL     1       1.093  -0.777  -0.024  0.00  0.00    -0.463 OA
ENDBRANCH  18  24
ENDBRANCH   1  18
TORSDOF 3
