REMARK  Name = ZINC36735541
REMARK  3 active torsions:
REMARK  status: ('A' for Active; 'I' for Inactive)
REMARK    1  A    between atoms: C_7  and  C_11
REMARK    2  A    between atoms: C_24  and  C_26
REMARK    3  A    between atoms: C_26  and  N_27
REMARK                            x       y       z     vdW  Elec       q    Type
REMARK                         _______ _______ _______ _____ _____    ______ ____
ROOT
ATOM      1  C   UNL     1       2.640  -3.474   3.924  0.00  0.00    +0.143 C 
ATOM      2  C   UNL     1       2.745  -4.508   2.784  0.00  0.00    +0.032 C 
ATOM      3  C   UNL     1       4.210  -4.344   2.300  0.00  0.00    +0.021 C 
ATOM      4  C   UNL     1       4.426  -2.820   2.473  0.00  0.00    +0.107 C 
ATOM      5  N   UNL     1       3.693  -2.471   3.707  0.00  0.00    -0.304 N 
ATOM      6  C   UNL     1       3.952  -1.385   4.523  0.00  0.00    +0.134 A 
ATOM      7  C   UNL     1       4.880  -1.490   5.595  0.00  0.00    +0.051 A 
ATOM      8  C   UNL     1       5.671  -2.661   6.008  0.00  0.00    -0.025 A 
ATOM      9  C   UNL     1       6.484  -2.502   7.064  0.00  0.00    -0.004 A 
ATOM     10  S   UNL     1       6.260  -0.812   7.571  0.00  0.00    -0.073 S 
ATOM     11  C   UNL     1       5.065  -0.323   6.357  0.00  0.00    +0.114 A 
ATOM     12  N   UNL     1       4.412   0.790   6.083  0.00  0.00    -0.223 NA
ATOM     13  C   UNL     1       3.561   0.830   5.075  0.00  0.00    +0.146 A 
ATOM     14  N   UNL     1       3.342  -0.228   4.314  0.00  0.00    -0.215 NA
ATOM     15  C   UNL     1       7.237  -3.763   7.398  0.00  0.00    +0.043 C 
ATOM     16  C   UNL     1       6.465  -4.881   6.663  0.00  0.00    +0.010 C 
ATOM     17  C   UNL     1       5.812  -4.101   5.505  0.00  0.00    +0.037 C 
ENDROOT
BRANCH   1  24
ATOM     18  C   UNL     1      -1.856  -3.387   7.140  0.00  0.00    +0.002 C 
ATOM     19  C   UNL     1      -1.935  -2.004   6.500  0.00  0.00    +0.008 C 
ATOM     20  C   UNL     1      -2.109  -2.149   4.985  0.00  0.00    +0.076 C 
ATOM     21  C   UNL     1      -0.750  -2.234   4.339  0.00  0.00    +0.134 A 
ATOM     22  N   UNL     1      -0.334  -1.581   3.292  0.00  0.00    -0.134 NA
ATOM     23  N   UNL     1       0.877  -1.925   3.022  0.00  0.00    -0.132 NA
ATOM     24  C   UNL     1       1.287  -2.811   3.892  0.00  0.00    +0.154 A 
ATOM     25  N   UNL     1       0.269  -3.022   4.756  0.00  0.00    -0.313 N 
ATOM     26  C   UNL     1       0.265  -3.908   5.920  0.00  0.00    +0.125 C 
ATOM     27  C   UNL     1      -1.167  -4.374   6.198  0.00  0.00    +0.022 C 
ENDBRANCH   1  24
BRANCH  13  28
ATOM     28  C   UNL     1       2.826   2.112   4.782  0.00  0.00    +0.160 C 
BRANCH  28  29
ATOM     29  N   UNL     1       3.611   2.921   3.840  0.00  0.00    -0.291 NA
ATOM     30  C   UNL     1       4.866   3.378   4.454  0.00  0.00    +0.113 C 
ATOM     31  C   UNL     1       5.677   4.165   3.421  0.00  0.00    +0.175 C 
ATOM     32  O   UNL     1       4.888   5.252   2.930  0.00  0.00    -0.377 OA
ATOM     33  C   UNL     1       3.658   4.843   2.325  0.00  0.00    +0.175 C 
ATOM     34  C   UNL     1       2.827   4.063   3.346  0.00  0.00    +0.113 C 
ENDBRANCH  28  29
ENDBRANCH  13  28
TORSDOF 3
