REMARK  Name = ZINC20112849
REMARK  12 active torsions:
REMARK  status: ('A' for Active; 'I' for Inactive)
REMARK    1  A    between atoms: C_1  and  C_2
REMARK    2  A    between atoms: C_2  and  C_4
REMARK    3  A    between atoms: C_2  and  N_10
REMARK    4  A    between atoms: N_10  and  C_11
REMARK    5  A    between atoms: C_19  and  N_35
REMARK    6  A    between atoms: C_25  and  O_33
REMARK    7  A    between atoms: C_26  and  O_31
REMARK    8  A    between atoms: C_27  and  O_29
REMARK    9  A    between atoms: O_29  and  C_30
REMARK   10  A    between atoms: O_31  and  C_32
REMARK   11  A    between atoms: O_33  and  C_34
REMARK   12  A    between atoms: N_35  and  C_36
REMARK                            x       y       z     vdW  Elec       q    Type
REMARK                         _______ _______ _______ _____ _____    ______ ____
ROOT
ATOM      1  C   UNL     1      -1.007   1.990   0.213  0.00  0.00    +0.059 A 
ATOM      2  C   UNL     1       0.228   1.418   0.287  0.00  0.00    +0.026 A 
ATOM      3  C   UNL     1       1.430   2.017   0.352  0.00  0.00    +0.011 A 
ATOM      4  C   UNL     1       1.817   3.333   0.338  0.00  0.00    -0.012 A 
ATOM      5  C   UNL     1       0.975   4.438   0.214  0.00  0.00    -0.050 A 
ATOM      6  C   UNL     1      -0.369   4.390   0.172  0.00  0.00    +0.055 A 
ATOM      7  C   UNL     1      -1.262   3.359   0.195  0.00  0.00    +0.198 A 
ATOM      8  O   UNL     1      -2.444   3.679   0.196  0.00  0.00    -0.286 OA
ATOM      9  C   UNL     1       1.601   5.814   0.109  0.00  0.00    -0.040 C 
ATOM     10  C   UNL     1       2.022   6.344   1.465  0.00  0.00    -0.007 C 
ATOM     11  C   UNL     1       2.742   5.269   2.275  0.00  0.00    +0.035 C 
ATOM     12  C   UNL     1       3.729   4.547   1.394  0.00  0.00    -0.033 A 
ATOM     13  C   UNL     1       3.279   3.606   0.475  0.00  0.00    +0.031 A 
ATOM     14  C   UNL     1       4.190   2.911  -0.326  0.00  0.00    +0.173 A 
ATOM     15  C   UNL     1       5.548   3.174  -0.202  0.00  0.00    +0.204 A 
ATOM     16  C   UNL     1       5.989   4.124   0.713  0.00  0.00    +0.165 A 
ATOM     17  C   UNL     1       5.079   4.808   1.509  0.00  0.00    +0.054 A 
ENDROOT
BRANCH   9  18
ATOM     18  N   UNL     1       0.625   6.738  -0.484  0.00  0.00    +0.382 N 
ATOM     19  C   UNL     1       1.294   7.915  -1.054  0.00  0.00    -0.100 C 
ATOM     20  H   UNL     1       0.073   6.224  -1.285  0.00  0.00    -0.085 HD
ATOM     21  H   UNL     1      -0.081   7.074   0.290  0.00  0.00    -0.085 HD
ENDBRANCH   9  18
BRANCH   1  22
ATOM     22  N   UNL     1      -2.098   1.139   0.156  0.00  0.00    -0.397 NA
ATOM     23  H   UNL     1      -2.548   1.350  -0.825  0.00  0.00    +0.124 HD
ATOM     24  H   UNL     1      -2.763   1.507   0.951  0.00  0.00    +0.124 HD
BRANCH  22  26
ATOM     25  C   UNL     1      -1.532  -0.915  -1.045  0.00  0.00    +0.031 C 
ATOM     26  C   UNL     1      -1.909  -0.306   0.307  0.00  0.00    +0.081 C 
BRANCH  26  27
ATOM     27  C   UNL     1      -3.189  -0.931   0.799  0.00  0.00    -0.029 A 
ATOM     28  C   UNL     1      -4.405  -0.495   0.308  0.00  0.00    +0.005 A 
ATOM     29  C   UNL     1      -5.579  -1.072   0.756  0.00  0.00    +0.000 A 
ATOM     30  C   UNL     1      -5.537  -2.078   1.704  0.00  0.00    +0.000 A 
ATOM     31  C   UNL     1      -4.321  -2.510   2.199  0.00  0.00    +0.000 A 
ATOM     32  C   UNL     1      -3.147  -1.937   1.747  0.00  0.00    +0.005 A 
ENDBRANCH  26  27
ENDBRANCH  22  26
ENDBRANCH   1  22
BRANCH  16  33
ATOM     33  O   UNL     1       7.318   4.383   0.830  0.00  0.00    -0.491 OA
ATOM     34  C   UNL     1       7.705   5.370   1.790  0.00  0.00    +0.277 C 
ENDBRANCH  16  33
BRANCH  15  35
ATOM     35  O   UNL     1       6.446   2.503  -0.974  0.00  0.00    -0.488 OA
ATOM     36  C   UNL     1       6.967   1.280  -0.449  0.00  0.00    +0.277 C 
ENDBRANCH  15  35
BRANCH  14  37
ATOM     37  O   UNL     1       3.750   1.986  -1.219  0.00  0.00    -0.491 OA
ATOM     38  C   UNL     1       3.447   2.449  -2.537  0.00  0.00    +0.277 C 
ENDBRANCH  14  37
TORSDOF 7
