REMARK  Name = ZINC59922348
REMARK  8 active torsions:
REMARK  status: ('A' for Active; 'I' for Inactive)
REMARK    1  A    between atoms: C_1  and  C_2
REMARK    2  A    between atoms: C_4  and  C_7
REMARK    3  A    between atoms: C_7  and  N_14
REMARK    4  A    between atoms: C_15  and  C_17
REMARK    5  A    between atoms: C_18  and  C_19
REMARK    6  A    between atoms: C_22  and  S_25
REMARK    7  A    between atoms: S_25  and  N_28
REMARK    8  A    between atoms: N_28  and  C_29
REMARK                            x       y       z     vdW  Elec       q    Type
REMARK                         _______ _______ _______ _____ _____    ______ ____
ROOT
ATOM      1  N   UNL     1      -2.515  -3.158   1.122  0.00  0.00    -0.299 N 
ATOM      2  C   UNL     1      -3.346  -2.102   1.224  0.00  0.00    +0.238 C 
ATOM      3  O   UNL     1      -3.327  -1.229   0.377  0.00  0.00    -0.271 OA
ATOM      4  H   UNL     1      -2.531  -3.855   1.797  0.00  0.00    +0.150 HD
ENDROOT
BRANCH   1   5
ATOM      5  C   UNL     1      -1.588  -3.254  -0.008  0.00  0.00    +0.098 C 
ATOM      6  C   UNL     1      -2.360  -3.292  -1.299  0.00  0.00    +0.034 C 
ATOM      7  C   UNL     1      -3.787  -3.844  -1.116  0.00  0.00    +0.003 C 
ATOM      8  C   UNL     1      -3.841  -5.061  -0.173  0.00  0.00    +0.000 C 
ATOM      9  C   UNL     1      -2.707  -6.023  -0.409  0.00  0.00    +0.000 C 
ATOM     10  C   UNL     1      -1.562  -5.679   0.566  0.00  0.00    +0.003 C 
ATOM     11  C   UNL     1      -0.763  -4.552   0.108  0.00  0.00    +0.034 C 
BRANCH   5  15
ATOM     12  C   UNL     1      -0.018   1.503   0.010  0.00  0.00    +0.112 C 
ATOM     13  C   UNL     1       0.002  -0.004   0.002  0.00  0.00    +0.224 A 
ATOM     14  N   UNL     1      -1.044  -0.783   0.003  0.00  0.00    -0.194 NA
ATOM     15  C   UNL     1      -0.663  -2.065  -0.006  0.00  0.00    +0.195 A 
ATOM     16  N   UNL     1       0.638  -2.118  -0.012  0.00  0.00    -0.059 NA
ATOM     17  O   UNL     1       1.097  -0.774  -0.013  0.00  0.00    -0.338 OA
ENDBRANCH   5  15
ENDBRANCH   1   5
BRANCH   2  18
ATOM     18  C   UNL     1      -4.273  -2.006   2.353  0.00  0.00    +0.068 C 
ATOM     19  C   UNL     1      -5.104  -0.950   2.455  0.00  0.00    +0.013 C 
BRANCH  19  20
ATOM     20  C   UNL     1      -6.036  -0.853   3.591  0.00  0.00    -0.025 A 
ATOM     21  C   UNL     1      -6.058  -1.852   4.569  0.00  0.00    +0.010 A 
ATOM     22  C   UNL     1      -6.934  -1.755   5.630  0.00  0.00    +0.029 A 
ATOM     23  C   UNL     1      -7.790  -0.672   5.728  0.00  0.00    +0.105 A 
ATOM     24  C   UNL     1      -7.774   0.321   4.763  0.00  0.00    +0.029 A 
ATOM     25  C   UNL     1      -6.900   0.241   3.700  0.00  0.00    +0.010 A 
BRANCH  23  26
ATOM     26  S   UNL     1      -8.905  -0.556   7.087  0.00  0.00    +0.058 S 
ATOM     27  O   UNL     1      -9.979   0.272   6.662  0.00  0.00    -0.153 OA
ATOM     28  O   UNL     1      -9.107  -1.881   7.560  0.00  0.00    -0.153 OA
BRANCH  26  29
ATOM     29  N   UNL     1      -8.123   0.264   8.294  0.00  0.00    -0.193 NA
ATOM     30  C   UNL     1      -7.746   1.666   8.101  0.00  0.00    +0.127 C 
ATOM     31  H   UNL     1      -7.915  -0.184   9.129  0.00  0.00    +0.148 HD
ENDBRANCH  26  29
ENDBRANCH  23  26
ENDBRANCH  19  20
ENDBRANCH   2  18
TORSDOF 6
