REMARK  Name = ZINC58309114
REMARK  6 active torsions:
REMARK  status: ('A' for Active; 'I' for Inactive)
REMARK    1  A    between atoms: C_1  and  C_2
REMARK    2  A    between atoms: C_4  and  C_26
REMARK    3  A    between atoms: C_5  and  S_9
REMARK    4  A    between atoms: C_6  and  C_8
REMARK    5  A    between atoms: S_9  and  N_12
REMARK    6  A    between atoms: C_14  and  C_23
REMARK                            x       y       z     vdW  Elec       q    Type
REMARK                         _______ _______ _______ _____ _____    ______ ____
ROOT
ATOM      1  N   UNL     1       2.552  -4.255   0.098  0.00  0.00    -0.202 N 
ATOM      2  C   UNL     1       3.365  -4.371  -1.120  0.00  0.00    +0.144 C 
ATOM      3  C   UNL     1       4.432  -5.445  -0.872  0.00  0.00    +0.098 C 
ATOM      4  C   UNL     1       5.347  -4.980   0.261  0.00  0.00    +0.051 C 
ATOM      5  C   UNL     1       4.533  -4.563   1.458  0.00  0.00    -0.024 A 
ATOM      6  C   UNL     1       3.196  -4.213   1.340  0.00  0.00    +0.054 A 
ATOM      7  C   UNL     1       2.475  -3.822   2.463  0.00  0.00    +0.025 A 
ATOM      8  C   UNL     1       3.091  -3.777   3.698  0.00  0.00    +0.002 A 
ATOM      9  C   UNL     1       4.425  -4.122   3.816  0.00  0.00    +0.000 A 
ATOM     10  C   UNL     1       5.142  -4.522   2.700  0.00  0.00    +0.005 A 
ENDROOT
BRANCH   3  11
ATOM     11  C   UNL     1       5.242  -5.652  -2.126  0.00  0.00    +0.215 C 
ATOM     12  O   UNL     1       4.994  -5.006  -3.121  0.00  0.00    -0.276 OA
ATOM     13  N   UNL     1       6.242  -6.556  -2.140  0.00  0.00    -0.329 N 
ATOM     14  H   UNL     1       6.440  -7.073  -1.344  0.00  0.00    +0.145 HD
ATOM     15  H   UNL     1       6.763  -6.689  -2.947  0.00  0.00    +0.145 HD
ENDBRANCH   3  11
BRANCH   1  16
ATOM     16  S   UNL     1       0.901  -4.170   0.003  0.00  0.00    +0.075 S 
ATOM     17  O   UNL     1       0.394  -4.787   1.178  0.00  0.00    -0.150 OA
ATOM     18  O   UNL     1       0.546  -4.608  -1.302  0.00  0.00    -0.150 OA
BRANCH  16  23
ATOM     19  C   UNL     1      -0.607   1.663   0.328  0.00  0.00    +0.044 C 
ATOM     20  C   UNL     1      -0.230   0.207   0.247  0.00  0.00    -0.050 A 
ATOM     21  C   UNL     1       0.524  -0.254  -0.816  0.00  0.00    +0.008 A 
ATOM     22  C   UNL     1       0.870  -1.590  -0.890  0.00  0.00    -0.023 A 
ATOM     23  C   UNL     1       0.461  -2.466   0.098  0.00  0.00    +0.115 A 
ATOM     24  C   UNL     1      -0.293  -2.005   1.161  0.00  0.00    -0.023 A 
ATOM     25  C   UNL     1      -0.635  -0.668   1.238  0.00  0.00    +0.008 A 
ATOM     26  C   UNL     1      -0.739  -2.960   2.238  0.00  0.00    +0.046 C 
ATOM     27  C   UNL     1       1.692  -2.092  -2.049  0.00  0.00    +0.046 C 
ENDBRANCH  16  23
ENDBRANCH   1  16
TORSDOF 3
