REMARK  Name = ZINC06894722
REMARK  7 active torsions:
REMARK  status: ('A' for Active; 'I' for Inactive)
REMARK    1  A    between atoms: C_1  and  C_2
REMARK    2  A    between atoms: C_2  and  C_3
REMARK    3  A    between atoms: C_2  and  O_4
REMARK    4  A    between atoms: O_4  and  C_5
REMARK    5  A    between atoms: C_8  and  C_11
REMARK    6  A    between atoms: C_11  and  N_12
REMARK    7  A    between atoms: C_13  and  C_15
REMARK                            x       y       z     vdW  Elec       q    Type
REMARK                         _______ _______ _______ _____ _____    ______ ____
ROOT
ATOM      1  C   UNL     1      -3.957   1.346  -1.845  0.00  0.00    +0.076 C 
ATOM      2  C   UNL     1      -2.948   0.602  -0.929  0.00  0.00    -0.003 C 
ATOM      3  C   UNL     1      -2.199   1.781  -0.263  0.00  0.00    -0.066 C 
ATOM      4  C   UNL     1      -1.698   1.343   1.123  0.00  0.00    -0.017 C 
ATOM      5  C   UNL     1      -2.485   2.208   2.133  0.00  0.00    -0.020 C 
ATOM      6  C   UNL     1      -3.750   2.608   1.330  0.00  0.00    -0.077 C 
ATOM      7  C   UNL     1      -4.318   2.588  -1.017  0.00  0.00    +0.052 C 
ATOM      8  C   UNL     1      -4.520   3.784  -1.909  0.00  0.00    -0.027 A 
ATOM      9  C   UNL     1      -3.701   4.456  -2.789  0.00  0.00    +0.004 A 
ATOM     10  C   UNL     1      -4.182   5.551  -3.483  0.00  0.00    +0.000 A 
ATOM     11  C   UNL     1      -5.487   5.969  -3.292  0.00  0.00    +0.002 A 
ATOM     12  C   UNL     1      -6.311   5.299  -2.412  0.00  0.00    +0.023 A 
ATOM     13  C   UNL     1      -5.834   4.195  -1.708  0.00  0.00    +0.036 A 
ATOM     14  N   UNL     1      -6.462   3.366  -0.777  0.00  0.00    -0.286 N 
ATOM     15  C   UNL     1      -5.643   2.399  -0.323  0.00  0.00    +0.212 C 
ATOM     16  O   UNL     1      -5.918   1.541   0.488  0.00  0.00    -0.277 OA
ATOM     17  H   UNL     1      -7.383   3.474  -0.490  0.00  0.00    +0.155 HD
ATOM     18  N   UNL     1      -3.231   2.787  -0.039  0.00  0.00    +0.394 N 
ATOM     19  H   UNL     1      -2.836   3.729  -0.144  0.00  0.00    -0.079 HD
ENDROOT
BRANCH   1  21
ATOM     20  N   UNL     1      -4.061   1.885  -4.257  0.00  0.00    -0.311 N 
ATOM     21  C   UNL     1      -3.310   1.742  -3.147  0.00  0.00    +0.216 C 
ATOM     22  O   UNL     1      -2.113   1.931  -3.197  0.00  0.00    -0.276 OA
ATOM     23  H   UNL     1      -5.019   1.733  -4.218  0.00  0.00    +0.149 HD
BRANCH  20  24
ATOM     24  C   UNL     1      -3.432   2.270  -5.523  0.00  0.00    +0.139 C 
BRANCH  24  28
ATOM     25  C   UNL     1      -6.412   2.528  -8.575  0.00  0.00    +0.121 A 
ATOM     26  C   UNL     1      -6.100   3.644  -7.812  0.00  0.00    +0.046 A 
ATOM     27  C   UNL     1      -5.137   3.558  -6.826  0.00  0.00    +0.009 A 
ATOM     28  C   UNL     1      -4.483   2.361  -6.599  0.00  0.00    -0.030 A 
ATOM     29  C   UNL     1      -4.788   1.249  -7.361  0.00  0.00    +0.009 A 
ATOM     30  C   UNL     1      -5.756   1.328  -8.345  0.00  0.00    +0.046 A 
BRANCH  25  31
ATOM     31  O   UNL     1      -7.360   2.611  -9.546  0.00  0.00    -0.489 OA
BRANCH  31  33
ATOM     32  C   UNL     1      -8.508   0.489  -9.685  0.00  0.00    +0.051 C 
ATOM     33  C   UNL     1      -7.544   1.459 -10.371  0.00  0.00    +0.167 C 
ATOM     34  C   UNL     1      -8.125   1.887 -11.721  0.00  0.00    +0.051 C 
ENDBRANCH  31  33
ENDBRANCH  25  31
ENDBRANCH  24  28
ENDBRANCH  20  24
ENDBRANCH   1  21
TORSDOF 5
