REMARK  Name = ZINC66717035
REMARK  11 active torsions:
REMARK  status: ('A' for Active; 'I' for Inactive)
REMARK    1  A    between atoms: C_1  and  C_2
REMARK    2  A    between atoms: C_5  and  C_9
REMARK    3  A    between atoms: C_6  and  C_8
REMARK    4  A    between atoms: C_9  and  C_10
REMARK    5  A    between atoms: C_10  and  C_12
REMARK    6  A    between atoms: C_10  and  N_13
REMARK    7  A    between atoms: N_16  and  C_17
REMARK    8  A    between atoms: N_16  and  C_20
REMARK    9  A    between atoms: C_17  and  C_18
REMARK   10  A    between atoms: C_18  and  O_19
REMARK   11  A    between atoms: C_20  and  C_21
REMARK                            x       y       z     vdW  Elec       q    Type
REMARK                         _______ _______ _______ _____ _____    ______ ____
ROOT
ATOM      1  N   UNL     1      -1.642  -3.770   1.470  0.00  0.00    -0.296 N 
ATOM      2  C   UNL     1      -2.938  -3.622   1.812  0.00  0.00    +0.303 C 
ATOM      3  O   UNL     1      -3.812  -3.992   1.052  0.00  0.00    -0.253 OA
ATOM      4  N   UNL     1      -3.264  -3.064   2.994  0.00  0.00    -0.279 N 
ATOM      5  H   UNL     1      -0.945  -3.542   2.105  0.00  0.00    +0.151 HD
ENDROOT
BRANCH   1   6
ATOM      6  C   UNL     1      -1.288  -4.274   0.142  0.00  0.00    +0.076 C 
ATOM      7  C   UNL     1      -1.268  -5.804   0.166  0.00  0.00    +0.028 C 
BRANCH   6   8
ATOM      8  C   UNL     1       0.097  -3.753  -0.249  0.00  0.00    +0.057 C 
BRANCH   8  13
ATOM      9  C   UNL     1      -0.127   1.979  -0.946  0.00  0.00    +0.044 C 
ATOM     10  C   UNL     1      -0.069   0.484  -0.764  0.00  0.00    -0.050 A 
ATOM     11  C   UNL     1       0.398  -0.050   0.422  0.00  0.00    +0.003 A 
ATOM     12  C   UNL     1       0.452  -1.421   0.589  0.00  0.00    +0.004 A 
ATOM     13  C   UNL     1       0.037  -2.258  -0.431  0.00  0.00    -0.043 A 
ATOM     14  C   UNL     1      -0.431  -1.724  -1.616  0.00  0.00    -0.047 A 
ATOM     15  C   UNL     1      -0.488  -0.352  -1.782  0.00  0.00    +0.007 A 
ATOM     16  C   UNL     1      -0.882  -2.636  -2.728  0.00  0.00    +0.044 C 
ENDBRANCH   8  13
ENDBRANCH   6   8
ENDBRANCH   1   6
BRANCH   4  17
ATOM     17  C   UNL     1      -2.216  -2.517   3.860  0.00  0.00    +0.137 C 
BRANCH  17  18
ATOM     18  C   UNL     1      -1.972  -1.050   3.499  0.00  0.00    +0.175 C 
BRANCH  18  19
ATOM     19  O   UNL     1      -3.147  -0.287   3.783  0.00  0.00    -0.393 OA
ATOM     20  H   UNL     1      -3.064   0.654   3.579  0.00  0.00    +0.209 HD
ENDBRANCH  18  19
ENDBRANCH  17  18
ENDBRANCH   4  17
BRANCH   4  21
ATOM     21  C   UNL     1      -4.666  -3.004   3.414  0.00  0.00    +0.145 C 
BRANCH  21  22
ATOM     22  C   UNL     1      -5.011  -4.248   4.193  0.00  0.00    -0.023 A 
ATOM     23  C   UNL     1      -5.492  -5.370   3.545  0.00  0.00    +0.013 A 
ATOM     24  C   UNL     1      -5.792  -6.472   4.274  0.00  0.00    +0.045 A 
ATOM     25  S   UNL     1      -5.393  -5.938   5.931  0.00  0.00    -0.105 S 
ATOM     26  C   UNL     1      -4.848  -4.284   5.538  0.00  0.00    +0.050 A 
ENDBRANCH  21  22
ENDBRANCH   4  21
TORSDOF 8
