REMARK  Name = ZINC48523223
REMARK  5 active torsions:
REMARK  status: ('A' for Active; 'I' for Inactive)
REMARK    1  A    between atoms: C_9  and  C_12
REMARK    2  A    between atoms: C_12  and  C_14
REMARK    3  A    between atoms: C_12  and  O_28
REMARK    4  A    between atoms: C_14  and  C_16
REMARK    5  A    between atoms: C_14  and  O_27
REMARK                            x       y       z     vdW  Elec       q    Type
REMARK                         _______ _______ _______ _____ _____    ______ ____
ROOT
ATOM      1  C   UNL     1       5.971   0.692  -0.052  0.00  0.00    +0.216 C 
ENDROOT
BRANCH   1  10
ATOM      2  C   UNL     1      -0.017   1.384   0.010  0.00  0.00    +0.017 A 
ATOM      3  C   UNL     1       1.162   2.099   0.002  0.00  0.00    +0.029 A 
ATOM      4  C   UNL     1       2.377   1.428  -0.013  0.00  0.00    +0.066 A 
ATOM      5  C   UNL     1       2.401   0.023  -0.021  0.00  0.00    +0.090 A 
ATOM      6  C   UNL     1       1.198  -0.687  -0.013  0.00  0.00    +0.045 A 
ATOM      7  C   UNL     1       0.002  -0.004   0.002  0.00  0.00    +0.020 A 
ATOM      8 BR   UNL     1      -1.627  -0.965   0.012  0.00  0.00    -0.050 Br
ATOM      9  N   UNL     1       3.707  -0.350  -0.035  0.00  0.00    -0.230 NA
ATOM     10  C   UNL     1       4.464   0.708  -0.037  0.00  0.00    +0.140 A 
ATOM     11  N   UNL     1       3.697   1.832  -0.024  0.00  0.00    -0.340 N 
ATOM     12  H   UNL     1       4.018   2.747  -0.022  0.00  0.00    +0.167 HD
ENDBRANCH   1  10
BRANCH   1  13
ATOM     13  O   UNL     1       6.463   2.028   0.068  0.00  0.00    -0.381 OA
ATOM     14  H   UNL     1       6.190   2.476   0.881  0.00  0.00    +0.210 HD
ENDBRANCH   1  13
BRANCH   1  15
ATOM     15  C   UNL     1       6.483  -0.147   1.120  0.00  0.00    +0.216 C 
BRANCH  15  16
ATOM     16  C   UNL     1       7.990  -0.164   1.106  0.00  0.00    +0.140 A 
ATOM     17  N   UNL     1       8.783   0.198   2.150  0.00  0.00    -0.340 N 
ATOM     18  H   UNL     1       8.484   0.506   3.019  0.00  0.00    +0.167 HD
ATOM     19  C   UNL     1      10.094   0.045   1.742  0.00  0.00    +0.066 A 
ATOM     20  C   UNL     1      11.324   0.251   2.351  0.00  0.00    +0.029 A 
ATOM     21  C   UNL     1      12.486  -0.003   1.654  0.00  0.00    +0.017 A 
ATOM     22  C   UNL     1      12.434  -0.464   0.345  0.00  0.00    +0.020 A 
ATOM     23  C   UNL     1      11.223  -0.674  -0.275  0.00  0.00    +0.045 A 
ATOM     24  C   UNL     1      10.036  -0.422   0.418  0.00  0.00    +0.090 A 
ATOM     25  N   UNL     1       8.722  -0.532   0.095  0.00  0.00    -0.230 NA
ATOM     26 BR   UNL     1      14.040  -0.805  -0.594  0.00  0.00    -0.050 Br
ENDBRANCH  15  16
BRANCH  15  27
ATOM     27  O   UNL     1       5.991  -1.484   1.000  0.00  0.00    -0.381 OA
ATOM     28  H   UNL     1       6.264  -1.932   0.188  0.00  0.00    +0.210 HD
ENDBRANCH  15  27
ENDBRANCH   1  15
TORSDOF 5
