REMARK  Name = ZINC46037731
REMARK  6 active torsions:
REMARK  status: ('A' for Active; 'I' for Inactive)
REMARK    1  A    between atoms: C_1  and  N_2
REMARK    2  A    between atoms: N_2  and  C_3
REMARK    3  A    between atoms: N_2  and  C_9
REMARK    4  A    between atoms: C_3  and  C_4
REMARK    5  A    between atoms: C_9  and  C_10
REMARK    6  A    between atoms: C_13  and  C_15
REMARK                            x       y       z     vdW  Elec       q    Type
REMARK                         _______ _______ _______ _____ _____    ______ ____
ROOT
ATOM      1  C   UNL     1       2.158  -0.072   1.120  0.00  0.00    +0.032 A 
ATOM      2  C   UNL     1       2.602   1.056   1.732  0.00  0.00    +0.068 A 
ATOM      3  S   UNL     1       4.333   1.006   1.298  0.00  0.00    -0.080 S 
ATOM      4  C   UNL     1       4.306  -0.417   0.400  0.00  0.00    +0.082 A 
ATOM      5  N   UNL     1       3.051  -0.787   0.465  0.00  0.00    -0.251 NA
ENDROOT
BRANCH   4   6
ATOM      6  C   UNL     1       5.449  -1.103  -0.302  0.00  0.00    +0.045 C 
ATOM      7  C   UNL     1       6.526  -1.475   0.720  0.00  0.00    +0.010 C 
ATOM      8  C   UNL     1       7.687  -2.172   0.007  0.00  0.00    +0.001 C 
ATOM      9  C   UNL     1       8.281  -1.229  -1.041  0.00  0.00    +0.000 C 
ATOM     10  C   UNL     1       7.205  -0.857  -2.062  0.00  0.00    +0.001 C 
ATOM     11  C   UNL     1       6.044  -0.161  -1.349  0.00  0.00    +0.010 C 
ENDBRANCH   4   6
BRANCH   1  12
ATOM     12  C   UNL     1       0.713  -0.491   1.192  0.00  0.00    -0.022 C 
BRANCH  12  14
ATOM     13  C   UNL     1      -0.018   1.465   0.010  0.00  0.00    -0.095 C 
ATOM     14  N   UNL     1       0.002  -0.004   0.002  0.00  0.00    +0.386 N 
ATOM     15  H   UNL     1       0.474  -0.330  -0.828  0.00  0.00    -0.081 HD
BRANCH  14  16
ATOM     16  C   UNL     1      -1.376  -0.512   0.012  0.00  0.00    -0.003 C 
BRANCH  16  17
ATOM     17  C   UNL     1      -2.067  -0.116  -1.267  0.00  0.00    +0.089 A 
ATOM     18  C   UNL     1      -2.095  -0.837  -2.402  0.00  0.00    +0.042 A 
ATOM     19  C   UNL     1      -2.849  -0.095  -3.340  0.00  0.00    +0.041 A 
ATOM     20  C   UNL     1      -3.237   1.035  -2.722  0.00  0.00    +0.195 A 
ATOM     21  O   UNL     1      -2.765   1.014  -1.464  0.00  0.00    -0.470 OA
ENDBRANCH  16  17
ENDBRANCH  14  16
ENDBRANCH  12  14
ENDBRANCH   1  12
TORSDOF 5
