REMARK  Name = ZINC48839805
REMARK  5 active torsions:
REMARK  status: ('A' for Active; 'I' for Inactive)
REMARK    1  A    between atoms: C_4  and  C_20
REMARK    2  A    between atoms: C_6  and  S_7
REMARK    3  A    between atoms: S_7  and  N_10
REMARK    4  A    between atoms: N_10  and  C_11
REMARK    5  A    between atoms: C_17  and  N_19
REMARK                            x       y       z     vdW  Elec       q    Type
REMARK                         _______ _______ _______ _____ _____    ______ ____
ROOT
ATOM      1  S   UNL     1      -1.513  -0.903   0.012  0.00  0.00    +0.059 S 
ATOM      2  O   UNL     1      -1.222  -2.184   0.553  0.00  0.00    -0.153 OA
ATOM      3  O   UNL     1      -2.493  -0.043   0.576  0.00  0.00    -0.153 OA
ENDROOT
BRANCH   1   9
ATOM      4  C   UNL     1      -0.017   1.380   0.010  0.00  0.00    +0.029 A 
ATOM      5  C   UNL     1       1.168   2.095   0.002  0.00  0.00    +0.018 A 
ATOM      6  C   UNL     1       2.378   1.431  -0.013  0.00  0.00    +0.032 A 
ATOM      7  C   UNL     1       2.404   0.033  -0.021  0.00  0.00    +0.079 A 
ATOM      8  C   UNL     1       1.203  -0.681  -0.013  0.00  0.00    +0.044 A 
ATOM      9  C   UNL     1       0.002  -0.004   0.002  0.00  0.00    +0.106 A 
ATOM     10 BR   UNL     1       3.996   2.410  -0.025  0.00  0.00    -0.049 Br
BRANCH   7  11
ATOM     11  C   UNL     1       3.693  -0.684  -0.038  0.00  0.00    +0.388 C 
ATOM     12  O   UNL     1       3.712  -1.907  -0.045  0.00  0.00    -0.241 OA
ATOM     13  O   UNL     1       4.742  -0.056  -0.046  0.00  0.00    -0.241 OA
ENDBRANCH   7  11
ENDBRANCH   1   9
BRANCH   1  14
ATOM     14  N   UNL     1      -1.949  -1.145  -1.568  0.00  0.00    -0.188 NA
ATOM     15  H   UNL     1      -2.756  -0.734  -1.916  0.00  0.00    +0.148 HD
BRANCH  14  16
ATOM     16  C   UNL     1      -1.117  -1.978  -2.438  0.00  0.00    +0.062 C 
ATOM     17  C   UNL     1      -1.663  -3.407  -2.451  0.00  0.00    +0.019 C 
ATOM     18  C   UNL     1      -3.100  -3.400  -2.975  0.00  0.00    +0.001 C 
ATOM     19  C   UNL     1      -3.122  -2.833  -4.396  0.00  0.00    -0.001 C 
ATOM     20  C   UNL     1      -2.576  -1.404  -4.383  0.00  0.00    -0.015 C 
ATOM     21  C   UNL     1      -1.138  -1.411  -3.859  0.00  0.00    -0.056 C 
BRANCH  21  22
ATOM     22  N   UNL     1      -0.614  -0.039  -3.848  0.00  0.00    +0.381 N 
ATOM     23  H   UNL     1       0.334  -0.044  -3.502  0.00  0.00    -0.090 HD
ATOM     24  H   UNL     1      -0.628   0.334  -4.785  0.00  0.00    -0.090 HD
ATOM     25  H   UNL     1      -1.188   0.535  -3.248  0.00  0.00    -0.090 HD
ENDBRANCH  21  22
ENDBRANCH  14  16
ENDBRANCH   1  14
TORSDOF 5
