REMARK  Name = ZINC21533611
REMARK  4 active torsions:
REMARK  status: ('A' for Active; 'I' for Inactive)
REMARK    1  A    between atoms: C_4  and  C_7
REMARK    2  A    between atoms: C_7  and  N_8
REMARK    3  A    between atoms: N_16  and  C_17
REMARK    4  A    between atoms: C_17  and  C_19
REMARK                            x       y       z     vdW  Elec       q    Type
REMARK                         _______ _______ _______ _____ _____    ______ ____
ROOT
ATOM      1  N   UNL     1       2.859   4.194  -1.388  0.00  0.00    +0.386 N 
ATOM      2  C   UNL     1       3.982   5.141  -1.440  0.00  0.00    -0.072 C 
ATOM      3  C   UNL     1       4.635   5.116  -2.825  0.00  0.00    +0.035 C 
ATOM      4  C   UNL     1       3.542   5.313  -3.870  0.00  0.00    +0.024 A 
ATOM      5  C   UNL     1       2.243   5.107  -3.523  0.00  0.00    -0.004 A 
ATOM      6  S   UNL     1       1.379   5.455  -5.029  0.00  0.00    -0.059 S 
ATOM      7  C   UNL     1       2.776   5.839  -5.991  0.00  0.00    +0.164 A 
ATOM      8  N   UNL     1       3.759   5.681  -5.127  0.00  0.00    -0.339 N 
ATOM      9  N   UNL     1       2.839   6.216  -7.326  0.00  0.00    -0.152 NA
ATOM     10  C   UNL     1       1.722   4.690  -2.190  0.00  0.00    -0.033 C 
ATOM     11  H   UNL     1       4.786   5.864  -5.477  0.00  0.00    +0.167 HD
ATOM     12  H   UNL     1       3.198   3.240  -1.818  0.00  0.00    -0.081 HD
ENDROOT
BRANCH   9  13
ATOM     13  C   UNL     1       4.032   6.475  -7.897  0.00  0.00    +0.278 C 
ATOM     14  O   UNL     1       5.053   6.379  -7.243  0.00  0.00    -0.267 OA
BRANCH  13  15
ATOM     15  C   UNL     1       4.098   6.874  -9.308  0.00  0.00    +0.095 A 
ATOM     16  C   UNL     1       5.196   7.179 -10.053  0.00  0.00    +0.068 A 
ATOM     17  C   UNL     1       5.048   7.538 -11.405  0.00  0.00    +0.008 A 
ATOM     18  C   UNL     1       6.061   7.883 -12.338  0.00  0.00    +0.010 A 
ATOM     19  C   UNL     1       5.744   8.213 -13.616  0.00  0.00    +0.001 A 
ATOM     20  C   UNL     1       4.427   8.227 -14.060  0.00  0.00    +0.001 A 
ATOM     21  C   UNL     1       3.411   7.898 -13.186  0.00  0.00    +0.016 A 
ATOM     22  C   UNL     1       3.718   7.561 -11.885  0.00  0.00    +0.021 A 
ATOM     23  S   UNL     1       2.759   7.085 -10.468  0.00  0.00    -0.082 S 
ATOM     24 CL   UNL     1       6.777   7.120  -9.336  0.00  0.00    -0.082 Cl
ENDBRANCH  13  15
ENDBRANCH   9  13
BRANCH   1  25
ATOM     25  C   UNL     1       2.451   3.937  -0.001  0.00  0.00    -0.043 C 
BRANCH  25  29
ATOM     26  C   UNL     1      -1.219   1.751   0.017  0.00  0.00    +0.000 A 
ATOM     27  C   UNL     1      -0.013   1.076   0.008  0.00  0.00    +0.000 A 
ATOM     28  C   UNL     1       1.175   1.783   0.000  0.00  0.00    +0.002 A 
ATOM     29  C   UNL     1       1.156   3.165   0.008  0.00  0.00    -0.064 A 
ATOM     30  C   UNL     1      -0.050   3.840   0.023  0.00  0.00    +0.002 A 
ATOM     31  C   UNL     1      -1.238   3.133   0.030  0.00  0.00    +0.000 A 
ENDBRANCH  25  29
ENDBRANCH   1  25
TORSDOF 4
