REMARK  Name = ZINC39710257
REMARK  12 active torsions:
REMARK  status: ('A' for Active; 'I' for Inactive)
REMARK    1  A    between atoms: C_1  and  C_2
REMARK    2  A    between atoms: C_9  and  C_14
REMARK    3  A    between atoms: C_14  and  C_16
REMARK    4  A    between atoms: C_14  and  N_26
REMARK    5  A    between atoms: N_21  and  C_22
REMARK    6  A    between atoms: C_22  and  C_23
REMARK    7  A    between atoms: C_22  and  C_24
REMARK    8  A    between atoms: C_22  and  C_25
REMARK    9  A    between atoms: N_26  and  C_27
REMARK   10  A    between atoms: N_26  and  C_34
REMARK   11  A    between atoms: C_27  and  C_28
REMARK   12  A    between atoms: C_34  and  C_35
REMARK                            x       y       z     vdW  Elec       q    Type
REMARK                         _______ _______ _______ _____ _____    ______ ____
ROOT
ATOM      1  C   UNL     1       0.949  -4.644   2.561  0.00  0.00    -0.009 C 
ENDROOT
BRANCH   1  10
ATOM      2  C   UNL     1      -4.726  -3.408   6.716  0.00  0.00    +0.044 C 
ATOM      3  C   UNL     1      -3.854  -3.144   5.516  0.00  0.00    -0.050 A 
ATOM      4  C   UNL     1      -3.902  -1.895   4.898  0.00  0.00    +0.005 A 
ATOM      5  C   UNL     1      -3.146  -1.584   3.813  0.00  0.00    +0.024 A 
ATOM      6  C   UNL     1      -2.266  -2.532   3.260  0.00  0.00    +0.040 A 
ATOM      7  N   UNL     1      -1.528  -2.216   2.196  0.00  0.00    -0.285 N 
ATOM      8  C   UNL     1      -0.682  -3.059   1.628  0.00  0.00    +0.223 C 
ATOM      9  O   UNL     1      -0.035  -2.713   0.657  0.00  0.00    -0.275 OA
ATOM     10  C   UNL     1      -0.522  -4.454   2.188  0.00  0.00    +0.088 C 
ATOM     11  C   UNL     1      -1.359  -4.819   3.399  0.00  0.00    -0.006 C 
ATOM     12  C   UNL     1      -2.194  -3.861   3.893  0.00  0.00    -0.007 A 
ATOM     13  C   UNL     1      -3.033  -4.127   5.062  0.00  0.00    +0.012 A 
ATOM     14  H   UNL     1      -1.616  -1.326   1.821  0.00  0.00    +0.155 HD
ENDBRANCH   1  10
BRANCH   1  15
ATOM     15  C   UNL     1       1.825  -4.373   1.336  0.00  0.00    +0.205 C 
ATOM     16  N   UNL     1       1.441  -5.255   0.226  0.00  0.00    -0.152 NA
ATOM     17  N   UNL     1       2.405  -5.963  -0.072  0.00  0.00    -0.070 NA
ATOM     18  N   UNL     1       3.527  -5.712   0.716  0.00  0.00    -0.179 N 
ATOM     19  N   UNL     1       3.232  -4.722   1.621  0.00  0.00    -0.183 NA
ATOM     20  H   UNL     1       4.382  -6.164   0.637  0.00  0.00    +0.191 HD
BRANCH  19  21
ATOM     21  C   UNL     1       4.111  -3.559   1.437  0.00  0.00    +0.035 C 
ATOM     22  C   UNL     1       3.616  -2.404   2.311  0.00  0.00    +0.029 C 
ATOM     23  C   UNL     1       5.539  -3.929   1.841  0.00  0.00    +0.029 C 
ATOM     24  C   UNL     1       4.091  -3.132  -0.032  0.00  0.00    +0.029 C 
ENDBRANCH  19  21
ENDBRANCH   1  15
BRANCH   1  25
ATOM     25  N   UNL     1       1.164  -6.023   3.021  0.00  0.00    +0.390 N 
ATOM     26  H   UNL     1       0.415  -6.291   3.642  0.00  0.00    -0.080 HD
BRANCH  25  27
ATOM     27  C   UNL     1       2.446  -6.108   3.732  0.00  0.00    -0.042 C 
BRANCH  27  28
ATOM     28  C   UNL     1       2.329  -5.410   5.063  0.00  0.00    -0.064 A 
ATOM     29  C   UNL     1       2.504  -4.041   5.143  0.00  0.00    +0.002 A 
ATOM     30  C   UNL     1       2.397  -3.401   6.364  0.00  0.00    +0.000 A 
ATOM     31  C   UNL     1       2.114  -4.130   7.504  0.00  0.00    +0.000 A 
ATOM     32  C   UNL     1       1.938  -5.498   7.423  0.00  0.00    +0.000 A 
ATOM     33  C   UNL     1       2.041  -6.138   6.202  0.00  0.00    +0.002 A 
ENDBRANCH  27  28
ENDBRANCH  25  27
BRANCH  25  34
ATOM     34  C   UNL     1       1.185  -6.927   1.863  0.00  0.00    -0.040 C 
BRANCH  34  35
ATOM     35  C   UNL     1       0.922  -8.338   2.322  0.00  0.00    -0.046 A 
ATOM     36  C   UNL     1       1.976  -9.217   2.494  0.00  0.00    +0.003 A 
ATOM     37  C   UNL     1       1.735 -10.511   2.916  0.00  0.00    +0.000 A 
ATOM     38  C   UNL     1       0.440 -10.927   3.166  0.00  0.00    +0.001 A 
ATOM     39  C   UNL     1      -0.614 -10.050   2.994  0.00  0.00    +0.020 A 
ATOM     40  C   UNL     1      -0.372  -8.752   2.578  0.00  0.00    +0.042 A 
ATOM     41 CL   UNL     1      -1.695  -7.648   2.369  0.00  0.00    -0.083 Cl
ENDBRANCH  34  35
ENDBRANCH  25  34
ENDBRANCH   1  25
TORSDOF 8
