REMARK  Name = ZINC66934692
REMARK  5 active torsions:
REMARK  status: ('A' for Active; 'I' for Inactive)
REMARK    1  A    between atoms: C_1  and  C_2
REMARK    2  A    between atoms: C_6  and  C_22
REMARK    3  A    between atoms: N_9  and  S_10
REMARK    4  A    between atoms: S_10  and  C_13
REMARK    5  A    between atoms: C_18  and  N_19
REMARK                            x       y       z     vdW  Elec       q    Type
REMARK                         _______ _______ _______ _____ _____    ______ ____
ROOT
ATOM      1  C   UNL     1       0.076   1.851  -0.494  0.00  0.00    +0.028 C 
ATOM      2  C   UNL     1       0.014   0.324  -0.563  0.00  0.00    +0.102 C 
ATOM      3  C   UNL     1      -1.448  -0.131  -0.626  0.00  0.00    +0.181 C 
ATOM      4  O   UNL     1      -2.089   0.169   0.616  0.00  0.00    -0.369 OA
ATOM      5  C   UNL     1      -1.533  -0.515   1.741  0.00  0.00    +0.164 C 
ATOM      6  C   UNL     1      -0.075  -0.079   1.926  0.00  0.00    +0.146 C 
ATOM      7  N   UNL     1       0.628  -0.252   0.644  0.00  0.00    -0.169 NA
ENDROOT
BRANCH   5   8
ATOM      8  C   UNL     1      -2.322  -0.173   2.979  0.00  0.00    -0.018 A 
ATOM      9  C   UNL     1      -2.860   1.092   3.128  0.00  0.00    +0.006 A 
ATOM     10  C   UNL     1      -3.584   1.406   4.263  0.00  0.00    +0.000 A 
ATOM     11  C   UNL     1      -3.771   0.455   5.248  0.00  0.00    +0.000 A 
ATOM     12  C   UNL     1      -3.234  -0.810   5.099  0.00  0.00    +0.000 A 
ATOM     13  C   UNL     1      -2.513  -1.125   3.962  0.00  0.00    +0.006 A 
ENDBRANCH   5   8
BRANCH   7  14
ATOM     14  S   UNL     1       2.066  -1.069   0.562  0.00  0.00    +0.063 S 
ATOM     15  O   UNL     1       2.089  -1.961   1.668  0.00  0.00    -0.153 OA
ATOM     16  O   UNL     1       2.203  -1.516  -0.780  0.00  0.00    -0.153 OA
BRANCH  14  17
ATOM     17  C   UNL     1       3.350   0.105   0.835  0.00  0.00    +0.136 A 
ATOM     18  C   UNL     1       3.044   1.364   1.319  0.00  0.00    +0.031 A 
ATOM     19  C   UNL     1       4.052   2.285   1.533  0.00  0.00    +0.002 A 
ATOM     20  C   UNL     1       5.365   1.949   1.263  0.00  0.00    +0.002 A 
ATOM     21  C   UNL     1       5.671   0.691   0.780  0.00  0.00    +0.035 A 
ATOM     22  C   UNL     1       4.664  -0.233   0.570  0.00  0.00    +0.152 A 
BRANCH  22  23
ATOM     23  N   UNL     1       4.992  -1.582   0.057  0.00  0.00    +0.058 N 
ATOM     24  O   UNL     1       6.121  -1.839  -0.289  0.00  0.00    -0.126 OA
ATOM     25  O   UNL     1       4.130  -2.427  -0.016  0.00  0.00    -0.126 OA
ENDBRANCH  22  23
ENDBRANCH  14  17
ENDBRANCH   7  14
TORSDOF 4
