REMARK  Name = ZINC53363604
REMARK  6 active torsions:
REMARK  status: ('A' for Active; 'I' for Inactive)
REMARK    1  A    between atoms: C_1  and  O_2
REMARK    2  A    between atoms: O_2  and  C_3
REMARK    3  A    between atoms: C_7  and  C_10
REMARK    4  A    between atoms: C_8  and  O_9
REMARK    5  A    between atoms: C_13  and  C_25
REMARK    6  A    between atoms: C_15  and  C_18
REMARK                            x       y       z     vdW  Elec       q    Type
REMARK                         _______ _______ _______ _____ _____    ______ ____
ROOT
ATOM      1  C   UNL     1      -2.549  -4.175   0.017  0.00  0.00    +0.095 C 
ATOM      2  C   UNL     1      -2.346  -4.700  -1.408  0.00  0.00    +0.079 C 
ATOM      3  C   UNL     1      -2.721  -6.155  -1.464  0.00  0.00    +0.047 C 
ATOM      4  N   UNL     1      -3.405  -6.737  -0.551  0.00  0.00    -0.264 NA
ATOM      5  C   UNL     1      -3.893  -6.074   0.652  0.00  0.00    +0.204 C 
ATOM      6  N   UNL     1      -3.874  -4.616   0.486  0.00  0.00    -0.284 NA
ATOM      7  H   UNL     1      -4.127  -4.151   1.345  0.00  0.00    +0.125 HD
ENDROOT
BRANCH   5   8
ATOM      8  C   UNL     1      -3.015  -6.452   1.817  0.00  0.00    -0.009 A 
ATOM      9  C   UNL     1      -2.843  -5.568   2.866  0.00  0.00    +0.008 A 
ATOM     10  C   UNL     1      -2.038  -5.913   3.936  0.00  0.00    +0.020 A 
ATOM     11  C   UNL     1      -1.405  -7.143   3.956  0.00  0.00    +0.041 A 
ATOM     12  C   UNL     1      -1.578  -8.027   2.905  0.00  0.00    +0.020 A 
ATOM     13  C   UNL     1      -2.388  -7.683   1.839  0.00  0.00    +0.008 A 
ATOM     14 CL   UNL     1      -0.393  -7.577   5.298  0.00  0.00    -0.084 Cl
ENDBRANCH   5   8
BRANCH   3  15
ATOM     15  C   UNL     1      -2.281  -6.950  -2.627  0.00  0.00    -0.004 A 
ATOM     16  C   UNL     1      -1.530  -6.353  -3.641  0.00  0.00    +0.011 A 
ATOM     17  C   UNL     1      -1.121  -7.101  -4.725  0.00  0.00    +0.020 A 
ATOM     18  C   UNL     1      -1.455  -8.443  -4.809  0.00  0.00    +0.041 A 
ATOM     19  C   UNL     1      -2.201  -9.041  -3.807  0.00  0.00    +0.020 A 
ATOM     20  C   UNL     1      -2.610  -8.305  -2.715  0.00  0.00    +0.011 A 
ATOM     21 CL   UNL     1      -0.937  -9.378  -6.176  0.00  0.00    -0.084 Cl
ENDBRANCH   3  15
BRANCH   1  26
ATOM     22  C   UNL     1      -1.201  -0.638   0.010  0.00  0.00    +0.162 A 
ATOM     23  C   UNL     1      -2.374   0.099   0.019  0.00  0.00    +0.049 A 
ATOM     24  C   UNL     1      -3.596  -0.546   0.027  0.00  0.00    +0.004 A 
ATOM     25  C   UNL     1      -3.652  -1.928   0.026  0.00  0.00    +0.009 A 
ATOM     26  C   UNL     1      -2.485  -2.669   0.017  0.00  0.00    +0.015 A 
ATOM     27  C   UNL     1      -1.257  -2.028   0.003  0.00  0.00    +0.163 A 
BRANCH  22  29
ATOM     28  C   UNL     1      -0.017   1.425   0.010  0.00  0.00    +0.277 C 
ATOM     29  O   UNL     1       0.002  -0.004   0.002  0.00  0.00    -0.491 OA
ENDBRANCH  22  29
BRANCH  27  30
ATOM     30  O   UNL     1      -0.108  -2.756  -0.012  0.00  0.00    -0.503 OA
ATOM     31  H   UNL     1       0.232  -2.972   0.867  0.00  0.00    +0.292 HD
ENDBRANCH  27  30
ENDBRANCH   1  26
TORSDOF 5
