REMARK  Name = ZINC33436929
REMARK  8 active torsions:
REMARK  status: ('A' for Active; 'I' for Inactive)
REMARK    1  A    between atoms: C_1  and  C_2
REMARK    2  A    between atoms: C_2  and  C_3
REMARK    3  A    between atoms: C_2  and  C_4
REMARK    4  A    between atoms: C_4  and  C_5
REMARK    5  A    between atoms: C_5  and  C_32
REMARK    6  A    between atoms: C_10  and  C_13
REMARK    7  A    between atoms: C_18  and  O_19
REMARK    8  A    between atoms: N_23  and  C_26
REMARK                            x       y       z     vdW  Elec       q    Type
REMARK                         _______ _______ _______ _____ _____    ______ ____
ROOT
ATOM      1  C   UNL     1      -2.035  -1.572   0.976  0.00  0.00    +0.048 C 
ATOM      2  C   UNL     1      -3.542  -1.869   0.829  0.00  0.00    +0.086 C 
ATOM      3  C   UNL     1      -3.677  -2.563  -0.553  0.00  0.00    +0.077 C 
ATOM      4  C   UNL     1      -2.241  -2.605  -1.117  0.00  0.00    -0.023 C 
ATOM      5  N   UNL     1      -1.367  -2.559   0.091  0.00  0.00    +0.396 N 
ATOM      6  C   UNL     1      -4.128  -3.962  -0.199  0.00  0.00    +0.225 C 
ATOM      7  O   UNL     1      -4.356  -4.848  -0.995  0.00  0.00    -0.275 OA
ATOM      8  N   UNL     1      -4.237  -4.070   1.130  0.00  0.00    -0.239 N 
ATOM      9  C   UNL     1      -3.936  -2.944   1.817  0.00  0.00    +0.225 C 
ATOM     10  O   UNL     1      -3.970  -2.810   3.021  0.00  0.00    -0.275 OA
ATOM     11  H   UNL     1      -0.443  -2.240  -0.160  0.00  0.00    -0.083 HD
ATOM     12  H   UNL     1      -1.321  -3.461   0.540  0.00  0.00    -0.083 HD
ENDROOT
BRANCH   4  13
ATOM     13  C   UNL     1      -2.009  -3.891  -1.868  0.00  0.00    -0.018 A 
ATOM     14  C   UNL     1      -1.384  -4.953  -1.244  0.00  0.00    +0.025 A 
ATOM     15  C   UNL     1      -1.171  -6.134  -1.933  0.00  0.00    +0.041 A 
ATOM     16  C   UNL     1      -1.583  -6.254  -3.248  0.00  0.00    +0.023 A 
ATOM     17  C   UNL     1      -2.209  -5.194  -3.876  0.00  0.00    +0.047 A 
ATOM     18  C   UNL     1      -2.429  -4.011  -3.185  0.00  0.00    +0.119 A 
ATOM     19 CL   UNL     1      -0.385  -7.467  -1.146  0.00  0.00    -0.084 Cl
BRANCH  18  20
ATOM     20  O   UNL     1      -3.049  -2.969  -3.799  0.00  0.00    -0.507 OA
ATOM     21  H   UNL     1      -2.446  -2.365  -4.253  0.00  0.00    +0.292 HD
ENDBRANCH  18  20
ENDBRANCH   4  13
BRANCH   8  22
ATOM     22  C   UNL     1      -4.658  -5.308   1.793  0.00  0.00    +0.084 C 
ATOM     23  C   UNL     1      -3.675  -6.429   1.450  0.00  0.00    +0.023 C 
ATOM     24  C   UNL     1      -4.114  -7.721   2.142  0.00  0.00    +0.002 C 
ATOM     25  C   UNL     1      -5.514  -8.106   1.662  0.00  0.00    +0.000 C 
ATOM     26  C   UNL     1      -6.497  -6.985   2.005  0.00  0.00    +0.002 C 
ATOM     27  C   UNL     1      -6.059  -5.693   1.313  0.00  0.00    +0.023 C 
ENDBRANCH   8  22
BRANCH   1  28
ATOM     28  C   UNL     1      -1.597  -1.767   2.405  0.00  0.00    +0.346 C 
ATOM     29  O   UNL     1      -1.970  -0.991   3.269  0.00  0.00    -0.248 OA
ATOM     30  O   UNL     1      -0.868  -2.700   2.697  0.00  0.00    -0.248 OA
ENDBRANCH   1  28
BRANCH   1  31
ATOM     31  C   UNL     1      -1.725  -0.146   0.515  0.00  0.00    +0.002 C 
BRANCH  31  33
ATOM     32  C   UNL     1       0.101   1.406  -0.191  0.00  0.00    +0.007 C 
ATOM     33  C   UNL     1      -0.209   0.050   0.446  0.00  0.00    -0.018 C 
ATOM     34  C   UNL     1       0.375   0.004   1.860  0.00  0.00    +0.007 C 
ENDBRANCH  31  33
ENDBRANCH   1  31
TORSDOF 6
