REMARK  Name = ZINC27063267
REMARK  9 active torsions:
REMARK  status: ('A' for Active; 'I' for Inactive)
REMARK    1  A    between atoms: C_1  and  N_2
REMARK    2  A    between atoms: N_2  and  C_3
REMARK    3  A    between atoms: N_2  and  C_4
REMARK    4  A    between atoms: C_4  and  C_6
REMARK    5  A    between atoms: C_4  and  C_20
REMARK    6  A    between atoms: C_6  and  N_7
REMARK    7  A    between atoms: N_7  and  C_8
REMARK    8  A    between atoms: C_24  and  O_26
REMARK    9  A    between atoms: O_26  and  C_27
REMARK                            x       y       z     vdW  Elec       q    Type
REMARK                         _______ _______ _______ _____ _____    ______ ____
ROOT
ATOM      1  N   UNL     1      -1.002   6.810  -1.376  0.00  0.00    -0.350 N 
ATOM      2  H   UNL     1      -1.726   7.258  -0.679  0.00  0.00    +0.145 HD
ENDROOT
BRANCH   1   3
ATOM      3  C   UNL     1      -0.405   7.551  -2.253  0.00  0.00    +0.080 C 
ATOM      4  C   UNL     1      -0.805   8.960  -2.423  0.00  0.00    +0.051 C 
ATOM      5  C   UNL     1      -0.101   9.789  -3.287  0.00  0.00    +0.024 C 
ATOM      6  C   UNL     1      -0.523  11.124  -3.413  0.00  0.00    -0.003 A 
ATOM      7  C   UNL     1       0.141  12.018  -4.269  0.00  0.00    +0.010 A 
ATOM      8  C   UNL     1      -0.294  13.305  -4.368  0.00  0.00    +0.001 A 
ATOM      9  C   UNL     1      -1.390  13.747  -3.631  0.00  0.00    +0.002 A 
ATOM     10  C   UNL     1      -2.056  12.907  -2.791  0.00  0.00    +0.024 A 
ATOM     11  C   UNL     1      -1.639  11.572  -2.661  0.00  0.00    +0.041 A 
ATOM     12  N   UNL     1      -2.281  10.731  -1.842  0.00  0.00    -0.281 N 
ATOM     13  C   UNL     1      -1.910   9.477  -1.711  0.00  0.00    +0.249 C 
ATOM     14  O   UNL     1      -2.599   8.666  -0.873  0.00  0.00    -0.270 OA
ATOM     15  H   UNL     1      -3.143  11.084  -1.257  0.00  0.00    +0.155 HD
ENDBRANCH   1   3
BRANCH   1  16
ATOM     16  C   UNL     1      -0.715   5.375  -1.313  0.00  0.00    +0.090 C 
BRANCH  16  17
ATOM     17  C   UNL     1      -0.111   5.036   0.051  0.00  0.00    -0.021 C 
BRANCH  17  18
ATOM     18  C   UNL     1       0.127   3.550   0.140  0.00  0.00    -0.056 A 
ATOM     19  C   UNL     1      -0.808   2.736   0.752  0.00  0.00    +0.002 A 
ATOM     20  C   UNL     1      -0.595   1.373   0.831  0.00  0.00    +0.004 A 
ATOM     21  C   UNL     1       0.558   0.821   0.307  0.00  0.00    +0.045 A 
ATOM     22  C   UNL     1       1.498   1.635  -0.308  0.00  0.00    +0.120 A 
ATOM     23  C   UNL     1       1.279   3.003  -0.390  0.00  0.00    +0.047 A 
BRANCH  22  24
ATOM     24  O   UNL     1       2.630   1.094  -0.829  0.00  0.00    -0.495 OA
ATOM     25  C   UNL     1       2.788  -0.321  -0.708  0.00  0.00    +0.277 C 
ENDBRANCH  22  24
ENDBRANCH  17  18
BRANCH  17  27
ATOM     26  C   UNL     1      -0.765   6.825   1.546  0.00  0.00    -0.096 C 
ATOM     27  N   UNL     1      -1.038   5.448   1.114  0.00  0.00    +0.382 N 
ATOM     28  C   UNL     1      -2.434   5.299   0.681  0.00  0.00    -0.096 C 
ATOM     29  H   UNL     1      -0.879   4.784   1.977  0.00  0.00    -0.082 HD
ENDBRANCH  17  27
ENDBRANCH  16  17
ENDBRANCH   1  16
TORSDOF 6
