REMARK  Name = ZINC38942723
REMARK  9 active torsions:
REMARK  status: ('A' for Active; 'I' for Inactive)
REMARK    1  A    between atoms: C_1  and  C_2
REMARK    2  A    between atoms: C_4  and  C_14
REMARK    3  A    between atoms: N_16  and  C_17
REMARK    4  A    between atoms: C_25  and  C_33
REMARK    5  A    between atoms: C_25  and  C_34
REMARK    6  A    between atoms: N_28  and  C_29
REMARK    7  A    between atoms: C_29  and  C_30
REMARK    8  A    between atoms: C_30  and  C_31
REMARK    9  A    between atoms: C_30  and  C_32
REMARK                            x       y       z     vdW  Elec       q    Type
REMARK                         _______ _______ _______ _____ _____    ______ ____
ROOT
ATOM      1  C   UNL     1      -2.013   2.270  -2.298  0.00  0.00    +0.037 A 
ATOM      2  C   UNL     1      -2.733   1.254  -2.913  0.00  0.00    +0.025 A 
ATOM      3  C   UNL     1      -3.615   1.551  -3.935  0.00  0.00    +0.029 A 
ATOM      4  C   UNL     1      -3.780   2.863  -4.347  0.00  0.00    +0.078 A 
ATOM      5  C   UNL     1      -3.057   3.885  -3.733  0.00  0.00    +0.144 A 
ATOM      6  C   UNL     1      -2.180   3.587  -2.705  0.00  0.00    +0.070 A 
ATOM      7  O   UNL     1      -3.217   5.169  -4.151  0.00  0.00    -0.489 OA
ATOM      8  C   UNL     1      -2.605   5.533  -5.385  0.00  0.00    +0.244 C 
ATOM      9  C   UNL     1      -2.833   4.448  -6.435  0.00  0.00    +0.076 C 
ATOM     10  C   UNL     1      -4.264   3.978  -6.390  0.00  0.00    +0.229 C 
ATOM     11  O   UNL     1      -5.044   4.314  -7.257  0.00  0.00    -0.275 OA
ATOM     12  N   UNL     1      -4.675   3.180  -5.380  0.00  0.00    -0.267 N 
ATOM     13  C   UNL     1      -1.902   3.267  -6.156  0.00  0.00    +0.024 C 
ATOM     14  C   UNL     1      -2.529   5.014  -7.824  0.00  0.00    +0.024 C 
ENDROOT
BRANCH   1  17
ATOM     15  C   UNL     1      -1.345   0.897  -0.472  0.00  0.00    +0.262 C 
ATOM     16  O   UNL     1      -2.247   0.129  -0.733  0.00  0.00    -0.271 OA
ATOM     17  N   UNL     1      -1.122   1.966  -1.261  0.00  0.00    -0.282 N 
ATOM     18  H   UNL     1      -0.343   2.525  -1.111  0.00  0.00    +0.155 HD
BRANCH  15  21
ATOM     19  C   UNL     1      -2.484   0.709   2.233  0.00  0.00    +0.056 C 
ATOM     20  C   UNL     1      -1.105   1.318   1.968  0.00  0.00    +0.220 C 
ATOM     21  C   UNL     1      -0.475   0.656   0.735  0.00  0.00    +0.299 C 
ATOM     22  O   UNL     1       0.816   1.238   0.524  0.00  0.00    -0.472 OA
ATOM     23  C   UNL     1       1.614   1.367   1.619  0.00  0.00    +0.163 A 
ATOM     24  C   UNL     1       2.975   1.573   1.448  0.00  0.00    +0.049 A 
ATOM     25  C   UNL     1       3.798   1.709   2.550  0.00  0.00    +0.004 A 
ATOM     26  C   UNL     1       3.268   1.640   3.825  0.00  0.00    +0.004 A 
ATOM     27  C   UNL     1       1.913   1.433   4.002  0.00  0.00    +0.049 A 
ATOM     28  C   UNL     1       1.082   1.294   2.900  0.00  0.00    +0.163 A 
ATOM     29  O   UNL     1      -0.250   1.083   3.091  0.00  0.00    -0.481 OA
ENDBRANCH  15  21
ENDBRANCH   1  17
BRANCH  12  30
ATOM     30  C   UNL     1      -6.041   2.651  -5.364  0.00  0.00    +0.116 C 
BRANCH  30  31
ATOM     31  C   UNL     1      -6.957   3.625  -4.621  0.00  0.00    +0.001 C 
ATOM     32  C   UNL     1      -7.042   4.940  -5.400  0.00  0.00    +0.009 C 
ATOM     33  C   UNL     1      -8.355   3.016  -4.495  0.00  0.00    +0.009 C 
ENDBRANCH  30  31
ENDBRANCH  12  30
TORSDOF 4
