REMARK  Name = ZINC35746358
REMARK  10 active torsions:
REMARK  status: ('A' for Active; 'I' for Inactive)
REMARK    1  A    between atoms: C_1  and  C_2
REMARK    2  A    between atoms: C_2  and  C_3
REMARK    3  A    between atoms: C_2  and  C_4
REMARK    4  A    between atoms: C_2  and  O_28
REMARK    5  A    between atoms: C_4  and  N_5
REMARK    6  A    between atoms: N_5  and  C_6
REMARK    7  A    between atoms: N_5  and  C_9
REMARK    8  A    between atoms: C_6  and  C_7
REMARK    9  A    between atoms: C_9  and  C_10
REMARK   10  A    between atoms: C_16  and  C_21
REMARK                            x       y       z     vdW  Elec       q    Type
REMARK                         _______ _______ _______ _____ _____    ______ ____
ROOT
ATOM      1  C   UNL     1      -4.037   0.073  -2.665  0.00  0.00    +0.094 A 
ATOM      2  N   UNL     1      -5.339  -0.158  -2.973  0.00  0.00    -0.312 N 
ATOM      3  H   UNL     1      -5.881  -0.696  -2.375  0.00  0.00    +0.170 HD
ATOM      4  C   UNL     1      -5.892   0.344  -4.093  0.00  0.00    +0.260 A 
ATOM      5  O   UNL     1      -7.063   0.127  -4.356  0.00  0.00    -0.267 OA
ATOM      6  C   UNL     1      -5.086   1.137  -4.970  0.00  0.00    +0.080 A 
ATOM      7  C   UNL     1      -5.449   1.784  -6.225  0.00  0.00    +0.004 A 
ATOM      8  C   UNL     1      -4.505   2.493  -6.890  0.00  0.00    +0.056 A 
ATOM      9  S   UNL     1      -3.062   2.329  -5.856  0.00  0.00    -0.076 S 
ATOM     10  C   UNL     1      -3.753   1.323  -4.569  0.00  0.00    +0.116 A 
ATOM     11  N   UNL     1      -3.278   0.797  -3.442  0.00  0.00    -0.229 NA
ENDROOT
BRANCH   7  12
ATOM     12  C   UNL     1      -6.825   1.668  -6.764  0.00  0.00    -0.015 A 
ATOM     13  C   UNL     1      -7.433   0.417  -6.867  0.00  0.00    +0.008 A 
ATOM     14  C   UNL     1      -8.714   0.314  -7.370  0.00  0.00    +0.002 A 
ATOM     15  C   UNL     1      -9.396   1.449  -7.771  0.00  0.00    +0.020 A 
ATOM     16  C   UNL     1      -8.798   2.693  -7.671  0.00  0.00    +0.042 A 
ATOM     17  C   UNL     1      -7.518   2.809  -7.164  0.00  0.00    +0.028 A 
ATOM     18 CL   UNL     1      -9.661   4.112  -8.178  0.00  0.00    -0.084 Cl
ENDBRANCH   7  12
BRANCH   1  19
ATOM     19  C   UNL     1      -3.461  -0.510  -1.400  0.00  0.00    -0.003 C 
BRANCH  19  20
ATOM     20  N   UNL     1      -2.050  -0.120  -1.280  0.00  0.00    +0.388 N 
ATOM     21  H   UNL     1      -1.555  -0.388  -2.118  0.00  0.00    -0.081 HD
BRANCH  20  22
ATOM     22  C   UNL     1      -1.452  -0.796  -0.121  0.00  0.00    -0.043 C 
BRANCH  22  24
ATOM     23  C   UNL     1      -0.616  -2.498  -1.748  0.00  0.00    +0.039 C 
ATOM     24  C   UNL     1      -1.330  -2.293  -0.410  0.00  0.00    +0.046 C 
ATOM     25  C   UNL     1      -0.526  -2.964   0.705  0.00  0.00    +0.039 C 
BRANCH  24  26
ATOM     26  O   UNL     1      -2.635  -2.874  -0.473  0.00  0.00    -0.391 OA
ATOM     27  H   UNL     1      -3.146  -2.781   0.343  0.00  0.00    +0.210 HD
ENDBRANCH  24  26
ENDBRANCH  22  24
ENDBRANCH  20  22
BRANCH  20  28
ATOM     28  C   UNL     1      -1.957   1.335  -1.100  0.00  0.00    -0.051 C 
BRANCH  28  29
ATOM     29  C   UNL     1      -0.512   1.758  -1.167  0.00  0.00    -0.053 C 
ATOM     30  C   UNL     1      -0.127   2.632  -2.064  0.00  0.00    +0.002 C 
ENDBRANCH  28  29
ENDBRANCH  20  28
ENDBRANCH  19  20
ENDBRANCH   1  19
TORSDOF 8
