REMARK  Name = ZINC39933079
REMARK  5 active torsions:
REMARK  status: ('A' for Active; 'I' for Inactive)
REMARK    1  A    between atoms: C_1  and  C_2
REMARK    2  A    between atoms: C_7  and  N_8
REMARK    3  A    between atoms: C_9  and  C_15
REMARK    4  A    between atoms: C_16  and  C_26
REMARK    5  A    between atoms: N_17  and  C_20
REMARK                            x       y       z     vdW  Elec       q    Type
REMARK                         _______ _______ _______ _____ _____    ______ ____
ROOT
ATOM      1  C   UNL     1      -2.008  -0.706   3.809  0.00  0.00    +0.083 C 
ATOM      2  C   UNL     1      -3.291  -0.930   3.571  0.00  0.00    +0.048 C 
ATOM      3  N   UNL     1      -3.583  -2.251   3.936  0.00  0.00    -0.223 N 
ATOM      4  N   UNL     1      -2.432  -2.821   4.402  0.00  0.00    -0.156 NA
ATOM      5  N   UNL     1      -1.444  -1.879   4.325  0.00  0.00    -0.263 N 
ATOM      6  C   UNL     1      -4.271   0.066   3.006  0.00  0.00    +0.064 C 
ATOM      7  H   UNL     1      -2.549  -3.150   5.348  0.00  0.00    +0.168 HD
ATOM      8  H   UNL     1      -0.517  -2.001   4.584  0.00  0.00    +0.168 HD
ENDROOT
BRANCH   1  10
ATOM      9  N   UNL     1      -0.178   0.387   2.596  0.00  0.00    -0.250 N 
ATOM     10  C   UNL     1      -1.278   0.588   3.559  0.00  0.00    +0.265 C 
ATOM     11  N   UNL     1      -0.588   1.041   4.778  0.00  0.00    -0.167 NA
ATOM     12  N   UNL     1       0.622   1.080   4.536  0.00  0.00    -0.098 NA
ATOM     13  C   UNL     1       0.936   0.708   3.289  0.00  0.00    +0.183 C 
ATOM     14  S   UNL     1       2.528   0.650   2.660  0.00  0.00    -0.015 S 
BRANCH   9  21
ATOM     15  C   UNL     1      -0.479   2.355   0.563  0.00  0.00    +0.045 C 
ATOM     16  C   UNL     1      -0.417   0.884   0.245  0.00  0.00    -0.029 A 
ATOM     17  C   UNL     1      -0.500   0.455  -1.065  0.00  0.00    +0.005 A 
ATOM     18  C   UNL     1      -0.442  -0.895  -1.357  0.00  0.00    +0.000 A 
ATOM     19  C   UNL     1      -0.300  -1.821  -0.340  0.00  0.00    +0.002 A 
ATOM     20  C   UNL     1      -0.216  -1.399   0.972  0.00  0.00    +0.024 A 
ATOM     21  C   UNL     1      -0.269  -0.043   1.269  0.00  0.00    +0.041 A 
ENDBRANCH   9  21
ENDBRANCH   1  10
BRANCH   3  22
ATOM     22  C   UNL     1      -4.828  -2.874   3.840  0.00  0.00    +0.051 A 
ATOM     23  C   UNL     1      -5.568  -2.776   2.667  0.00  0.00    +0.025 A 
ATOM     24  C   UNL     1      -6.799  -3.394   2.576  0.00  0.00    +0.002 A 
ATOM     25  C   UNL     1      -7.296  -4.110   3.649  0.00  0.00    +0.000 A 
ATOM     26  C   UNL     1      -6.563  -4.210   4.818  0.00  0.00    +0.002 A 
ATOM     27  C   UNL     1      -5.329  -3.599   4.914  0.00  0.00    +0.025 A 
ENDBRANCH   3  22
TORSDOF 3
