REMARK  Name = ZINC38617669
REMARK  5 active torsions:
REMARK  status: ('A' for Active; 'I' for Inactive)
REMARK    1  A    between atoms: C_1  and  C_2
REMARK    2  A    between atoms: C_9  and  N_28
REMARK    3  A    between atoms: C_11  and  C_15
REMARK    4  A    between atoms: C_16  and  C_17
REMARK    5  A    between atoms: C_16  and  C_19
REMARK                            x       y       z     vdW  Elec       q    Type
REMARK                         _______ _______ _______ _____ _____    ______ ____
ROOT
ATOM      1  C   UNL     1       0.066   0.940  -0.567  0.00  0.00    +0.047 C 
ATOM      2  C   UNL     1       0.002  -0.549  -0.347  0.00  0.00    -0.010 C 
ATOM      3  C   UNL     1      -0.046  -1.397  -1.405  0.00  0.00    +0.008 C 
ATOM      4  C   UNL     1      -0.103  -2.787  -1.187  0.00  0.00    +0.016 C 
ATOM      5  C   UNL     1      -0.178  -3.278   0.064  0.00  0.00    +0.085 C 
ATOM      6  N   UNL     1      -0.202  -2.434   1.146  0.00  0.00    -0.231 N 
ATOM      7  C   UNL     1      -0.003  -1.080   0.969  0.00  0.00    +0.131 C 
ATOM      8  N   UNL     1       0.189  -0.278   1.986  0.00  0.00    -0.248 NA
ATOM      9  C   UNL     1       0.278  -0.770   3.358  0.00  0.00    +0.193 C 
ATOM     10  C   UNL     1      -0.622  -1.993   3.539  0.00  0.00    +0.139 C 
ATOM     11  C   UNL     1      -0.428  -2.933   2.377  0.00  0.00    +0.235 C 
ATOM     12  O   UNL     1      -0.461  -4.132   2.552  0.00  0.00    -0.274 OA
ENDROOT
BRANCH   9  13
ATOM     13  N   UNL     1      -0.151   0.288   4.283  0.00  0.00    -0.280 NA
ATOM     14  C   UNL     1       0.533   1.553   3.989  0.00  0.00    +0.086 C 
ATOM     15  C   UNL     1      -0.042   2.663   4.872  0.00  0.00    +0.015 C 
ATOM     16  C   UNL     1       0.149   2.288   6.344  0.00  0.00    +0.002 C 
ATOM     17  C   UNL     1      -0.532   0.943   6.612  0.00  0.00    +0.015 C 
ATOM     18  C   UNL     1       0.058  -0.117   5.679  0.00  0.00    +0.086 C 
ENDBRANCH   9  13
BRANCH  10  19
ATOM     19  C   UNL     1      -2.064  -1.555   3.585  0.00  0.00    +0.007 C 
ATOM     20  C   UNL     1      -2.838  -1.921   4.603  0.00  0.00    +0.068 C 
BRANCH  20  21
ATOM     21  C   UNL     1      -4.279  -1.483   4.650  0.00  0.00    +0.216 C 
ATOM     22  N   UNL     1      -5.159  -2.655   4.739  0.00  0.00    -0.359 N 
ATOM     23  C   UNL     1      -5.829  -2.556   5.851  0.00  0.00    +0.060 A 
ATOM     24  C   UNL     1      -6.846  -3.407   6.484  0.00  0.00    +0.027 A 
ATOM     25  C   UNL     1      -7.377  -3.041   7.668  0.00  0.00    +0.002 A 
ATOM     26  C   UNL     1      -6.997  -1.864   8.337  0.00  0.00    +0.002 A 
ATOM     27  C   UNL     1      -6.075  -1.013   7.845  0.00  0.00    +0.027 A 
ATOM     28  C   UNL     1      -5.428  -1.310   6.560  0.00  0.00    +0.060 A 
ATOM     29  N   UNL     1      -4.525  -0.686   5.859  0.00  0.00    -0.359 N 
ATOM     30  H   UNL     1      -5.229  -3.371   4.089  0.00  0.00    +0.162 HD
ATOM     31  H   UNL     1      -4.094   0.150   6.092  0.00  0.00    +0.162 HD
ENDBRANCH  20  21
BRANCH  20  32
ATOM     32  C   UNL     1      -2.302  -2.731   5.655  0.00  0.00    +0.098 C 
ATOM     33  N   UNL     1      -1.876  -3.374   6.490  0.00  0.00    -0.191 NA
ENDBRANCH  20  32
ENDBRANCH  10  19
TORSDOF 4
