REMARK  Name = ZINC15616454
REMARK  8 active torsions:
REMARK  status: ('A' for Active; 'I' for Inactive)
REMARK    1  A    between atoms: C_1  and  C_2
REMARK    2  A    between atoms: C_2  and  C_3
REMARK    3  A    between atoms: C_2  and  C_4
REMARK    4  A    between atoms: C_7  and  C_10
REMARK    5  A    between atoms: C_10  and  C_12
REMARK    6  A    between atoms: C_10  and  N_17
REMARK    7  A    between atoms: C_18  and  C_20
REMARK    8  A    between atoms: C_25  and  N_26
REMARK                            x       y       z     vdW  Elec       q    Type
REMARK                         _______ _______ _______ _____ _____    ______ ____
ROOT
ATOM      1  C   UNL     1      -2.821   2.958   4.826  0.00  0.00    +0.140 C 
ENDROOT
BRANCH   1   5
ATOM      2  C   UNL     1      -0.913   1.537   1.278  0.00  0.00    -0.045 A 
ATOM      3  C   UNL     1      -1.030   2.896   1.504  0.00  0.00    +0.004 A 
ATOM      4  C   UNL     1      -1.652   3.356   2.650  0.00  0.00    +0.006 A 
ATOM      5  C   UNL     1      -2.148   2.457   3.575  0.00  0.00    -0.022 A 
ATOM      6  C   UNL     1      -2.027   1.098   3.352  0.00  0.00    +0.006 A 
ATOM      7  C   UNL     1      -1.409   0.638   2.204  0.00  0.00    +0.004 A 
BRANCH   2   9
ATOM      8  C   UNL     1       1.201   1.549  -0.018  0.00  0.00    +0.012 C 
ATOM      9  C   UNL     1      -0.240   1.036   0.026  0.00  0.00    +0.013 C 
ATOM     10  C   UNL     1      -1.000   1.545  -1.200  0.00  0.00    +0.012 C 
ENDBRANCH   2   9
ENDBRANCH   1   5
BRANCH   1  11
ATOM     11  C   UNL     1      -4.239   3.356   4.509  0.00  0.00    +0.014 A 
ATOM     12  C   UNL     1      -5.387   2.666   4.717  0.00  0.00    +0.013 A 
ATOM     13  C   UNL     1      -6.590   3.236   4.342  0.00  0.00    +0.008 A 
ATOM     14  C   UNL     1      -6.585   4.468   3.777  0.00  0.00    +0.045 A 
ATOM     15  S   UNL     1      -4.844   4.863   3.767  0.00  0.00    -0.099 S 
ENDBRANCH   1  11
BRANCH   1  16
ATOM     16  N   UNL     1      -2.092   4.119   5.342  0.00  0.00    -0.300 N 
ATOM     17  C   UNL     1      -2.161   4.430   6.652  0.00  0.00    +0.247 C 
ATOM     18  O   UNL     1      -2.828   3.748   7.404  0.00  0.00    -0.270 OA
ATOM     19  H   UNL     1      -1.559   4.663   4.741  0.00  0.00    +0.150 HD
BRANCH  17  20
ATOM     20  C   UNL     1      -1.424   5.602   7.172  0.00  0.00    +0.067 A 
ATOM     21  C   UNL     1      -1.624   6.863   6.608  0.00  0.00    +0.015 A 
ATOM     22  C   UNL     1      -0.937   7.953   7.101  0.00  0.00    +0.001 A 
ATOM     23  C   UNL     1      -0.044   7.796   8.147  0.00  0.00    +0.002 A 
ATOM     24  C   UNL     1       0.162   6.548   8.707  0.00  0.00    +0.033 A 
ATOM     25  C   UNL     1      -0.522   5.451   8.226  0.00  0.00    +0.138 A 
BRANCH  25  26
ATOM     26  N   UNL     1      -0.300   4.117   8.827  0.00  0.00    +0.057 N 
ATOM     27  O   UNL     1       0.396   4.004   9.820  0.00  0.00    -0.126 OA
ATOM     28  O   UNL     1      -0.812   3.131   8.327  0.00  0.00    -0.126 OA
ENDBRANCH  25  26
ENDBRANCH  17  20
ENDBRANCH   1  16
TORSDOF 6
