REMARK  Name = ZINC23968306
REMARK  7 active torsions:
REMARK  status: ('A' for Active; 'I' for Inactive)
REMARK    1  A    between atoms: C_1  and  O_2
REMARK    2  A    between atoms: O_2  and  C_3
REMARK    3  A    between atoms: C_6  and  C_9
REMARK    4  A    between atoms: C_9  and  C_11
REMARK    5  A    between atoms: C_9  and  N_17
REMARK    6  A    between atoms: C_18  and  C_20
REMARK    7  A    between atoms: C_20  and  N_21
REMARK                            x       y       z     vdW  Elec       q    Type
REMARK                         _______ _______ _______ _____ _____    ______ ____
ROOT
ATOM      1  N   UNL     1       3.441   1.728   0.867  0.00  0.00    -0.303 N 
ATOM      2  C   UNL     1       3.451   1.454   2.186  0.00  0.00    +0.232 C 
ATOM      3  O   UNL     1       2.673   0.643   2.643  0.00  0.00    -0.274 OA
ATOM      4  H   UNL     1       4.147   2.463   0.452  0.00  0.00    +0.150 HD
ENDROOT
BRANCH   1   5
ATOM      5  C   UNL     1       2.490   1.048  -0.016  0.00  0.00    +0.134 C 
BRANCH   5   9
ATOM      6  C   UNL     1       4.038   0.983  -3.998  0.00  0.00    +0.120 A 
ATOM      7  C   UNL     1       3.382  -0.129  -3.490  0.00  0.00    +0.046 A 
ATOM      8  C   UNL     1       2.883  -0.105  -2.202  0.00  0.00    +0.009 A 
ATOM      9  C   UNL     1       3.036   1.025  -1.420  0.00  0.00    -0.023 A 
ATOM     10  C   UNL     1       3.684   2.136  -1.927  0.00  0.00    +0.009 A 
ATOM     11  C   UNL     1       4.190   2.116  -3.212  0.00  0.00    +0.046 A 
BRANCH   6  13
ATOM     12  C   UNL     1       5.194   2.142  -5.722  0.00  0.00    +0.277 C 
ATOM     13  O   UNL     1       4.530   0.962  -5.265  0.00  0.00    -0.495 OA
ENDBRANCH   6  13
ENDBRANCH   5   9
BRANCH   5  14
ATOM     14  C   UNL     1       1.175   1.783   0.000  0.00  0.00    -0.023 A 
ATOM     15  C   UNL     1      -0.013   1.076   0.008  0.00  0.00    +0.006 A 
ATOM     16  C   UNL     1      -1.219   1.751   0.017  0.00  0.00    +0.000 A 
ATOM     17  C   UNL     1      -1.238   3.133   0.029  0.00  0.00    +0.000 A 
ATOM     18  C   UNL     1      -0.050   3.840   0.022  0.00  0.00    +0.000 A 
ATOM     19  C   UNL     1       1.156   3.165   0.008  0.00  0.00    +0.006 A 
ENDBRANCH   5  14
ENDBRANCH   1   5
BRANCH   2  20
ATOM     20  C   UNL     1       4.430   2.154   3.094  0.00  0.00    +0.213 C 
BRANCH  20  21
ATOM     21  N   UNL     1       4.241   1.685   4.469  0.00  0.00    -0.215 N 
ATOM     22  C   UNL     1       4.888   0.629   5.007  0.00  0.00    +0.251 C 
ATOM     23  O   UNL     1       5.703  -0.086   4.465  0.00  0.00    -0.272 OA
ATOM     24  C   UNL     1       4.380   0.528   6.424  0.00  0.00    +0.139 C 
ATOM     25  C   UNL     1       5.516   0.677   7.425  0.00  0.00    +0.040 C 
ATOM     26  C   UNL     1       6.410  -0.567   7.399  0.00  0.00    +0.008 C 
ATOM     27  C   UNL     1       5.625  -1.754   7.979  0.00  0.00    +0.043 C 
ATOM     28  C   UNL     1       4.278  -1.794   7.336  0.00  0.00    -0.005 A 
ATOM     29  C   UNL     1       3.671  -0.801   6.626  0.00  0.00    -0.005 A 
ATOM     30  C   UNL     1       2.403  -1.085   6.121  0.00  0.00    +0.014 A 
ATOM     31  C   UNL     1       1.838  -2.293   6.345  0.00  0.00    +0.046 A 
ATOM     32  S   UNL     1       3.099  -3.116   7.307  0.00  0.00    -0.101 S 
ATOM     33  N   UNL     1       3.420   1.630   6.545  0.00  0.00    -0.281 N 
ATOM     34  C   UNL     1       3.410   2.255   5.351  0.00  0.00    +0.310 C 
ATOM     35  O   UNL     1       2.721   3.225   5.102  0.00  0.00    -0.252 OA
ATOM     36  H   UNL     1       2.886   1.793   7.492  0.00  0.00    +0.152 HD
ENDBRANCH  20  21
ENDBRANCH   2  20
TORSDOF 6
