REMARK  Name = ZINC16426721
REMARK  12 active torsions:
REMARK  status: ('A' for Active; 'I' for Inactive)
REMARK    1  A    between atoms: C_1  and  C_2
REMARK    2  A    between atoms: C_2  and  C_3
REMARK    3  A    between atoms: C_6  and  C_9
REMARK    4  A    between atoms: C_14  and  C_24
REMARK    5  A    between atoms: C_16  and  C_20
REMARK    6  A    between atoms: C_17  and  C_19
REMARK    7  A    between atoms: C_20  and  O_22
REMARK    8  A    between atoms: O_22  and  C_23
REMARK    9  A    between atoms: C_26  and  O_32
REMARK   10  A    between atoms: C_27  and  O_31
REMARK   11  A    between atoms: O_32  and  C_33
REMARK   12  A    between atoms: C_33  and  C_34
REMARK                            x       y       z     vdW  Elec       q    Type
REMARK                         _______ _______ _______ _____ _____    ______ ____
ROOT
ATOM      1  C   UNL     1      -0.125  -7.117  -3.655  0.00  0.00    +0.032 C 
ATOM      2  C   UNL     1       0.203  -7.976  -2.432  0.00  0.00    +0.059 C 
ATOM      3  C   UNL     1       0.240  -7.108  -1.198  0.00  0.00    +0.016 C 
ATOM      4  C   UNL     1       0.614  -5.813  -1.270  0.00  0.00    +0.024 C 
ATOM      5  C   UNL     1       0.655  -4.953  -0.032  0.00  0.00    +0.092 C 
ATOM      6  C   UNL     1       0.658  -5.796   1.210  0.00  0.00    +0.065 C 
ATOM      7  C   UNL     1       0.280  -7.086   1.178  0.00  0.00    +0.016 C 
ATOM      8  N   UNL     1      -0.110  -7.665   0.003  0.00  0.00    -0.321 N 
ATOM      9  C   UNL     1       0.287  -7.899   2.447  0.00  0.00    +0.061 C 
ATOM     10  C   UNL     1       0.973  -5.229  -2.497  0.00  0.00    +0.162 C 
ATOM     11  O   UNL     1       1.317  -4.064  -2.526  0.00  0.00    -0.292 OA
ATOM     12  C   UNL     1       0.938  -6.020  -3.777  0.00  0.00    +0.088 C 
ATOM     13  H   UNL     1      -0.711  -8.585   0.028  0.00  0.00    +0.152 HD
ENDROOT
BRANCH   5  14
ATOM     14  C   UNL     1      -0.553  -4.053  -0.015  0.00  0.00    -0.030 A 
ATOM     15  C   UNL     1      -0.389  -2.679  -0.009  0.00  0.00    +0.054 A 
ATOM     16  C   UNL     1      -1.498  -1.849   0.006  0.00  0.00    +0.163 A 
ATOM     17  C   UNL     1      -2.776  -2.400   0.021  0.00  0.00    +0.177 A 
ATOM     18  C   UNL     1      -2.934  -3.777   0.009  0.00  0.00    +0.086 A 
ATOM     19  C   UNL     1      -1.822  -4.600  -0.006  0.00  0.00    +0.028 A 
ATOM     20 CL   UNL     1      -4.526  -4.469   0.019  0.00  0.00    -0.080 Cl
BRANCH  17  21
ATOM     21  O   UNL     1      -3.868  -1.589   0.042  0.00  0.00    -0.502 OA
ATOM     22  H   UNL     1      -4.877  -2.026   0.054  0.00  0.00    +0.292 HD
ENDBRANCH  17  21
BRANCH  16  23
ATOM     23  O   UNL     1      -1.339  -0.499   0.012  0.00  0.00    -0.489 OA
BRANCH  23  24
ATOM     24  C   UNL     1       0.002  -0.004   0.002  0.00  0.00    +0.226 C 
ATOM     25  C   UNL     1      -0.019   1.526   0.010  0.00  0.00    +0.048 C 
ENDBRANCH  23  24
ENDBRANCH  16  23
ENDBRANCH   5  14
BRANCH   1  29
ATOM     26  C   UNL     1      -0.087  -9.547  -7.168  0.00  0.00    -0.048 A 
ATOM     27  C   UNL     1      -1.240  -8.878  -6.803  0.00  0.00    +0.004 A 
ATOM     28  C   UNL     1      -1.252  -8.091  -5.666  0.00  0.00    +0.004 A 
ATOM     29  C   UNL     1      -0.112  -7.975  -4.894  0.00  0.00    -0.043 A 
ATOM     30  C   UNL     1       1.043  -8.640  -5.262  0.00  0.00    +0.004 A 
ATOM     31  C   UNL     1       1.054  -9.431  -6.396  0.00  0.00    +0.004 A 
BRANCH  26  33
ATOM     32  C   UNL     1       0.345  -9.557  -9.610  0.00  0.00    +0.009 C 
ATOM     33  C   UNL     1      -0.074 -10.405  -8.407  0.00  0.00    +0.032 C 
ENDBRANCH  26  33
ENDBRANCH   1  29
BRANCH   6  34
ATOM     34  C   UNL     1       1.066  -5.223   2.436  0.00  0.00    +0.337 C 
ATOM     35  O   UNL     1       1.073  -5.896   3.450  0.00  0.00    -0.245 OA
BRANCH  34  36
ATOM     36  O   UNL     1       1.448  -3.929   2.482  0.00  0.00    -0.465 OA
ATOM     37  C   UNL     1       1.848  -3.416   3.755  0.00  0.00    +0.280 C 
ENDBRANCH  34  36
ENDBRANCH   6  34
TORSDOF 8
