REMARK  Name = ZINC17828281
REMARK  8 active torsions:
REMARK  status: ('A' for Active; 'I' for Inactive)
REMARK    1  A    between atoms: C_1  and  C_2
REMARK    2  A    between atoms: C_3  and  C_13
REMARK    3  A    between atoms: C_5  and  C_7
REMARK    4  A    between atoms: C_13  and  O_15
REMARK    5  A    between atoms: O_15  and  C_16
REMARK    6  A    between atoms: C_16  and  C_17
REMARK    7  A    between atoms: N_19  and  C_20
REMARK    8  A    between atoms: C_21  and  C_28
REMARK                            x       y       z     vdW  Elec       q    Type
REMARK                         _______ _______ _______ _____ _____    ______ ____
ROOT
ATOM      1  C   UNL     1       1.141   2.072   0.002  0.00  0.00    +0.255 C 
ATOM      2  O   UNL     1       2.200   1.480  -0.011  0.00  0.00    -0.272 OA
ATOM      3  N   UNL     1      -0.017   1.382   0.010  0.00  0.00    -0.277 N 
ATOM      4  H   UNL     1      -0.863   1.856   0.016  0.00  0.00    +0.155 HD
ENDROOT
BRANCH   3   5
ATOM      5  C   UNL     1       0.002  -0.004   0.002  0.00  0.00    +0.084 A 
ATOM      6  C   UNL     1      -1.071  -0.879   0.013  0.00  0.00    +0.068 A 
ATOM      7  C   UNL     1      -0.776  -2.312  -0.003  0.00  0.00    -0.023 A 
ATOM      8  C   UNL     1       0.532  -2.626  -0.017  0.00  0.00    -0.004 A 
ATOM      9  S   UNL     1       1.372  -1.061  -0.016  0.00  0.00    -0.077 S 
ATOM     10  C   UNL     1       0.754  -4.114  -0.030  0.00  0.00    +0.043 C 
ATOM     11  C   UNL     1      -0.606  -4.707  -0.459  0.00  0.00    +0.010 C 
ATOM     12  C   UNL     1      -1.586  -3.609  -0.000  0.00  0.00    +0.037 C 
BRANCH   6  13
ATOM     13  C   UNL     1      -2.452  -0.388   0.036  0.00  0.00    +0.244 C 
ATOM     14  O   UNL     1      -3.041  -0.178  -1.008  0.00  0.00    -0.270 OA
ATOM     15  N   UNL     1      -3.069  -0.167   1.214  0.00  0.00    -0.325 N 
ATOM     16  H   UNL     1      -2.600  -0.334   2.046  0.00  0.00    +0.145 HD
ATOM     17  H   UNL     1      -3.983   0.158   1.229  0.00  0.00    +0.145 HD
ENDBRANCH   6  13
ENDBRANCH   3   5
BRANCH   1  18
ATOM     18  C   UNL     1       1.121   3.579   0.011  0.00  0.00    +0.328 C 
BRANCH  18  19
ATOM     19  O   UNL     1       2.483   4.082   0.000  0.00  0.00    -0.451 OA
BRANCH  19  20
ATOM     20  C   UNL     1       2.642   5.421   0.006  0.00  0.00    +0.348 C 
ATOM     21  O   UNL     1       1.667   6.149   0.019  0.00  0.00    -0.244 OA
BRANCH  20  24
ATOM     22  C   UNL     1       3.364   8.445   0.014  0.00  0.00    +0.067 C 
ATOM     23  C   UNL     1       4.381   7.332  -0.000  0.00  0.00    +0.060 A 
ATOM     24  C   UNL     1       3.987   5.999  -0.004  0.00  0.00    +0.119 A 
ATOM     25  S   UNL     1       5.579   5.187  -0.015  0.00  0.00    -0.060 S 
ATOM     26  C   UNL     1       6.563   6.617  -0.024  0.00  0.00    +0.109 A 
ATOM     27  N   UNL     1       5.660   7.588  -0.011  0.00  0.00    -0.243 NA
BRANCH  26  28
ATOM     28  C   UNL     1       8.037   6.725  -0.038  0.00  0.00    +0.007 A 
ATOM     29  C   UNL     1       8.648   7.980  -0.043  0.00  0.00    +0.010 A 
ATOM     30  C   UNL     1      10.024   8.074  -0.050  0.00  0.00    +0.001 A 
ATOM     31  C   UNL     1      10.799   6.927  -0.063  0.00  0.00    +0.000 A 
ATOM     32  C   UNL     1      10.199   5.680  -0.064  0.00  0.00    +0.001 A 
ATOM     33  C   UNL     1       8.824   5.572  -0.051  0.00  0.00    +0.010 A 
ENDBRANCH  26  28
ENDBRANCH  20  24
ENDBRANCH  19  20
ENDBRANCH  18  19
ENDBRANCH   1  18
TORSDOF 7
