REMARK  Name = ZINC12247171
REMARK  5 active torsions:
REMARK  status: ('A' for Active; 'I' for Inactive)
REMARK    1  A    between atoms: C_4  and  C_7
REMARK    2  A    between atoms: C_10  and  C_12
REMARK    3  A    between atoms: C_12  and  N_13
REMARK    4  A    between atoms: C_20  and  N_24
REMARK    5  A    between atoms: C_29  and  N_66
REMARK                            x       y       z     vdW  Elec       q    Type
REMARK                         _______ _______ _______ _____ _____    ______ ____
ROOT
ATOM      1  N   UNL     1      -1.026   5.106  -1.544  0.00  0.00    -0.228 N 
ATOM      2  C   UNL     1      -0.105   5.807  -2.230  0.00  0.00    +0.254 C 
ATOM      3  O   UNL     1       1.033   6.029  -1.867  0.00  0.00    -0.270 OA
ATOM      4  C   UNL     1      -0.710   6.258  -3.500  0.00  0.00    +0.051 A 
ATOM      5  C   UNL     1      -0.255   6.995  -4.580  0.00  0.00    +0.014 A 
ATOM      6  C   UNL     1      -1.104   7.257  -5.647  0.00  0.00    +0.003 A 
ATOM      7  C   UNL     1      -2.401   6.790  -5.644  0.00  0.00    +0.024 A 
ATOM      8  C   UNL     1      -2.880   6.045  -4.564  0.00  0.00    +0.043 A 
ATOM      9  C   UNL     1      -2.036   5.776  -3.487  0.00  0.00    +0.070 A 
ATOM     10  C   UNL     1      -2.189   5.046  -2.217  0.00  0.00    +0.256 C 
ATOM     11  O   UNL     1      -3.198   4.484  -1.840  0.00  0.00    -0.269 OA
ENDROOT
BRANCH   8  12
ATOM     12  N   UNL     1      -4.185   5.576  -4.563  0.00  0.00    -0.333 N 
ATOM     13  C   UNL     1      -4.401   4.617  -5.655  0.00  0.00    +0.086 C 
ATOM     14  C   UNL     1      -5.827   4.065  -5.571  0.00  0.00    -0.059 C 
ATOM     15  C   UNL     1      -6.569   6.136  -4.561  0.00  0.00    -0.059 C 
ATOM     16  C   UNL     1      -5.144   6.687  -4.645  0.00  0.00    +0.086 C 
ATOM     17  N   UNL     1      -6.780   5.190  -5.677  0.00  0.00    +0.384 N 
ATOM     18  H   UNL     1      -6.621   5.680  -6.565  0.00  0.00    -0.081 HD
BRANCH  17  19
ATOM     19  C   UNL     1      -8.168   4.680  -5.652  0.00  0.00    -0.060 C 
ATOM     20  C   UNL     1      -8.428   3.778  -6.878  0.00  0.00    +0.020 C 
ATOM     21  C   UNL     1      -9.860   4.058  -7.278  0.00  0.00    -0.046 A 
ATOM     22  C   UNL     1     -10.724   3.336  -8.084  0.00  0.00    +0.004 A 
ATOM     23  C   UNL     1     -12.007   3.793  -8.313  0.00  0.00    +0.000 A 
ATOM     24  C   UNL     1     -12.431   4.976  -7.736  0.00  0.00    +0.000 A 
ATOM     25  C   UNL     1     -11.571   5.698  -6.932  0.00  0.00    +0.004 A 
ATOM     26  C   UNL     1     -10.284   5.241  -6.701  0.00  0.00    -0.046 A 
ATOM     27  C   UNL     1      -9.166   5.836  -5.873  0.00  0.00    +0.020 C 
ENDBRANCH  17  19
ENDBRANCH   8  12
BRANCH   1  28
ATOM     28  C   UNL     1      -0.795   4.493  -0.234  0.00  0.00    +0.179 C 
BRANCH  28  32
ATOM     29  C   UNL     1       1.236   1.386  -0.688  0.00  0.00    +0.078 A 
ATOM     30  C   UNL     1       0.194   0.500  -0.738  0.00  0.00    +0.075 A 
ATOM     31  S   UNL     1      -1.192   1.612  -0.551  0.00  0.00    -0.078 S 
ATOM     32  C   UNL     1      -0.286   3.087  -0.419  0.00  0.00    +0.097 A 
ATOM     33  N   UNL     1       0.951   2.669  -0.527  0.00  0.00    -0.242 NA
BRANCH  29  37
ATOM     34  C   UNL     1       5.261   0.059  -1.033  0.00  0.00    +0.000 A 
ATOM     35  C   UNL     1       4.991   1.406  -0.867  0.00  0.00    +0.001 A 
ATOM     36  C   UNL     1       3.687   1.842  -0.754  0.00  0.00    +0.010 A 
ATOM     37  C   UNL     1       2.640   0.923  -0.808  0.00  0.00    +0.001 A 
ATOM     38  C   UNL     1       2.918  -0.433  -0.971  0.00  0.00    +0.010 A 
ATOM     39  C   UNL     1       4.226  -0.857  -1.088  0.00  0.00    +0.001 A 
ENDBRANCH  29  37
ENDBRANCH  28  32
ENDBRANCH   1  28
TORSDOF 5
