REMARK  Name = ZINC63362598
REMARK  7 active torsions:
REMARK  status: ('A' for Active; 'I' for Inactive)
REMARK    1  A    between atoms: C_1  and  C_2
REMARK    2  A    between atoms: C_2  and  C_3
REMARK    3  A    between atoms: C_2  and  C_4
REMARK    4  A    between atoms: C_7  and  N_10
REMARK    5  A    between atoms: C_11  and  C_13
REMARK    6  A    between atoms: C_18  and  N_19
REMARK    7  A    between atoms: C_22  and  C_38
REMARK                            x       y       z     vdW  Elec       q    Type
REMARK                         _______ _______ _______ _____ _____    ______ ____
ROOT
ATOM      1  N   UNL     1      -6.803  -4.308  -3.103  0.00  0.00    -0.192 N 
ATOM      2  C   UNL     1      -6.653  -3.676  -4.286  0.00  0.00    +0.253 C 
ATOM      3  O   UNL     1      -7.252  -2.696  -4.674  0.00  0.00    -0.272 OA
ATOM      4  C   UNL     1      -5.582  -4.446  -5.026  0.00  0.00    +0.137 C 
ATOM      5  C   UNL     1      -6.121  -4.983  -6.351  0.00  0.00    +0.139 C 
ATOM      6  C   UNL     1      -6.212  -6.496  -6.224  0.00  0.00    -0.034 C 
ATOM      7  C   UNL     1      -7.474  -6.817  -6.499  0.00  0.00    -0.001 A 
ATOM      8  C   UNL     1      -8.150  -8.120  -6.600  0.00  0.00    +0.010 A 
ATOM      9  C   UNL     1      -9.477  -8.085  -6.894  0.00  0.00    +0.001 A 
ATOM     10  C   UNL     1     -10.189  -6.898  -7.093  0.00  0.00    +0.002 A 
ATOM     11  C   UNL     1      -9.646  -5.656  -7.023  0.00  0.00    +0.026 A 
ATOM     12  C   UNL     1      -8.255  -5.564  -6.726  0.00  0.00    +0.043 A 
ATOM     13  N   UNL     1      -7.480  -4.508  -6.620  0.00  0.00    -0.375 N 
ATOM     14  C   UNL     1      -5.060  -7.370  -5.791  0.00  0.00    +0.052 C 
ATOM     15  C   UNL     1      -4.501  -6.765  -4.488  0.00  0.00    +0.115 C 
ATOM     16  N   UNL     1      -5.322  -5.601  -4.143  0.00  0.00    -0.268 N 
ATOM     17  C   UNL     1      -6.009  -5.383  -3.013  0.00  0.00    +0.317 C 
ATOM     18  O   UNL     1      -5.925  -6.082  -2.022  0.00  0.00    -0.252 OA
ATOM     19  C   UNL     1      -4.323  -3.599  -5.222  0.00  0.00    +0.044 C 
ATOM     20  H   UNL     1      -7.751  -3.580  -6.701  0.00  0.00    +0.160 HD
ENDROOT
BRANCH   1  26
ATOM     21  C   UNL     1      -7.214  -3.046  -1.072  0.00  0.00    +0.059 A 
ATOM     22  C   UNL     1      -8.096  -2.629  -0.072  0.00  0.00    +0.015 A 
ATOM     23  C   UNL     1      -9.408  -3.051  -0.094  0.00  0.00    +0.001 A 
ATOM     24  C   UNL     1      -9.857  -3.887  -1.103  0.00  0.00    +0.002 A 
ATOM     25  C   UNL     1      -8.996  -4.308  -2.097  0.00  0.00    +0.025 A 
ATOM     26  C   UNL     1      -7.674  -3.888  -2.095  0.00  0.00    +0.058 A 
BRANCH  21  28
ATOM     27  N   UNL     1      -5.337  -1.897  -0.005  0.00  0.00    -0.281 N 
ATOM     28  C   UNL     1      -5.808  -2.599  -1.055  0.00  0.00    +0.250 C 
ATOM     29  O   UNL     1      -5.075  -2.863  -1.988  0.00  0.00    -0.270 OA
ATOM     30  H   UNL     1      -5.879  -1.795   0.792  0.00  0.00    +0.155 HD
BRANCH  27  34
ATOM     31  C   UNL     1      -1.554  -0.164  -0.188  0.00  0.00    -0.045 A 
ATOM     32  C   UNL     1      -2.531   0.396   0.614  0.00  0.00    +0.006 A 
ATOM     33  C   UNL     1      -3.787  -0.176   0.677  0.00  0.00    +0.023 A 
ATOM     34  C   UNL     1      -4.067  -1.315  -0.067  0.00  0.00    +0.034 A 
ATOM     35  C   UNL     1      -3.083  -1.875  -0.871  0.00  0.00    +0.023 A 
ATOM     36  C   UNL     1      -1.831  -1.295  -0.933  0.00  0.00    +0.006 A 
BRANCH  31  38
ATOM     37  C   UNL     1      -0.307   1.902  -0.760  0.00  0.00    +0.012 C 
ATOM     38  C   UNL     1      -0.185   0.463  -0.254  0.00  0.00    +0.013 C 
ATOM     39  C   UNL     1       0.444   0.465   1.141  0.00  0.00    +0.012 C 
ENDBRANCH  31  38
ENDBRANCH  27  34
ENDBRANCH  21  28
ENDBRANCH   1  26
TORSDOF 4
