REMARK  Name = ZINC63089762
REMARK  8 active torsions:
REMARK  status: ('A' for Active; 'I' for Inactive)
REMARK    1  A    between atoms: C_1  and  C_2
REMARK    2  A    between atoms: C_2  and  C_4
REMARK    3  A    between atoms: C_2  and  N_9
REMARK    4  A    between atoms: C_4  and  C_5
REMARK    5  A    between atoms: N_6  and  O_7
REMARK    6  A    between atoms: N_9  and  C_10
REMARK    7  A    between atoms: N_9  and  C_11
REMARK    8  A    between atoms: C_11  and  C_12
REMARK                            x       y       z     vdW  Elec       q    Type
REMARK                         _______ _______ _______ _____ _____    ______ ____
ROOT
ATOM      1  N   UNL     1       0.591  -0.533  -1.381  0.00  0.00    +0.383 N 
ATOM      2  C   UNL     1      -0.067   0.324  -2.376  0.00  0.00    -0.095 C 
ATOM      3  H   UNL     1       1.593  -0.451  -1.476  0.00  0.00    -0.081 HD
ENDROOT
BRANCH   1   5
ATOM      4  C   UNL     1       0.503   1.374   0.153  0.00  0.00    -0.013 C 
ATOM      5  C   UNL     1       0.192  -0.112  -0.032  0.00  0.00    -0.065 C 
BRANCH   5   6
ATOM      6  C   UNL     1       0.965  -0.928   1.007  0.00  0.00    +0.059 C 
BRANCH   6   7
ATOM      7  C   UNL     1       0.449  -0.605   2.385  0.00  0.00    +0.130 C 
ATOM      8  N   UNL     1      -0.577   0.168   2.526  0.00  0.00    -0.077 NA
ATOM      9  N   UNL     1       1.071  -1.132   3.495  0.00  0.00    -0.344 N 
ATOM     10  H   UNL     1       1.841  -1.712   3.389  0.00  0.00    +0.143 HD
ATOM     11  H   UNL     1       0.739  -0.924   4.382  0.00  0.00    +0.143 HD
BRANCH   8  12
ATOM     12  O   UNL     1      -1.062   0.472   3.821  0.00  0.00    -0.408 OA
ATOM     13  H   UNL     1      -1.832   1.057   3.826  0.00  0.00    +0.328 HD
ENDBRANCH   8  12
ENDBRANCH   6   7
ENDBRANCH   5   6
ENDBRANCH   1   5
BRANCH   1  14
ATOM     14  C   UNL     1       0.192  -1.930  -1.597  0.00  0.00    -0.042 C 
BRANCH  14  15
ATOM     15  C   UNL     1       0.718  -2.403  -2.928  0.00  0.00    -0.046 A 
ATOM     16  C   UNL     1      -0.118  -2.436  -4.029  0.00  0.00    +0.004 A 
ATOM     17  C   UNL     1       0.363  -2.869  -5.250  0.00  0.00    +0.020 A 
ATOM     18  C   UNL     1       1.683  -3.270  -5.371  0.00  0.00    +0.042 A 
ATOM     19  C   UNL     1       2.519  -3.236  -4.270  0.00  0.00    +0.040 A 
ATOM     20  C   UNL     1       2.038  -2.798  -3.049  0.00  0.00    +0.044 A 
ATOM     21 CL   UNL     1       3.088  -2.750  -1.668  0.00  0.00    -0.083 Cl
ATOM     22 CL   UNL     1       2.287  -3.815  -6.904  0.00  0.00    -0.083 Cl
ENDBRANCH  14  15
ENDBRANCH   1  14
TORSDOF 6
