REMARK  Name = ZINC59105978
REMARK  5 active torsions:
REMARK  status: ('A' for Active; 'I' for Inactive)
REMARK    1  A    between atoms: C_1  and  C_2
REMARK    2  A    between atoms: C_4  and  C_16
REMARK    3  A    between atoms: C_5  and  C_15
REMARK    4  A    between atoms: N_6  and  C_7
REMARK    5  A    between atoms: N_22  and  C_23
REMARK                            x       y       z     vdW  Elec       q    Type
REMARK                         _______ _______ _______ _____ _____    ______ ____
ROOT
ATOM      1  C   UNL     1       0.042  -3.378  -1.464  0.00  0.00    +0.030 C 
ATOM      2  C   UNL     1       0.035  -3.271  -2.818  0.00  0.00    +0.078 C 
ATOM      3  C   UNL     1       0.039  -4.331  -3.839  0.00  0.00    +0.256 C 
ATOM      4  O   UNL     1       0.050  -5.510  -3.531  0.00  0.00    -0.269 OA
ATOM      5  N   UNL     1       0.029  -3.949  -5.104  0.00  0.00    -0.260 N 
ATOM      6  C   UNL     1       0.016  -2.610  -5.433  0.00  0.00    +0.166 C 
ATOM      7  N   UNL     1       0.005  -2.061  -6.627  0.00  0.00    -0.226 NA
ATOM      8  S   UNL     1       0.010  -1.804  -3.839  0.00  0.00    -0.049 S 
ATOM      9  H   UNL     1       0.031  -4.616  -5.808  0.00  0.00    +0.157 HD
ENDROOT
BRANCH   1  13
ATOM     10  C   UNL     1      -0.018   1.503   0.010  0.00  0.00    +0.064 C 
ATOM     11  C   UNL     1       0.002  -0.004   0.002  0.00  0.00    +0.022 A 
ATOM     12  C   UNL     1       0.008  -0.777  -1.098  0.00  0.00    +0.031 A 
ATOM     13  C   UNL     1       0.029  -2.169  -0.632  0.00  0.00    -0.003 A 
ATOM     14  C   UNL     1       0.035  -2.110   0.747  0.00  0.00    +0.028 A 
ATOM     15  N   UNL     1       0.023  -0.802   1.111  0.00  0.00    -0.316 N 
ATOM     16  C   UNL     1       0.055  -3.289   1.685  0.00  0.00    +0.064 C 
BRANCH  15  17
ATOM     17  C   UNL     1       0.029  -0.337   2.434  0.00  0.00    +0.066 A 
ATOM     18  C   UNL     1      -1.169  -0.129   3.103  0.00  0.00    +0.047 A 
ATOM     19  C   UNL     1      -1.160   0.329   4.407  0.00  0.00    +0.043 A 
ATOM     20  C   UNL     1       0.042   0.581   5.045  0.00  0.00    +0.021 A 
ATOM     21  C   UNL     1       1.237   0.375   4.381  0.00  0.00    +0.023 A 
ATOM     22  C   UNL     1       1.234  -0.089   3.079  0.00  0.00    +0.065 A 
ATOM     23 CL   UNL     1       2.735  -0.354   2.248  0.00  0.00    -0.081 Cl
ATOM     24 CL   UNL     1      -2.658   0.589   5.245  0.00  0.00    -0.083 Cl
ENDBRANCH  15  17
ENDBRANCH   1  13
BRANCH   7  25
ATOM     25  C   UNL     1      -0.007  -0.698  -6.753  0.00  0.00    +0.067 A 
ATOM     26  C   UNL     1      -0.859   0.072  -5.960  0.00  0.00    +0.030 A 
ATOM     27  C   UNL     1      -0.867   1.445  -6.092  0.00  0.00    +0.040 A 
ATOM     28  C   UNL     1      -0.031   2.060  -7.010  0.00  0.00    +0.124 A 
ATOM     29  C   UNL     1       0.816   1.301  -7.801  0.00  0.00    +0.040 A 
ATOM     30  C   UNL     1       0.838  -0.072  -7.673  0.00  0.00    +0.030 A 
ATOM     31  F   UNL     1      -0.044   3.405  -7.135  0.00  0.00    -0.205 F 
ENDBRANCH   7  25
TORSDOF 3
