REMARK  Name = ZINC04287919
REMARK  5 active torsions:
REMARK  status: ('A' for Active; 'I' for Inactive)
REMARK    1  A    between atoms: C_3  and  S_24
REMARK    2  A    between atoms: C_6  and  N_7
REMARK    3  A    between atoms: C_8  and  C_10
REMARK    4  A    between atoms: C_10  and  N_11
REMARK    5  A    between atoms: S_24  and  C_25
REMARK                            x       y       z     vdW  Elec       q    Type
REMARK                         _______ _______ _______ _____ _____    ______ ____
ROOT
ATOM      1  C   UNL     1       2.284   5.680   0.225  0.00  0.00    +0.214 C 
ENDROOT
BRANCH   1   2
ATOM      2  N   UNL     1       3.655   6.188   0.312  0.00  0.00    -0.215 N 
ATOM      3  C   UNL     1       4.400   6.540  -0.753  0.00  0.00    +0.247 C 
ATOM      4  O   UNL     1       4.074   6.495  -1.920  0.00  0.00    -0.273 OA
ATOM      5  C   UNL     1       5.733   7.005  -0.192  0.00  0.00    +0.113 C 
ATOM      6  C   UNL     1       5.868   8.517  -0.480  0.00  0.00    +0.035 C 
ATOM      7  C   UNL     1       6.819   9.117   0.517  0.00  0.00    +0.003 C 
ATOM      8  C   UNL     1       8.268   9.179  -0.006  0.00  0.00    +0.000 C 
ATOM      9  C   UNL     1       8.686   7.903  -0.761  0.00  0.00    +0.000 C 
ATOM     10  C   UNL     1       8.201   6.652  -0.080  0.00  0.00    +0.003 C 
ATOM     11  C   UNL     1       6.858   6.241  -0.715  0.00  0.00    +0.035 C 
ATOM     12  N   UNL     1       5.562   6.838   1.266  0.00  0.00    -0.285 N 
ATOM     13  C   UNL     1       4.319   6.364   1.459  0.00  0.00    +0.310 C 
ATOM     14  O   UNL     1       3.853   6.119   2.554  0.00  0.00    -0.252 OA
ATOM     15  H   UNL     1       6.219   7.035   1.952  0.00  0.00    +0.151 HD
ENDBRANCH   1   2
BRANCH   1  17
ATOM     16  N   UNL     1       1.157   3.488   0.009  0.00  0.00    -0.284 N 
ATOM     17  C   UNL     1       2.311   4.178   0.104  0.00  0.00    +0.235 C 
ATOM     18  O   UNL     1       3.372   3.590   0.091  0.00  0.00    -0.274 OA
ATOM     19  H   UNL     1       0.313   3.962  -0.058  0.00  0.00    +0.155 HD
BRANCH  16  25
ATOM     20  C   UNL     1       2.135   1.405   0.746  0.00  0.00    +0.024 A 
ATOM     21  C   UNL     1       2.153   0.025   0.745  0.00  0.00    +0.017 A 
ATOM     22  C   UNL     1       1.213  -0.682   0.006  0.00  0.00    +0.013 A 
ATOM     23  C   UNL     1       0.254   0.001  -0.732  0.00  0.00    +0.017 A 
ATOM     24  C   UNL     1       0.236   1.381  -0.731  0.00  0.00    +0.024 A 
ATOM     25  C   UNL     1       1.176   2.087   0.008  0.00  0.00    +0.033 A 
BRANCH  22  26
ATOM     26  S   UNL     1       1.237  -2.444   0.004  0.00  0.00    -0.056 S 
BRANCH  26  27
ATOM     27  C   UNL     1      -0.147  -2.901  -1.077  0.00  0.00    +0.404 C 
ATOM     28  F   UNL     1      -1.338  -2.390  -0.550  0.00  0.00    -0.197 F 
ATOM     29  F   UNL     1       0.064  -2.369  -2.354  0.00  0.00    -0.197 F 
ENDBRANCH  26  27
ENDBRANCH  22  26
ENDBRANCH  16  25
ENDBRANCH   1  17
TORSDOF 5
