REMARK  Name = ZINC05732629
REMARK  9 active torsions:
REMARK  status: ('A' for Active; 'I' for Inactive)
REMARK    1  A    between atoms: C_1  and  C_2
REMARK    2  A    between atoms: C_2  and  N_3
REMARK    3  A    between atoms: C_10  and  C_22
REMARK    4  A    between atoms: N_17  and  C_20
REMARK    5  A    between atoms: C_22  and  S_24
REMARK    6  A    between atoms: C_22  and  S_26
REMARK    7  A    between atoms: S_24  and  C_25
REMARK    8  A    between atoms: S_26  and  C_29
REMARK    9  A    between atoms: C_32  and  C_35
REMARK                            x       y       z     vdW  Elec       q    Type
REMARK                         _______ _______ _______ _____ _____    ______ ____
ROOT
ATOM      1  N   UNL     1       2.506   4.302   0.281  0.00  0.00    -0.289 N 
ATOM      2  C   UNL     1       1.428   3.449   0.027  0.00  0.00    +0.038 A 
ATOM      3  C   UNL     1       1.650   2.087  -0.142  0.00  0.00    +0.024 A 
ATOM      4  C   UNL     1       0.585   1.240  -0.374  0.00  0.00    +0.002 A 
ATOM      5  C   UNL     1      -0.701   1.744  -0.445  0.00  0.00    +0.000 A 
ATOM      6  C   UNL     1      -0.926   3.098  -0.276  0.00  0.00    +0.006 A 
ATOM      7  C   UNL     1       0.135   3.951  -0.046  0.00  0.00    -0.018 A 
ATOM      8  C   UNL     1      -0.108   5.431   0.120  0.00  0.00    +0.092 C 
ATOM      9  C   UNL     1       1.091   6.187  -0.448  0.00  0.00    +0.183 C 
ATOM     10  C   UNL     1       2.360   5.643   0.146  0.00  0.00    +0.127 C 
ATOM     11  N   UNL     1       3.303   6.440   0.574  0.00  0.00    -0.149 NA
ATOM     12  C   UNL     1       3.166   7.771   0.590  0.00  0.00    +0.333 C 
ATOM     13  O   UNL     1       4.120   8.459   0.902  0.00  0.00    -0.250 OA
ATOM     14  N   UNL     1       2.006   8.369   0.273  0.00  0.00    -0.226 N 
ATOM     15  C   UNL     1       0.969   7.660  -0.206  0.00  0.00    +0.251 C 
ATOM     16  O   UNL     1      -0.079   8.220  -0.445  0.00  0.00    -0.273 OA
ATOM     17  C   UNL     1       1.869   9.817   0.451  0.00  0.00    +0.143 C 
ATOM     18 CL   UNL     1       1.148   5.906  -2.228  0.00  0.00    -0.100 Cl
ENDROOT
BRANCH   1  20
ATOM     19  C   UNL     1       4.648   3.456  -0.542  0.00  0.00    +0.025 C 
ATOM     20  C   UNL     1       3.796   3.746   0.696  0.00  0.00    +0.108 C 
ENDBRANCH   1  20
BRANCH   8  21
ATOM     21  C   UNL     1      -1.375   5.832  -0.638  0.00  0.00    +0.202 C 
BRANCH  21  22
ATOM     22  S   UNL     1      -2.834   5.311   0.305  0.00  0.00    +0.009 S 
ATOM     23  O   UNL     1      -3.658   4.472  -0.492  0.00  0.00    -0.168 OA
ATOM     24  O   UNL     1      -2.455   4.918   1.617  0.00  0.00    -0.168 OA
BRANCH  22  25
ATOM     25  C   UNL     1      -3.777   6.783   0.531  0.00  0.00    +0.089 A 
ATOM     26  C   UNL     1      -3.492   7.631   1.585  0.00  0.00    +0.027 A 
ATOM     27  C   UNL     1      -4.228   8.788   1.759  0.00  0.00    +0.005 A 
ATOM     28  C   UNL     1      -5.255   9.092   0.886  0.00  0.00    -0.050 A 
ATOM     29  C   UNL     1      -5.544   8.241  -0.165  0.00  0.00    +0.005 A 
ATOM     30  C   UNL     1      -4.804   7.086  -0.342  0.00  0.00    +0.027 A 
ATOM     31  C   UNL     1      -6.061  10.351   1.078  0.00  0.00    +0.044 C 
ENDBRANCH  22  25
ENDBRANCH  21  22
BRANCH  21  32
ATOM     32  S   UNL     1      -1.387   5.028  -2.264  0.00  0.00    -0.137 S 
ATOM     33  C   UNL     1      -2.811   5.768  -3.109  0.00  0.00    +0.086 C 
ENDBRANCH  21  32
ENDBRANCH   8  21
TORSDOF 5
