REMARK  Name = ZINC08995464
REMARK  8 active torsions:
REMARK  status: ('A' for Active; 'I' for Inactive)
REMARK    1  A    between atoms: C_1  and  C_2
REMARK    2  A    between atoms: C_13  and  C_19
REMARK    3  A    between atoms: C_16  and  C_18
REMARK    4  A    between atoms: N_21  and  C_22
REMARK    5  A    between atoms: C_24  and  O_30
REMARK    6  A    between atoms: C_27  and  O_28
REMARK    7  A    between atoms: O_28  and  C_29
REMARK    8  A    between atoms: O_30  and  C_31
REMARK                            x       y       z     vdW  Elec       q    Type
REMARK                         _______ _______ _______ _____ _____    ______ ____
ROOT
ATOM      1  C   UNL     1       4.755  -2.121  -2.311  0.00  0.00    +0.044 C 
ATOM      2  C   UNL     1       4.446  -0.647  -2.252  0.00  0.00    -0.049 A 
ATOM      3  C   UNL     1       3.197  -0.215  -1.840  0.00  0.00    +0.008 A 
ATOM      4  C   UNL     1       2.917   1.131  -1.787  0.00  0.00    -0.026 A 
ATOM      5  C   UNL     1       3.878   2.071  -2.143  0.00  0.00    +0.054 A 
ATOM      6  C   UNL     1       5.134   1.629  -2.557  0.00  0.00    +0.063 A 
ATOM      7  C   UNL     1       5.410   0.278  -2.610  0.00  0.00    +0.025 A 
ATOM      8 CL   UNL     1       6.352   2.781  -3.007  0.00  0.00    -0.082 Cl
ATOM      9  N   UNL     1       3.365   3.363  -2.007  0.00  0.00    -0.285 N 
ATOM     10  C   UNL     1       2.091   3.360  -1.572  0.00  0.00    +0.211 C 
ATOM     11  O   UNL     1       1.396   4.332  -1.363  0.00  0.00    -0.277 OA
ATOM     12  C   UNL     1       1.694   1.917  -1.395  0.00  0.00    +0.049 C 
ATOM     13  C   UNL     1       0.506   1.565  -2.304  0.00  0.00    +0.076 C 
ATOM     14  C   UNL     1      -0.703   1.629  -1.331  0.00  0.00    -0.004 C 
ATOM     15  C   UNL     1      -0.077   1.100  -0.016  0.00  0.00    -0.072 C 
ATOM     16  C   UNL     1      -0.858   1.617   1.194  0.00  0.00    -0.014 C 
ATOM     17  H   UNL     1       3.868   4.169  -2.202  0.00  0.00    +0.155 HD
ATOM     18  N   UNL     1       1.297   1.638  -0.015  0.00  0.00    +0.393 N 
ATOM     19  H   UNL     1       1.328   2.505   0.534  0.00  0.00    -0.083 HD
ATOM     20  H   UNL     1       1.937   0.949   0.396  0.00  0.00    -0.083 HD
ENDROOT
BRANCH  13  21
ATOM     21  C   UNL     1       0.662   0.179  -2.875  0.00  0.00    +0.220 C 
ATOM     22  O   UNL     1       0.292  -0.785  -2.238  0.00  0.00    -0.275 OA
ATOM     23  N   UNL     1       1.214   0.011  -4.093  0.00  0.00    -0.282 N 
ATOM     24  H   UNL     1       1.585   0.771  -4.567  0.00  0.00    +0.155 HD
BRANCH  23  25
ATOM     25  C   UNL     1       1.252  -1.263  -4.675  0.00  0.00    +0.079 A 
ATOM     26  C   UNL     1       0.219  -2.161  -4.448  0.00  0.00    +0.072 A 
ATOM     27  C   UNL     1       0.259  -3.421  -5.026  0.00  0.00    +0.122 A 
ATOM     28  C   UNL     1       1.330  -3.784  -5.829  0.00  0.00    +0.049 A 
ATOM     29  C   UNL     1       2.360  -2.890  -6.057  0.00  0.00    +0.051 A 
ATOM     30  C   UNL     1       2.323  -1.628  -5.487  0.00  0.00    +0.141 A 
BRANCH  30  31
ATOM     31  O   UNL     1       3.334  -0.748  -5.716  0.00  0.00    -0.493 OA
ATOM     32  C   UNL     1       4.400  -1.189  -6.559  0.00  0.00    +0.277 C 
ENDBRANCH  30  31
BRANCH  27  33
ATOM     33  O   UNL     1      -0.753  -4.302  -4.804  0.00  0.00    -0.495 OA
ATOM     34  C   UNL     1      -0.647  -5.582  -5.430  0.00  0.00    +0.277 C 
ENDBRANCH  27  33
ENDBRANCH  23  25
ENDBRANCH  13  21
TORSDOF 4
