REMARK  Name = ZINC08790073
REMARK  8 active torsions:
REMARK  status: ('A' for Active; 'I' for Inactive)
REMARK    1  A    between atoms: C_1  and  C_2
REMARK    2  A    between atoms: C_2  and  C_3
REMARK    3  A    between atoms: C_17  and  C_19
REMARK    4  A    between atoms: C_19  and  C_20
REMARK    5  A    between atoms: C_20  and  C_21
REMARK    6  A    between atoms: N_25  and  C_28
REMARK    7  A    between atoms: C_28  and  C_29
REMARK    8  A    between atoms: C_29  and  C_30
REMARK                            x       y       z     vdW  Elec       q    Type
REMARK                         _______ _______ _______ _____ _____    ______ ____
ROOT
ATOM      1  C   UNL     1       1.128  -3.842   1.294  0.00  0.00    -0.026 A 
ATOM      2  C   UNL     1       1.387  -3.171   0.117  0.00  0.00    +0.005 A 
ATOM      3  C   UNL     1       1.739  -1.834   0.139  0.00  0.00    +0.001 A 
ATOM      4  C   UNL     1       1.832  -1.166   1.347  0.00  0.00    +0.004 A 
ATOM      5  C   UNL     1       1.574  -1.831   2.524  0.00  0.00    -0.027 A 
ATOM      6  C   UNL     1       1.219  -3.177   2.515  0.00  0.00    +0.039 A 
ATOM      7  N   UNL     1       1.008  -3.630   3.819  0.00  0.00    -0.286 N 
ATOM      8  C   UNL     1       1.202  -2.659   4.731  0.00  0.00    +0.211 C 
ATOM      9  O   UNL     1       1.091  -2.763   5.935  0.00  0.00    -0.277 OA
ATOM     10  C   UNL     1       1.583  -1.419   3.969  0.00  0.00    +0.050 C 
ATOM     11  C   UNL     1       0.600  -0.273   4.233  0.00  0.00    +0.088 C 
ATOM     12  C   UNL     1       1.482   1.007   4.231  0.00  0.00    +0.073 C 
ATOM     13  C   UNL     1       2.916   0.518   3.935  0.00  0.00    -0.057 C 
ATOM     14  C   UNL     1       0.967   1.782   3.039  0.00  0.00    +0.224 C 
ATOM     15  O   UNL     1       1.383   2.860   2.671  0.00  0.00    -0.275 OA
ATOM     16  N   UNL     1      -0.020   1.094   2.454  0.00  0.00    -0.241 N 
ATOM     17  C   UNL     1      -0.311  -0.071   3.044  0.00  0.00    +0.225 C 
ATOM     18  O   UNL     1      -1.170  -0.845   2.681  0.00  0.00    -0.275 OA
ATOM     19  H   UNL     1       0.752  -4.539   4.042  0.00  0.00    +0.155 HD
ATOM     20  N   UNL     1       2.882  -0.901   4.363  0.00  0.00    +0.394 N 
ATOM     21  H   UNL     1       3.631  -1.429   3.899  0.00  0.00    -0.083 HD
ATOM     22  H   UNL     1       2.997  -0.968   5.381  0.00  0.00    -0.083 HD
ENDROOT
BRANCH   1  24
ATOM     23  C   UNL     1      -0.779  -5.427   1.278  0.00  0.00    +0.009 C 
ATOM     24  C   UNL     1       0.745  -5.299   1.260  0.00  0.00    +0.033 C 
ENDBRANCH   1  24
BRANCH  13  25
ATOM     25  C   UNL     1       3.931   1.322   4.750  0.00  0.00    -0.004 C 
BRANCH  25  26
ATOM     26  C   UNL     1       5.349   0.908   4.351  0.00  0.00    +0.123 C 
BRANCH  26  27
ATOM     27  C   UNL     1       6.348   1.700   5.154  0.00  0.00    +0.356 C 
ATOM     28  O   UNL     1       5.966   2.512   5.963  0.00  0.00    -0.246 OA
ATOM     29  O   UNL     1       7.663   1.503   4.971  0.00  0.00    -0.246 OA
ENDBRANCH  26  27
ENDBRANCH  25  26
ENDBRANCH  13  25
BRANCH  16  30
ATOM     30  C   UNL     1      -0.729   1.579   1.267  0.00  0.00    +0.121 C 
BRANCH  30  31
ATOM     31  C   UNL     1      -0.013   1.086   0.008  0.00  0.00    +0.054 C 
BRANCH  31  32
ATOM     32  C   UNL     1      -0.742   1.585  -1.213  0.00  0.00    -0.046 A 
ATOM     33  C   UNL     1      -1.750   0.825  -1.775  0.00  0.00    +0.004 A 
ATOM     34  C   UNL     1      -2.422   1.285  -2.892  0.00  0.00    +0.000 A 
ATOM     35  C   UNL     1      -2.078   2.501  -3.453  0.00  0.00    +0.000 A 
ATOM     36  C   UNL     1      -1.066   3.259  -2.894  0.00  0.00    +0.000 A 
ATOM     37  C   UNL     1      -0.398   2.801  -1.774  0.00  0.00    +0.004 A 
ENDBRANCH  31  32
ENDBRANCH  30  31
ENDBRANCH  16  30
TORSDOF 7
