REMARK  Name = ZINC63588453
REMARK  10 active torsions:
REMARK  status: ('A' for Active; 'I' for Inactive)
REMARK    1  A    between atoms: C_1  and  N_2
REMARK    2  A    between atoms: C_6  and  C_7
REMARK    3  A    between atoms: C_18  and  C_20
REMARK    4  A    between atoms: C_20  and  C_21
REMARK    5  A    between atoms: C_21  and  C_22
REMARK    6  A    between atoms: N_24  and  C_25
REMARK    7  A    between atoms: C_25  and  C_26
REMARK    8  A    between atoms: C_26  and  C_27
REMARK    9  A    between atoms: C_30  and  O_36
REMARK   10  A    between atoms: O_36  and  C_37
REMARK                            x       y       z     vdW  Elec       q    Type
REMARK                         _______ _______ _______ _____ _____    ______ ____
ROOT
ATOM      1  C   UNL     1       3.826   0.473   6.648  0.00  0.00    +0.105 C 
ENDROOT
BRANCH   1  11
ATOM      2  C   UNL     1      -0.004  -0.307   2.571  0.00  0.00    +0.119 C 
ATOM      3  C   UNL     1       1.455  -0.274   3.098  0.00  0.00    +0.066 C 
ATOM      4  C   UNL     1       1.454  -1.318   4.220  0.00  0.00    +0.163 C 
ATOM      5  N   UNL     1       2.269  -0.973   5.383  0.00  0.00    -0.284 N 
ATOM      6  C   UNL     1       2.115  -1.855   6.559  0.00  0.00    +0.110 C 
ATOM      7  C   UNL     1       0.634  -2.025   6.901  0.00  0.00    +0.036 C 
ATOM      8  C   UNL     1      -0.185  -2.348   5.640  0.00  0.00    +0.106 C 
ATOM      9  N   UNL     1       0.034  -1.292   4.673  0.00  0.00    -0.222 NA
ATOM     10  N   UNL     1      -0.722  -1.288   3.436  0.00  0.00    -0.243 NA
ATOM     11  C   UNL     1       3.108   0.082   5.383  0.00  0.00    +0.217 C 
ATOM     12  O   UNL     1       3.285   0.716   4.364  0.00  0.00    -0.276 OA
ATOM     13  H   UNL     1      -0.730  -2.204   3.014  0.00  0.00    +0.142 HD
BRANCH   2  19
ATOM     14  C   UNL     1      -0.082   1.512   0.062  0.00  0.00    +0.148 C 
ATOM     15  N   UNL     1      -0.063   0.047   0.039  0.00  0.00    -0.352 N 
ATOM     16  C   UNL     1      -0.070  -0.730  -1.081  0.00  0.00    +0.085 A 
ATOM     17  C   UNL     1      -0.046  -2.023  -0.697  0.00  0.00    +0.019 A 
ATOM     18  C   UNL     1      -0.023  -2.044   0.712  0.00  0.00    +0.024 A 
ATOM     19  C   UNL     1      -0.028  -0.763   1.135  0.00  0.00    +0.037 A 
ENDBRANCH   2  19
ENDBRANCH   1  11
BRANCH   1  20
ATOM     20  C   UNL     1       4.709   1.693   6.377  0.00  0.00    +0.105 C 
BRANCH  20  21
ATOM     21  C   UNL     1       5.427   2.085   7.643  0.00  0.00    +0.213 C 
ATOM     22  O   UNL     1       5.250   1.451   8.661  0.00  0.00    -0.276 OA
ATOM     23  N   UNL     1       6.266   3.140   7.643  0.00  0.00    -0.315 N 
ATOM     24  H   UNL     1       6.407   3.647   6.828  0.00  0.00    +0.149 HD
BRANCH  23  25
ATOM     25  C   UNL     1       6.964   3.521   8.873  0.00  0.00    +0.108 C 
BRANCH  25  26
ATOM     26  C   UNL     1       7.846   4.740   8.602  0.00  0.00    +0.052 C 
BRANCH  26  27
ATOM     27  C   UNL     1       8.565   5.132   9.868  0.00  0.00    -0.040 C 
ATOM     28  C   UNL     1       9.813   4.769  10.240  0.00  0.00    +0.002 A 
ATOM     29  C   UNL     1      10.837   3.933   9.604  0.00  0.00    +0.055 A 
ATOM     30  C   UNL     1      12.024   3.742  10.229  0.00  0.00    +0.121 A 
ATOM     31  C   UNL     1      12.317   4.319  11.477  0.00  0.00    +0.047 A 
ATOM     32  C   UNL     1      11.439   5.103  12.139  0.00  0.00    +0.029 A 
ATOM     33  C   UNL     1      10.123   5.377  11.554  0.00  0.00    +0.043 A 
ATOM     34  N   UNL     1       9.107   6.087  11.978  0.00  0.00    -0.380 N 
ATOM     35  C   UNL     1       8.037   6.016  10.976  0.00  0.00    +0.144 C 
ATOM     36  H   UNL     1       9.069   6.580  12.812  0.00  0.00    +0.160 HD
BRANCH  30  37
ATOM     37  O   UNL     1      12.964   2.964   9.629  0.00  0.00    -0.495 OA
ATOM     38  C   UNL     1      14.200   2.789  10.323  0.00  0.00    +0.277 C 
ENDBRANCH  30  37
ENDBRANCH  26  27
ENDBRANCH  25  26
ENDBRANCH  23  25
ENDBRANCH  20  21
ENDBRANCH   1  20
TORSDOF 8
