REMARK  Name = ZINC64774478
REMARK  10 active torsions:
REMARK  status: ('A' for Active; 'I' for Inactive)
REMARK    1  A    between atoms: C_1  and  C_2
REMARK    2  A    between atoms: C_5  and  N_8
REMARK    3  A    between atoms: C_9  and  C_11
REMARK    4  A    between atoms: C_11  and  S_12
REMARK    5  A    between atoms: S_12  and  C_13
REMARK    6  A    between atoms: C_17  and  C_20
REMARK    7  A    between atoms: C_22  and  C_31
REMARK    8  A    between atoms: C_24  and  C_30
REMARK    9  A    between atoms: C_25  and  N_26
REMARK   10  A    between atoms: C_27  and  C_29
REMARK                            x       y       z     vdW  Elec       q    Type
REMARK                         _______ _______ _______ _____ _____    ______ ____
ROOT
ATOM      1  C   UNL     1      -0.582  -8.984   1.152  0.00  0.00    +0.213 A 
ATOM      2  N   UNL     1      -0.672  -9.488   2.378  0.00  0.00    -0.180 NA
ATOM      3  C   UNL     1      -0.275 -10.735   2.602  0.00  0.00    +0.300 A 
ATOM      4  O   UNL     1      -0.356 -11.274   3.842  0.00  0.00    -0.263 OA
ATOM      5  C   UNL     1       0.230 -11.484   1.524  0.00  0.00    +0.161 A 
ATOM      6  N   UNL     1       0.293 -10.921   0.322  0.00  0.00    -0.141 NA
ATOM      7  N   UNL     1      -0.107  -9.711   0.148  0.00  0.00    -0.122 NA
ENDROOT
BRANCH   5   8
ATOM      8  C   UNL     1       0.684 -12.880   1.726  0.00  0.00    +0.029 A 
ATOM      9  C   UNL     1      -0.091 -13.769   2.467  0.00  0.00    +0.015 A 
ATOM     10  C   UNL     1       0.337 -15.067   2.652  0.00  0.00    -0.049 A 
ATOM     11  C   UNL     1       1.535 -15.492   2.104  0.00  0.00    +0.008 A 
ATOM     12  C   UNL     1       2.313 -14.620   1.368  0.00  0.00    -0.028 A 
ATOM     13  C   UNL     1       1.893 -13.313   1.167  0.00  0.00    +0.046 A 
ATOM     14  C   UNL     1       3.617 -15.090   0.775  0.00  0.00    +0.046 C 
ATOM     15  C   UNL     1      -0.503 -16.027   3.454  0.00  0.00    +0.044 C 
BRANCH  13  16
ATOM     16  N   UNL     1       2.676 -12.431   0.417  0.00  0.00    -0.285 N 
ATOM     17  C   UNL     1       2.872 -11.170   0.849  0.00  0.00    +0.214 C 
ATOM     18  O   UNL     1       2.414 -10.816   1.915  0.00  0.00    -0.276 OA
ATOM     19  C   UNL     1       3.659 -10.199   0.007  0.00  0.00    +0.109 C 
ATOM     20  H   UNL     1       3.078 -12.727  -0.414  0.00  0.00    +0.155 HD
ENDBRANCH  13  16
ENDBRANCH   5   8
BRANCH   1  21
ATOM     21  S   UNL     1      -1.108  -7.329   0.854  0.00  0.00    -0.075 S 
BRANCH  21  22
ATOM     22  C   UNL     1      -0.806  -7.085  -0.918  0.00  0.00    +0.173 C 
BRANCH  22  24
ATOM     23  N   UNL     1      -1.083  -5.282  -2.588  0.00  0.00    -0.285 N 
ATOM     24  C   UNL     1      -1.218  -5.690  -1.310  0.00  0.00    +0.227 C 
ATOM     25  O   UNL     1      -1.671  -4.935  -0.477  0.00  0.00    -0.275 OA
ATOM     26  H   UNL     1      -0.790  -5.908  -3.269  0.00  0.00    +0.155 HD
BRANCH  23  31
ATOM     27  C   UNL     1      -2.227   0.097  -3.983  0.00  0.00    +0.044 C 
ATOM     28  C   UNL     1      -1.923  -1.332  -3.613  0.00  0.00    -0.050 A 
ATOM     29  C   UNL     1      -1.381  -1.623  -2.375  0.00  0.00    +0.005 A 
ATOM     30  C   UNL     1      -1.101  -2.932  -2.032  0.00  0.00    +0.023 A 
ATOM     31  C   UNL     1      -1.366  -3.955  -2.932  0.00  0.00    +0.033 A 
ATOM     32  C   UNL     1      -1.911  -3.660  -4.174  0.00  0.00    +0.023 A 
ATOM     33  C   UNL     1      -2.193  -2.350  -4.509  0.00  0.00    +0.005 A 
ENDBRANCH  23  31
ENDBRANCH  22  24
ENDBRANCH  21  22
ENDBRANCH   1  21
TORSDOF 6
