REMARK  Name = ZINC63376128
REMARK  4 active torsions:
REMARK  status: ('A' for Active; 'I' for Inactive)
REMARK    1  A    between atoms: C_1  and  O_2
REMARK    2  A    between atoms: O_2  and  C_3
REMARK    3  A    between atoms: C_10  and  C_18
REMARK    4  A    between atoms: N_22  and  C_25
REMARK                            x       y       z     vdW  Elec       q    Type
REMARK                         _______ _______ _______ _____ _____    ______ ____
ROOT
ATOM      1  C   UNL     1       0.440  -6.448 -10.229  0.00  0.00    +0.121 A 
ATOM      2  C   UNL     1      -0.426  -7.344  -9.578  0.00  0.00    +0.047 A 
ATOM      3  C   UNL     1      -0.401  -7.534  -8.241  0.00  0.00    +0.029 A 
ATOM      4  C   UNL     1       0.554  -6.790  -7.415  0.00  0.00    +0.043 A 
ATOM      5  N   UNL     1       0.764  -6.773  -6.119  0.00  0.00    -0.376 N 
ATOM      6  C   UNL     1       1.908  -5.909  -5.849  0.00  0.00    +0.128 C 
ATOM      7  C   UNL     1       1.580  -4.788  -4.859  0.00  0.00    +0.121 C 
ATOM      8  N   UNL     1       2.685  -3.817  -4.876  0.00  0.00    -0.307 NA
ATOM      9  C   UNL     1       2.803  -3.098  -6.148  0.00  0.00    +0.086 C 
ATOM     10  C   UNL     1       3.186  -4.075  -7.274  0.00  0.00    +0.048 C 
ATOM     11  C   UNL     1       2.238  -5.251  -7.179  0.00  0.00    -0.035 C 
ATOM     12  C   UNL     1       1.462  -5.835  -8.100  0.00  0.00    +0.003 A 
ATOM     13  C   UNL     1       1.358  -5.713  -9.559  0.00  0.00    +0.055 A 
ATOM     14  H   UNL     1       2.613  -3.173  -4.102  0.00  0.00    +0.123 HD
ATOM     15  H   UNL     1       0.245  -7.253  -5.454  0.00  0.00    +0.160 HD
ENDROOT
BRANCH   7  16
ATOM     16  C   UNL     1       0.299  -4.108  -5.269  0.00  0.00    +0.100 A 
ATOM     17  C   UNL     1       0.161  -3.591  -6.522  0.00  0.00    +0.263 A 
ATOM     18  N   UNL     1      -1.014  -2.977  -6.874  0.00  0.00    -0.274 N 
ATOM     19  C   UNL     1      -2.025  -2.882  -5.991  0.00  0.00    +0.332 A 
ATOM     20  N   UNL     1      -1.908  -3.385  -4.748  0.00  0.00    -0.257 N 
ATOM     21  C   UNL     1      -0.773  -4.003  -4.365  0.00  0.00    +0.265 A 
ATOM     22  O   UNL     1      -0.675  -4.462  -3.240  0.00  0.00    -0.267 OA
ATOM     23  O   UNL     1      -3.058  -2.333  -6.320  0.00  0.00    -0.246 OA
ATOM     24  O   UNL     1       1.173  -3.683  -7.411  0.00  0.00    -0.267 OA
ATOM     25  H   UNL     1      -1.117  -2.607  -7.765  0.00  0.00    +0.173 HD
BRANCH  20  26
ATOM     26  C   UNL     1      -3.025  -3.267  -3.808  0.00  0.00    +0.095 C 
ATOM     27  C   UNL     1      -4.233  -4.046  -4.367  0.00  0.00    +0.025 C 
ATOM     28  C   UNL     1      -5.167  -4.359  -3.229  0.00  0.00    +0.002 C 
ATOM     29  C   UNL     1      -6.282  -3.306  -3.075  0.00  0.00    +0.000 C 
ATOM     30  C   UNL     1      -5.769  -1.864  -3.250  0.00  0.00    +0.000 C 
ATOM     31  C   UNL     1      -4.446  -1.636  -2.571  0.00  0.00    +0.002 C 
ATOM     32  C   UNL     1      -3.321  -1.857  -3.603  0.00  0.00    +0.025 C 
ENDBRANCH  20  26
ENDBRANCH   7  16
BRANCH   1  34
ATOM     33  C   UNL     1      -0.629  -7.112 -12.247  0.00  0.00    +0.277 C 
ATOM     34  O   UNL     1       0.354  -6.318 -11.579  0.00  0.00    -0.495 OA
ENDBRANCH   1  34
TORSDOF 3
