REMARK  Name = ZINC42478185
REMARK  3 active torsions:
REMARK  status: ('A' for Active; 'I' for Inactive)
REMARK    1  A    between atoms: C_2  and  C_12
REMARK    2  A    between atoms: C_13  and  C_14
REMARK    3  A    between atoms: N_16  and  C_17
REMARK                            x       y       z     vdW  Elec       q    Type
REMARK                         _______ _______ _______ _____ _____    ______ ____
ROOT
ATOM      1  C   UNL     1       1.170   3.563   0.010  0.00  0.00    +0.013 C 
ATOM      2  C   UNL     1       2.332   4.251   0.003  0.00  0.00    +0.068 C 
ENDROOT
BRANCH   1   4
ATOM      3  C   UNL     1      -0.017   1.378   0.010  0.00  0.00    +0.057 A 
ATOM      4  C   UNL     1       1.186   2.093   0.002  0.00  0.00    -0.020 A 
ATOM      5  C   UNL     1       2.404   1.404  -0.014  0.00  0.00    +0.031 A 
ATOM      6  C   UNL     1       2.414   0.026  -0.023  0.00  0.00    +0.087 A 
ATOM      7  C   UNL     1       1.218  -0.684  -0.016  0.00  0.00    +0.180 A 
ATOM      8  C   UNL     1       0.002  -0.004   0.002  0.00  0.00    +0.164 A 
ATOM      9  O   UNL     1      -1.177  -0.686   0.017  0.00  0.00    -0.485 OA
ATOM     10  C   UNL     1      -1.127  -2.064  -0.367  0.00  0.00    +0.270 C 
ATOM     11  C   UNL     1       0.054  -2.723   0.358  0.00  0.00    +0.270 C 
ATOM     12  O   UNL     1       1.253  -2.044  -0.029  0.00  0.00    -0.483 OA
ATOM     13 CL   UNL     1       3.925  -0.827  -0.044  0.00  0.00    -0.080 Cl
ENDBRANCH   1   4
BRANCH   2  14
ATOM     14  C   UNL     1       2.316   5.713   0.010  0.00  0.00    +0.237 C 
ATOM     15  O   UNL     1       1.255   6.310   0.024  0.00  0.00    -0.271 OA
ATOM     16  N   UNL     1       3.476   6.400   0.003  0.00  0.00    -0.301 N 
ATOM     17  H   UNL     1       4.321   5.924  -0.007  0.00  0.00    +0.150 HD
BRANCH  16  18
ATOM     18  C   UNL     1       3.460   7.865   0.011  0.00  0.00    +0.159 C 
ATOM     19  C   UNL     1       4.771   8.390   0.602  0.00  0.00    +0.032 C 
ATOM     20  C   UNL     1       4.581   9.781   1.179  0.00  0.00    +0.004 C 
ATOM     21  C   UNL     1       4.283  10.842   0.135  0.00  0.00    +0.019 C 
ATOM     22  C   UNL     1       2.915  10.605  -0.508  0.00  0.00    +0.104 C 
ATOM     23  N   UNL     1       3.078   9.669  -1.633  0.00  0.00    -0.314 N 
ATOM     24  C   UNL     1       3.327   8.380  -1.407  0.00  0.00    +0.233 C 
ATOM     25  O   UNL     1       3.451   7.617  -2.341  0.00  0.00    -0.274 OA
ATOM     26  H   UNL     1       3.001   9.993  -2.543  0.00  0.00    +0.149 HD
ENDBRANCH  16  18
ENDBRANCH   2  14
TORSDOF 3
