REMARK  Name = ZINC64986777
REMARK  11 active torsions:
REMARK  status: ('A' for Active; 'I' for Inactive)
REMARK    1  A    between atoms: C_1  and  C_2
REMARK    2  A    between atoms: C_2  and  N_3
REMARK    3  A    between atoms: N_3  and  C_4
REMARK    4  A    between atoms: N_3  and  S_6
REMARK    5  A    between atoms: C_4  and  C_5
REMARK    6  A    between atoms: S_6  and  C_9
REMARK    7  A    between atoms: C_14  and  O_15
REMARK    8  A    between atoms: O_15  and  C_16
REMARK    9  A    between atoms: C_19  and  C_23
REMARK   10  A    between atoms: C_20  and  C_22
REMARK   11  A    between atoms: C_28  and  C_34
REMARK                            x       y       z     vdW  Elec       q    Type
REMARK                         _______ _______ _______ _____ _____    ______ ____
ROOT
ATOM      1  C   UNL     1       0.007   0.579  -3.105  0.00  0.00    +0.148 A 
ATOM      2  C   UNL     1       0.708   0.364  -4.269  0.00  0.00    +0.049 A 
ATOM      3  C   UNL     1       0.419   1.119  -5.412  0.00  0.00    +0.081 A 
ATOM      4  C   UNL     1      -0.604   2.077  -5.368  0.00  0.00    +0.144 A 
ATOM      5  C   UNL     1      -1.289   2.298  -4.186  0.00  0.00    +0.095 A 
ATOM      6  C   UNL     1      -0.991   1.547  -3.057  0.00  0.00    +0.158 A 
ATOM      7  O   UNL     1      -0.946   2.764  -6.482  0.00  0.00    -0.453 OA
ATOM      8  C   UNL     1      -1.422   2.071  -7.546  0.00  0.00    +0.150 A 
ATOM      9  C   UNL     1      -2.725   2.301  -7.968  0.00  0.00    +0.048 A 
ATOM     10  C   UNL     1      -3.247   1.590  -9.032  0.00  0.00    +0.007 A 
ATOM     11  C   UNL     1      -2.473   0.645  -9.679  0.00  0.00    -0.048 A 
ATOM     12  C   UNL     1      -1.173   0.420  -9.273  0.00  0.00    +0.030 A 
ATOM     13  C   UNL     1      -0.635   1.141  -8.211  0.00  0.00    +0.077 A 
ATOM     14  N   UNL     1       0.701   0.936  -7.867  0.00  0.00    -0.278 N 
ATOM     15  C   UNL     1       1.197   0.910  -6.638  0.00  0.00    +0.252 C 
ATOM     16  O   UNL     1       2.388   0.697  -6.518  0.00  0.00    -0.270 OA
ATOM     17  C   UNL     1      -3.049  -0.139 -10.830  0.00  0.00    +0.044 C 
ATOM     18  H   UNL     1       1.326   0.799  -8.596  0.00  0.00    +0.155 HD
ENDROOT
BRANCH   1  19
ATOM     19  S   UNL     1       0.371  -0.379  -1.672  0.00  0.00    +0.064 S 
ATOM     20  O   UNL     1       1.480  -1.202  -2.004  0.00  0.00    -0.153 OA
ATOM     21  O   UNL     1      -0.865  -0.913  -1.217  0.00  0.00    -0.153 OA
BRANCH  19  22
ATOM     22  N   UNL     1       0.893   0.670  -0.501  0.00  0.00    -0.177 NA
BRANCH  22  24
ATOM     23  C   UNL     1       0.003   2.903  -0.053  0.00  0.00    +0.022 C 
ATOM     24  C   UNL     1      -0.080   1.417   0.300  0.00  0.00    +0.106 C 
ENDBRANCH  22  24
BRANCH  22  25
ATOM     25  C   UNL     1       2.328   0.850  -0.267  0.00  0.00    +0.106 C 
ATOM     26  C   UNL     1       2.779  -0.069   0.870  0.00  0.00    +0.022 C 
ENDBRANCH  22  25
ENDBRANCH  19  22
ENDBRANCH   1  19
BRANCH   6  27
ATOM     27  O   UNL     1      -1.672   1.761  -1.903  0.00  0.00    -0.454 OA
BRANCH  27  28
ATOM     28  C   UNL     1      -2.854   1.115  -1.731  0.00  0.00    +0.129 A 
ATOM     29  C   UNL     1      -3.384   0.348  -2.759  0.00  0.00    +0.046 A 
ATOM     30  C   UNL     1      -4.587  -0.308  -2.581  0.00  0.00    +0.007 A 
ATOM     31  C   UNL     1      -5.263  -0.201  -1.380  0.00  0.00    -0.047 A 
ATOM     32  C   UNL     1      -4.737   0.562  -0.354  0.00  0.00    -0.044 A 
ATOM     33  C   UNL     1      -3.532   1.215  -0.524  0.00  0.00    +0.050 A 
ATOM     34  C   UNL     1      -5.477   0.677   0.954  0.00  0.00    +0.044 C 
ATOM     35  C   UNL     1      -6.574  -0.918  -1.189  0.00  0.00    +0.044 C 
ENDBRANCH  27  28
ENDBRANCH   6  27
TORSDOF 6
