REMARK  Name = ZINC00707308
REMARK  7 active torsions:
REMARK  status: ('A' for Active; 'I' for Inactive)
REMARK    1  A    between atoms: C_1  and  C_2
REMARK    2  A    between atoms: C_7  and  N_8
REMARK    3  A    between atoms: C_11  and  C_18
REMARK    4  A    between atoms: C_13  and  C_16
REMARK    5  A    between atoms: C_14  and  N_15
REMARK    6  A    between atoms: C_30  and  C_32
REMARK    7  A    between atoms: C_30  and  C_33
REMARK                            x       y       z     vdW  Elec       q    Type
REMARK                         _______ _______ _______ _____ _____    ______ ____
ROOT
ATOM      1  N   UNL     1       2.070  -1.751  -0.070  0.00  0.00    -0.260 N 
ATOM      2  C   UNL     1       2.368  -1.115  -1.246  0.00  0.00    +0.025 C 
ATOM      3  C   UNL     1       2.578   0.218  -1.274  0.00  0.00    +0.025 C 
ATOM      4  C   UNL     1       2.489   1.043  -0.015  0.00  0.00    +0.097 C 
ATOM      5  C   UNL     1       2.582   0.178   1.208  0.00  0.00    +0.077 C 
ATOM      6  C   UNL     1       2.369  -1.161   1.138  0.00  0.00    +0.107 C 
ATOM      7  C   UNL     1       2.882   0.879  -2.478  0.00  0.00    +0.162 C 
ATOM      8  O   UNL     1       3.080   2.078  -2.466  0.00  0.00    -0.292 OA
ATOM      9  C   UNL     1       2.967   0.129  -3.779  0.00  0.00    +0.086 C 
ATOM     10  C   UNL     1       2.049  -1.095  -3.710  0.00  0.00    -0.023 C 
ATOM     11  C   UNL     1       2.461  -1.943  -2.505  0.00  0.00    +0.058 C 
ATOM     12  C   UNL     1       0.597  -0.640  -3.545  0.00  0.00    +0.011 C 
ATOM     13  C   UNL     1       2.188  -1.916  -4.993  0.00  0.00    +0.011 C 
ENDROOT
BRANCH   4  14
ATOM     14  C   UNL     1       1.176   1.782   0.000  0.00  0.00    -0.031 A 
ATOM     15  C   UNL     1      -0.013   1.076   0.008  0.00  0.00    +0.008 A 
ATOM     16  C   UNL     1      -1.220   1.749   0.017  0.00  0.00    +0.050 A 
ATOM     17  C   UNL     1      -1.241   3.134   0.029  0.00  0.00    +0.166 A 
ATOM     18  C   UNL     1      -0.044   3.846   0.022  0.00  0.00    +0.167 A 
ATOM     19  C   UNL     1       1.163   3.164   0.007  0.00  0.00    +0.054 A 
ATOM     20  O   UNL     1      -0.329   5.180   0.031  0.00  0.00    -0.453 OA
ATOM     21  C   UNL     1      -1.701   5.277   0.456  0.00  0.00    +0.466 C 
ATOM     22  O   UNL     1      -2.277   4.024   0.043  0.00  0.00    -0.453 OA
ENDBRANCH   4  14
BRANCH   1  29
ATOM     23  C   UNL     1       3.737  -4.057  -0.116  0.00  0.00    +0.046 C 
ATOM     24  C   UNL     1       2.233  -4.161  -0.119  0.00  0.00    -0.028 A 
ATOM     25  C   UNL     1       1.626  -5.401  -0.145  0.00  0.00    +0.020 A 
ATOM     26  C   UNL     1       0.246  -5.497  -0.147  0.00  0.00    +0.018 A 
ATOM     27  C   UNL     1      -0.530  -4.351  -0.124  0.00  0.00    +0.017 A 
ATOM     28  C   UNL     1       0.072  -3.108  -0.093  0.00  0.00    +0.025 A 
ATOM     29  C   UNL     1       1.457  -3.009  -0.096  0.00  0.00    +0.043 A 
ATOM     30 BR   UNL     1      -0.582  -7.196  -0.182  0.00  0.00    -0.050 Br
ENDBRANCH   1  29
BRANCH   6  31
ATOM     31  N   UNL     1       2.450  -1.929   2.275  0.00  0.00    -0.345 N 
ATOM     32  H   UNL     1       2.660  -1.514   3.126  0.00  0.00    +0.144 HD
ATOM     33  H   UNL     1       2.298  -2.886   2.226  0.00  0.00    +0.144 HD
ENDBRANCH   6  31
BRANCH   5  34
ATOM     34  C   UNL     1       2.900   0.776   2.469  0.00  0.00    +0.099 C 
ATOM     35  N   UNL     1       3.153   1.250   3.470  0.00  0.00    -0.191 NA
ENDBRANCH   5  34
TORSDOF 4
