REMARK  Name = ZINC61882305
REMARK  9 active torsions:
REMARK  status: ('A' for Active; 'I' for Inactive)
REMARK    1  A    between atoms: C_1  and  C_2
REMARK    2  A    between atoms: C_2  and  C_3
REMARK    3  A    between atoms: C_3  and  C_5
REMARK    4  A    between atoms: C_3  and  C_6
REMARK    5  A    between atoms: C_6  and  C_8
REMARK    6  A    between atoms: C_6  and  N_9
REMARK    7  A    between atoms: N_9  and  S_10
REMARK    8  A    between atoms: S_10  and  C_13
REMARK    9  A    between atoms: C_17  and  N_20
REMARK                            x       y       z     vdW  Elec       q    Type
REMARK                         _______ _______ _______ _____ _____    ______ ____
ROOT
ATOM      1  S   UNL     1       2.083  -4.014   2.468  0.00  0.00    +0.060 S 
ATOM      2  O   UNL     1       2.594  -4.320   3.759  0.00  0.00    -0.153 OA
ATOM      3  O   UNL     1       1.121  -4.832   1.817  0.00  0.00    -0.153 OA
ENDROOT
BRANCH   1   4
ATOM      4  C   UNL     1       3.471  -3.912   1.388  0.00  0.00    +0.122 A 
ATOM      5  C   UNL     1       3.450  -4.569   0.172  0.00  0.00    +0.049 A 
ATOM      6  C   UNL     1       4.537  -4.490  -0.680  0.00  0.00    +0.045 A 
ATOM      7  C   UNL     1       5.649  -3.754  -0.317  0.00  0.00    +0.044 A 
ATOM      8  C   UNL     1       5.674  -3.092   0.904  0.00  0.00    +0.042 A 
ATOM      9  C   UNL     1       4.577  -3.169   1.754  0.00  0.00    +0.065 A 
ATOM     10 BR   UNL     1       4.602  -2.264   3.415  0.00  0.00    -0.046 Br
ATOM     11 CL   UNL     1       4.506  -5.318  -2.206  0.00  0.00    -0.083 Cl
BRANCH   8  12
ATOM     12  N   UNL     1       6.796  -2.347   1.274  0.00  0.00    -0.357 N 
ATOM     13  H   UNL     1       7.559  -2.292   0.678  0.00  0.00    +0.142 HD
ATOM     14  H   UNL     1       6.812  -1.886   2.127  0.00  0.00    +0.142 HD
ENDBRANCH   8  12
ENDBRANCH   1   4
BRANCH   1  15
ATOM     15  N   UNL     1       1.425  -2.498   2.567  0.00  0.00    -0.187 NA
ATOM     16  H   UNL     1       1.448  -2.013   3.407  0.00  0.00    +0.148 HD
BRANCH  15  17
ATOM     17  C   UNL     1       0.811  -1.888   1.385  0.00  0.00    +0.076 C 
ATOM     18  C   UNL     1      -0.694  -2.163   1.394  0.00  0.00    +0.026 C 
BRANCH  17  19
ATOM     19  C   UNL     1       1.053  -0.377   1.407  0.00  0.00    +0.004 C 
ATOM     20  C   UNL     1       2.558  -0.102   1.398  0.00  0.00    +0.009 C 
BRANCH  19  22
ATOM     21  C   UNL     1       0.544   1.782   0.257  0.00  0.00    +0.004 C 
ATOM     22  C   UNL     1       0.411   0.260   0.173  0.00  0.00    +0.001 C 
ENDBRANCH  19  22
ENDBRANCH  17  19
ENDBRANCH  15  17
ENDBRANCH   1  15
TORSDOF 6
