REMARK  Name = ZINC64185862
REMARK  6 active torsions:
REMARK  status: ('A' for Active; 'I' for Inactive)
REMARK    1  A    between atoms: C_7  and  C_10
REMARK    2  A    between atoms: C_10  and  C_12
REMARK    3  A    between atoms: C_10  and  C_29
REMARK    4  A    between atoms: C_12  and  N_13
REMARK    5  A    between atoms: N_19  and  C_22
REMARK    6  A    between atoms: C_27  and  O_28
REMARK                            x       y       z     vdW  Elec       q    Type
REMARK                         _______ _______ _______ _____ _____    ______ ____
ROOT
ATOM      1  N   UNL     1      -0.045  -5.117   1.283  0.00  0.00    -0.298 N 
ATOM      2  C   UNL     1      -0.013  -6.003   2.298  0.00  0.00    +0.302 C 
ATOM      3  O   UNL     1       0.891  -5.965   3.110  0.00  0.00    -0.253 OA
ATOM      4  N   UNL     1      -0.984  -6.931   2.413  0.00  0.00    -0.283 N 
ATOM      5  C   UNL     1      -1.028  -7.827   3.577  0.00  0.00    +0.128 C 
ATOM      6  C   UNL     1      -2.405  -7.702   4.240  0.00  0.00    +0.124 C 
ATOM      7  N   UNL     1      -3.439  -7.836   3.205  0.00  0.00    -0.324 N 
ATOM      8  C   UNL     1      -3.395  -6.940   2.041  0.00  0.00    +0.124 C 
ATOM      9  C   UNL     1      -2.021  -7.061   1.380  0.00  0.00    +0.128 C 
ATOM     10  H   UNL     1      -0.724  -5.193   0.594  0.00  0.00    +0.150 HD
ENDROOT
BRANCH   7  11
ATOM     11  C   UNL     1      -4.447  -8.800   3.324  0.00  0.00    +0.072 A 
ATOM     12  C   UNL     1      -5.638  -8.485   3.963  0.00  0.00    +0.027 A 
ATOM     13  C   UNL     1      -6.632  -9.439   4.079  0.00  0.00    +0.002 A 
ATOM     14  C   UNL     1      -6.443 -10.706   3.561  0.00  0.00    +0.004 A 
ATOM     15  C   UNL     1      -5.258 -11.027   2.923  0.00  0.00    +0.047 A 
ATOM     16  C   UNL     1      -4.259 -10.076   2.797  0.00  0.00    +0.138 A 
BRANCH  16  17
ATOM     17  O   UNL     1      -3.096 -10.388   2.166  0.00  0.00    -0.505 OA
ATOM     18  H   UNL     1      -2.414 -10.745   2.751  0.00  0.00    +0.292 HD
ENDBRANCH  16  17
ENDBRANCH   7  11
BRANCH   1  19
ATOM     19  C   UNL     1       0.946  -4.040   1.219  0.00  0.00    +0.118 C 
BRANCH  19  20
ATOM     20  C   UNL     1       0.688  -3.183  -0.022  0.00  0.00    +0.071 C 
BRANCH  20  27
ATOM     21  C   UNL     1      -0.022   1.350   0.016  0.00  0.00    +0.001 A 
ATOM     22  C   UNL     1       1.160   2.104   0.009  0.00  0.00    +0.002 A 
ATOM     23  C   UNL     1       2.385   1.539  -0.006  0.00  0.00    +0.026 A 
ATOM     24  C   UNL     1       2.524   0.124  -0.017  0.00  0.00    +0.043 A 
ATOM     25  N   UNL     1       3.583  -0.650  -0.033  0.00  0.00    -0.380 N 
ATOM     26  C   UNL     1       3.140  -2.048  -0.038  0.00  0.00    +0.145 C 
ATOM     27  C   UNL     1       1.628  -2.005  -0.022  0.00  0.00    -0.032 C 
ATOM     28  C   UNL     1       1.291  -0.696  -0.010  0.00  0.00    -0.000 A 
ATOM     29  C   UNL     1      -0.003  -0.002   0.007  0.00  0.00    +0.010 A 
ATOM     30  H   UNL     1       4.504  -0.347  -0.040  0.00  0.00    +0.160 HD
ENDBRANCH  20  27
BRANCH  20  31
ATOM     31  C   UNL     1       0.918  -4.010  -1.260  0.00  0.00    -0.002 A 
ATOM     32  C   UNL     1       0.052  -4.312  -2.258  0.00  0.00    +0.012 A 
ATOM     33  C   UNL     1       0.487  -5.096  -3.309  0.00  0.00    +0.008 A 
ATOM     34  C   UNL     1       1.768  -5.540  -3.312  0.00  0.00    +0.045 A 
ATOM     35  S   UNL     1       2.405  -4.839  -1.798  0.00  0.00    -0.101 S 
ENDBRANCH  20  31
ENDBRANCH  19  20
ENDBRANCH   1  19
TORSDOF 6
