REMARK  Name = ZINC13787969
REMARK  10 active torsions:
REMARK  status: ('A' for Active; 'I' for Inactive)
REMARK    1  A    between atoms: C_1  and  C_2
REMARK    2  A    between atoms: C_5  and  S_8
REMARK    3  A    between atoms: S_8  and  C_9
REMARK    4  A    between atoms: C_9  and  C_10
REMARK    5  A    between atoms: C_11  and  C_21
REMARK    6  A    between atoms: N_23  and  N_24
REMARK    7  A    between atoms: C_25  and  C_26
REMARK    8  A    between atoms: C_25  and  C_27
REMARK    9  A    between atoms: C_27  and  O_28
REMARK   10  A    between atoms: O_28  and  C_29
REMARK                            x       y       z     vdW  Elec       q    Type
REMARK                         _______ _______ _______ _____ _____    ______ ____
ROOT
ATOM      1  C   UNL     1       2.556   5.456   0.007  0.00  0.00    +0.089 A 
ATOM      2  C   UNL     1       2.437   4.095   0.001  0.00  0.00    +0.173 A 
ATOM      3  N   UNL     1       3.671   3.560  -0.008  0.00  0.00    -0.124 NA
ATOM      4  N   UNL     1       4.549   4.501  -0.017  0.00  0.00    -0.058 NA
ATOM      5  N   UNL     1       3.879   5.732  -0.004  0.00  0.00    -0.191 N 
ATOM      6  C   UNL     1       4.466   7.003  -0.003  0.00  0.00    +0.240 A 
ATOM      7  C   UNL     1       5.905   7.282  -0.016  0.00  0.00    +0.206 A 
ATOM      8  N   UNL     1       6.071   8.576  -0.011  0.00  0.00    -0.032 NA
ATOM      9  O   UNL     1       4.789   9.178   0.004  0.00  0.00    -0.239 OA
ATOM     10  N   UNL     1       3.828   8.138   0.003  0.00  0.00    -0.027 NA
ATOM     11  N   UNL     1       6.919   6.331  -0.030  0.00  0.00    -0.337 N 
ATOM     12  H   UNL     1       6.698   5.387  -0.032  0.00  0.00    +0.144 HD
ATOM     13  H   UNL     1       7.848   6.612  -0.037  0.00  0.00    +0.144 HD
ENDROOT
BRANCH   2  14
ATOM     14  C   UNL     1       1.170   3.341   0.009  0.00  0.00    +0.285 C 
ATOM     15  O   UNL     1       0.109   3.934   0.022  0.00  0.00    -0.267 OA
ATOM     16  N   UNL     1       1.188   1.993   0.001  0.00  0.00    -0.202 N 
ATOM     17  H   UNL     1       2.035   1.519  -0.009  0.00  0.00    +0.178 HD
BRANCH  16  18
ATOM     18  N   UNL     1      -0.015   1.276   0.009  0.00  0.00    -0.186 NA
ATOM     19  C   UNL     1       0.002  -0.004   0.002  0.00  0.00    +0.071 C 
ATOM     20  C   UNL     1       1.317  -0.740  -0.015  0.00  0.00    +0.066 C 
BRANCH  19  21
ATOM     21  C   UNL     1      -1.293  -0.775   0.010  0.00  0.00    +0.281 C 
BRANCH  21  22
ATOM     22  O   UNL     1      -2.391   0.139   0.026  0.00  0.00    -0.486 OA
BRANCH  22  23
ATOM     23  C   UNL     1      -3.640  -0.398   0.035  0.00  0.00    +0.121 A 
ATOM     24  C   UNL     1      -3.804  -1.776   0.023  0.00  0.00    +0.045 A 
ATOM     25  C   UNL     1      -5.074  -2.318   0.038  0.00  0.00    +0.004 A 
ATOM     26  C   UNL     1      -6.181  -1.490   0.053  0.00  0.00    +0.000 A 
ATOM     27  C   UNL     1      -6.020  -0.117   0.059  0.00  0.00    +0.004 A 
ATOM     28  C   UNL     1      -4.752   0.431   0.050  0.00  0.00    +0.045 A 
ENDBRANCH  22  23
ENDBRANCH  21  22
ENDBRANCH  19  21
ENDBRANCH  16  18
ENDBRANCH   2  14
BRANCH   1  29
ATOM     29  C   UNL     1       1.429   6.457   0.023  0.00  0.00    +0.132 C 
BRANCH  29  30
ATOM     30  S   UNL     1       0.961   6.867  -1.681  0.00  0.00    -0.119 S 
BRANCH  30  35
ATOM     31  C   UNL     1      -3.528  10.852  -1.043  0.00  0.00    +0.044 C 
ATOM     32  C   UNL     1      -2.407   9.857  -1.202  0.00  0.00    -0.050 A 
ATOM     33  C   UNL     1      -1.991   9.484  -2.467  0.00  0.00    +0.004 A 
ATOM     34  C   UNL     1      -0.964   8.572  -2.617  0.00  0.00    +0.015 A 
ATOM     35  C   UNL     1      -0.349   8.030  -1.495  0.00  0.00    +0.008 A 
ATOM     36  C   UNL     1      -0.774   8.403  -0.226  0.00  0.00    +0.015 A 
ATOM     37  C   UNL     1      -1.797   9.320  -0.083  0.00  0.00    +0.004 A 
ENDBRANCH  30  35
ENDBRANCH  29  30
ENDBRANCH   1  29
TORSDOF 8
