REMARK  Name = ZINC25448014
REMARK  7 active torsions:
REMARK  status: ('A' for Active; 'I' for Inactive)
REMARK    1  A    between atoms: C_1  and  C_2
REMARK    2  A    between atoms: C_2  and  C_4
REMARK    3  A    between atoms: C_2  and  N_11
REMARK    4  A    between atoms: N_11  and  C_12
REMARK    5  A    between atoms: C_12  and  C_13
REMARK    6  A    between atoms: N_15  and  C_16
REMARK    7  A    between atoms: C_16  and  C_17
REMARK                            x       y       z     vdW  Elec       q    Type
REMARK                         _______ _______ _______ _____ _____    ______ ____
ROOT
ATOM      1  C   UNL     1       2.125   0.993   1.166  0.00  0.00    +0.196 C 
ATOM      2  O   UNL     1       1.591   0.218   1.931  0.00  0.00    -0.278 OA
ATOM      3  N   UNL     1       3.408   1.356   1.360  0.00  0.00    -0.313 N 
ATOM      4  H   UNL     1       3.892   2.059   0.665  0.00  0.00    +0.149 HD
ENDROOT
BRANCH   1   5
ATOM      5  C   UNL     1       1.353   1.550  -0.003  0.00  0.00    +0.016 C 
BRANCH   5   6
ATOM      6  N   UNL     1      -0.012   1.005   0.008  0.00  0.00    +0.389 N 
ATOM      7  H   UNL     1      -0.497   1.287   0.954  0.00  0.00    -0.084 HD
ATOM      8  H   UNL     1       0.046  -0.091  -0.062  0.00  0.00    -0.084 HD
BRANCH   6  10
ATOM      9  C   UNL     1      -0.534   0.673  -2.362  0.00  0.00    -0.009 C 
ATOM     10  C   UNL     1      -0.795   1.527  -1.120  0.00  0.00    -0.042 C 
BRANCH  10  11
ATOM     11  C   UNL     1      -2.262   1.479  -0.777  0.00  0.00    -0.043 A 
ATOM     12  C   UNL     1      -2.711   0.638   0.225  0.00  0.00    +0.003 A 
ATOM     13  C   UNL     1      -4.055   0.598   0.543  0.00  0.00    +0.000 A 
ATOM     14  C   UNL     1      -4.954   1.389  -0.148  0.00  0.00    +0.001 A 
ATOM     15  C   UNL     1      -4.507   2.226  -1.153  0.00  0.00    +0.020 A 
ATOM     16  C   UNL     1      -3.161   2.271  -1.469  0.00  0.00    +0.043 A 
ATOM     17 CL   UNL     1      -2.599   3.321  -2.732  0.00  0.00    -0.083 Cl
ENDBRANCH  10  11
ENDBRANCH   6  10
ENDBRANCH   5   6
ENDBRANCH   1   5
BRANCH   3  18
ATOM     18  C   UNL     1       4.159   0.815   2.495  0.00  0.00    +0.152 C 
BRANCH  18  19
ATOM     19  C   UNL     1       5.579   1.382   2.485  0.00  0.00    +0.228 C 
ATOM     20  C   UNL     1       6.380   0.795   3.655  0.00  0.00    +0.275 C 
ATOM     21  O   UNL     1       7.705   1.336   3.608  0.00  0.00    -0.485 OA
ATOM     22  C   UNL     1       8.320   1.341   2.394  0.00  0.00    +0.162 A 
ATOM     23  C   UNL     1       9.695   1.506   2.328  0.00  0.00    +0.049 A 
ATOM     24  C   UNL     1      10.334   1.517   1.103  0.00  0.00    +0.004 A 
ATOM     25  C   UNL     1       9.603   1.364  -0.061  0.00  0.00    +0.004 A 
ATOM     26  C   UNL     1       8.233   1.199  -0.003  0.00  0.00    +0.049 A 
ATOM     27  C   UNL     1       7.586   1.185   1.224  0.00  0.00    +0.163 A 
ATOM     28  O   UNL     1       6.236   1.018   1.266  0.00  0.00    -0.480 OA
ENDBRANCH  18  19
ENDBRANCH   3  18
TORSDOF 6
