REMARK  Name = ZINC65286720
REMARK  4 active torsions:
REMARK  status: ('A' for Active; 'I' for Inactive)
REMARK    1  A    between atoms: C_1  and  C_2
REMARK    2  A    between atoms: C_4  and  C_8
REMARK    3  A    between atoms: N_13  and  C_15
REMARK    4  A    between atoms: C_15  and  C_16
REMARK                            x       y       z     vdW  Elec       q    Type
REMARK                         _______ _______ _______ _____ _____    ______ ____
ROOT
ATOM      1  C   UNL     1      -1.149  -2.848  -1.264  0.00  0.00    +0.011 C 
ATOM      2  C   UNL     1      -0.697  -4.311  -1.250  0.00  0.00    +0.003 C 
ATOM      3  C   UNL     1      -1.282  -5.027  -2.472  0.00  0.00    -0.018 C 
ATOM      4  C   UNL     1      -2.806  -4.890  -2.455  0.00  0.00    -0.078 C 
ATOM      5  N   UNL     1      -3.174  -3.470  -2.496  0.00  0.00    +0.385 N 
ATOM      6  C   UNL     1      -2.678  -2.791  -1.293  0.00  0.00    -0.071 C 
ATOM      7  H   UNL     1      -2.766  -3.041  -3.314  0.00  0.00    -0.081 HD
ENDROOT
BRANCH   1  11
ATOM      8  C   UNL     1      -0.018   1.503   0.010  0.00  0.00    +0.082 C 
ATOM      9  C   UNL     1       0.002  -0.004   0.002  0.00  0.00    +0.080 C 
ATOM     10  N   UNL     1      -1.059  -0.735   0.003  0.00  0.00    -0.359 N 
ATOM     11  C   UNL     1      -0.635  -2.143  -0.006  0.00  0.00    +0.166 C 
ATOM     12  N   UNL     1       0.841  -2.080  -0.013  0.00  0.00    -0.220 NA
ATOM     13  N   UNL     1       1.144  -0.746  -0.013  0.00  0.00    -0.268 N 
ATOM     14  H   UNL     1       1.218  -2.533  -0.832  0.00  0.00    +0.146 HD
ATOM     15  H   UNL     1       2.043  -0.382  -0.020  0.00  0.00    +0.167 HD
ATOM     16  H   UNL     1      -1.974  -0.414   0.010  0.00  0.00    +0.162 HD
ENDBRANCH   1  11
BRANCH   5  17
ATOM     17  C   UNL     1      -4.636  -3.345  -2.559  0.00  0.00    -0.003 C 
BRANCH  17  18
ATOM     18  C   UNL     1      -5.134  -3.924  -3.858  0.00  0.00    +0.090 A 
ATOM     19  C   UNL     1      -5.502  -5.202  -4.060  0.00  0.00    +0.044 A 
ATOM     20  C   UNL     1      -5.898  -5.306  -5.413  0.00  0.00    +0.057 A 
ATOM     21  C   UNL     1      -5.748  -4.084  -5.958  0.00  0.00    +0.170 A 
ATOM     22  O   UNL     1      -5.291  -3.250  -5.010  0.00  0.00    -0.455 OA
ATOM     23 BR   UNL     1      -6.126  -3.619  -7.752  0.00  0.00    -0.008 Br
ENDBRANCH  17  18
ENDBRANCH   5  17
TORSDOF 3
