REMARK  Name = ZINC39355224
REMARK  10 active torsions:
REMARK  status: ('A' for Active; 'I' for Inactive)
REMARK    1  A    between atoms: C_1  and  O_2
REMARK    2  A    between atoms: O_2  and  C_3
REMARK    3  A    between atoms: C_3  and  C_4
REMARK    4  A    between atoms: C_4  and  N_5
REMARK    5  A    between atoms: N_5  and  C_6
REMARK    6  A    between atoms: N_5  and  C_23
REMARK    7  A    between atoms: C_6  and  C_7
REMARK    8  A    between atoms: N_12  and  C_14
REMARK    9  A    between atoms: C_23  and  C_24
REMARK   10  A    between atoms: C_29  and  C_30
REMARK                            x       y       z     vdW  Elec       q    Type
REMARK                         _______ _______ _______ _____ _____    ______ ____
ROOT
ATOM      1  N   UNL     1      -0.705  -2.012  -1.255  0.00  0.00    +0.382 N 
ATOM      2  H   UNL     1       0.068  -1.382  -1.102  0.00  0.00    -0.082 HD
ENDROOT
BRANCH   1   3
ATOM      3  C   UNL     1      -0.198  -3.384  -1.399  0.00  0.00    -0.050 C 
BRANCH   3   4
ATOM      4  C   UNL     1      -1.372  -4.365  -1.390  0.00  0.00    +0.141 C 
BRANCH   4   6
ATOM      5  C   UNL     1      -3.349  -4.968  -2.604  0.00  0.00    +0.193 C 
ATOM      6  O   UNL     1      -2.163  -4.172  -2.565  0.00  0.00    -0.385 OA
ENDBRANCH   4   6
ENDBRANCH   3   4
ENDBRANCH   1   3
BRANCH   1   7
ATOM      7  C   UNL     1      -1.420  -1.623  -2.478  0.00  0.00    -0.077 C 
BRANCH   7   8
ATOM      8  C   UNL     1      -1.811  -0.146  -2.392  0.00  0.00    -0.044 C 
ATOM      9  C   UNL     1      -0.546   0.714  -2.329  0.00  0.00    -0.002 C 
ATOM     10  C   UNL     1      -0.946   2.192  -2.322  0.00  0.00    -0.018 C 
ATOM     11  C   UNL     1      -1.789   2.492  -3.563  0.00  0.00    -0.078 C 
ATOM     12  N   UNL     1      -2.996   1.657  -3.552  0.00  0.00    +0.382 N 
ATOM     13  C   UNL     1      -2.623   0.240  -3.630  0.00  0.00    -0.077 C 
ATOM     14  H   UNL     1      -3.510   1.822  -2.699  0.00  0.00    -0.081 HD
BRANCH  12  15
ATOM     15  C   UNL     1      -3.840   2.004  -4.703  0.00  0.00    -0.060 C 
ATOM     16  C   UNL     1      -4.404   3.433  -4.560  0.00  0.00    +0.020 C 
ATOM     17  C   UNL     1      -5.793   3.374  -5.159  0.00  0.00    -0.046 A 
ATOM     18  C   UNL     1      -6.630   4.390  -5.588  0.00  0.00    +0.004 A 
ATOM     19  C   UNL     1      -7.873   4.093  -6.109  0.00  0.00    +0.000 A 
ATOM     20  C   UNL     1      -8.286   2.777  -6.204  0.00  0.00    +0.000 A 
ATOM     21  C   UNL     1      -7.453   1.762  -5.776  0.00  0.00    +0.004 A 
ATOM     22  C   UNL     1      -6.205   2.058  -5.253  0.00  0.00    -0.046 A 
ATOM     23  C   UNL     1      -5.121   1.143  -4.723  0.00  0.00    +0.020 C 
ENDBRANCH  12  15
ENDBRANCH   7   8
ENDBRANCH   1   7
BRANCH   1  24
ATOM     24  C   UNL     1      -1.623  -1.948  -0.109  0.00  0.00    -0.063 C 
BRANCH  24  25
ATOM     25  C   UNL     1      -0.835  -2.147   1.187  0.00  0.00    +0.066 C 
ATOM     26  C   UNL     1      -0.587  -3.621   1.440  0.00  0.00    +0.115 C 
ATOM     27  N   UNL     1      -1.175  -3.897   2.558  0.00  0.00    -0.161 NA
ATOM     28  N   UNL     1      -1.805  -2.790   3.116  0.00  0.00    -0.153 NA
ATOM     29  C   UNL     1      -1.658  -1.716   2.384  0.00  0.00    +0.077 C 
BRANCH  29  30
ATOM     30  C   UNL     1      -2.183  -0.369   2.662  0.00  0.00    -0.001 A 
ATOM     31  C   UNL     1      -1.940   0.678   1.768  0.00  0.00    +0.010 A 
ATOM     32  C   UNL     1      -2.435   1.937   2.035  0.00  0.00    +0.001 A 
ATOM     33  C   UNL     1      -3.169   2.166   3.186  0.00  0.00    +0.000 A 
ATOM     34  C   UNL     1      -3.413   1.135   4.076  0.00  0.00    +0.001 A 
ATOM     35  C   UNL     1      -2.931  -0.131   3.820  0.00  0.00    +0.010 A 
ENDBRANCH  29  30
ENDBRANCH  24  25
ENDBRANCH   1  24
TORSDOF 9
