REMARK  Name = ZINC03624575
REMARK  13 active torsions:
REMARK  status: ('A' for Active; 'I' for Inactive)
REMARK    1  A    between atoms: C_1  and  C_2
REMARK    2  A    between atoms: C_2  and  C_3
REMARK    3  A    between atoms: C_3  and  C_4
REMARK    4  A    between atoms: C_4  and  O_5
REMARK    5  A    between atoms: O_5  and  C_6
REMARK    6  A    between atoms: C_6  and  C_8
REMARK    7  A    between atoms: C_9  and  N_34
REMARK    8  A    between atoms: C_13  and  C_33
REMARK    9  A    between atoms: C_17  and  C_28
REMARK   10  A    between atoms: C_18  and  C_20
REMARK   11  A    between atoms: C_28  and  O_30
REMARK   12  A    between atoms: O_30  and  C_31
REMARK   13  A    between atoms: C_31  and  C_32
REMARK                            x       y       z     vdW  Elec       q    Type
REMARK                         _______ _______ _______ _____ _____    ______ ____
ROOT
ATOM      1  C   UNL     1      -1.216  -0.718  -0.140  0.00  0.00    +0.084 C 
ATOM      2  C   UNL     1      -1.204  -2.070  -0.105  0.00  0.00    +0.106 C 
ATOM      3  N   UNL     1      -2.350  -2.859   0.054  0.00  0.00    -0.220 N 
ATOM      4  C   UNL     1      -2.293  -4.207   0.088  0.00  0.00    +0.239 C 
ATOM      5  O   UNL     1      -1.238  -4.795  -0.013  0.00  0.00    -0.274 OA
ATOM      6  C   UNL     1      -3.595  -4.955   0.258  0.00  0.00    +0.136 C 
ATOM      7  S   UNL     1      -4.770  -3.550   0.348  0.00  0.00    -0.096 S 
ATOM      8  C   UNL     1      -3.578  -2.235   0.174  0.00  0.00    +0.088 C 
ATOM      9  C   UNL     1      -3.759  -0.888   0.153  0.00  0.00    +0.077 C 
ATOM     10  C   UNL     1      -2.544   0.002  -0.012  0.00  0.00    +0.100 C 
ATOM     11  C   UNL     1      -3.886  -5.844  -0.954  0.00  0.00    +0.029 C 
ENDROOT
BRANCH  10  12
ATOM     12  C   UNL     1      -2.742   0.849  -1.243  0.00  0.00    -0.017 A 
ATOM     13  C   UNL     1      -2.782   0.255  -2.490  0.00  0.00    +0.007 A 
ATOM     14  C   UNL     1      -2.964   1.031  -3.620  0.00  0.00    +0.020 A 
ATOM     15  C   UNL     1      -3.105   2.402  -3.502  0.00  0.00    +0.042 A 
ATOM     16  C   UNL     1      -3.065   2.997  -2.254  0.00  0.00    +0.040 A 
ATOM     17  C   UNL     1      -2.889   2.219  -1.123  0.00  0.00    +0.046 A 
ATOM     18 CL   UNL     1      -2.847   2.963   0.445  0.00  0.00    -0.083 Cl
ATOM     19 CL   UNL     1      -3.333   3.376  -4.921  0.00  0.00    -0.083 Cl
ENDBRANCH  10  12
BRANCH   2  20
ATOM     20  N   UNL     1       0.004  -2.706  -0.227  0.00  0.00    -0.345 N 
ATOM     21  H   UNL     1       0.781  -2.365   0.242  0.00  0.00    +0.143 HD
ATOM     22  H   UNL     1       0.081  -3.497  -0.783  0.00  0.00    +0.143 HD
ENDBRANCH   2  20
BRANCH   1  23
ATOM     23  C   UNL     1      -0.024   0.005  -0.297  0.00  0.00    +0.339 C 
ATOM     24  O   UNL     1       1.020  -0.583  -0.520  0.00  0.00    -0.245 OA
BRANCH  23  25
ATOM     25  O   UNL     1      -0.032   1.352  -0.201  0.00  0.00    -0.461 OA
BRANCH  25  26
ATOM     26  C   UNL     1       1.218   2.022  -0.372  0.00  0.00    +0.232 C 
BRANCH  26  27
ATOM     27  C   UNL     1       1.011   3.532  -0.229  0.00  0.00    +0.041 C 
BRANCH  27  29
ATOM     28  C   UNL     1       2.142   5.759  -0.270  0.00  0.00    +0.004 C 
ATOM     29  C   UNL     1       2.349   4.250  -0.413  0.00  0.00    -0.000 C 
ENDBRANCH  27  29
ENDBRANCH  26  27
ENDBRANCH  25  26
ENDBRANCH  23  25
ENDBRANCH   1  23
BRANCH   9  30
ATOM     30  C   UNL     1      -5.041  -0.334   0.280  0.00  0.00    +0.338 C 
ATOM     31  O   UNL     1      -6.009  -1.063   0.412  0.00  0.00    -0.245 OA
BRANCH  30  32
ATOM     32  O   UNL     1      -5.203   1.006   0.257  0.00  0.00    -0.462 OA
BRANCH  32  33
ATOM     33  C   UNL     1      -6.537   1.501   0.392  0.00  0.00    +0.229 C 
ATOM     34  C   UNL     1      -6.522   3.030   0.343  0.00  0.00    +0.048 C 
ENDBRANCH  32  33
ENDBRANCH  30  32
ENDBRANCH   9  30
TORSDOF 10
