REMARK  Name = ZINC13670840
REMARK  9 active torsions:
REMARK  status: ('A' for Active; 'I' for Inactive)
REMARK    1  A    between atoms: C_1  and  C_2
REMARK    2  A    between atoms: C_5  and  C_25
REMARK    3  A    between atoms: N_8  and  C_10
REMARK    4  A    between atoms: C_10  and  C_11
REMARK    5  A    between atoms: C_11  and  C_12
REMARK    6  A    between atoms: C_12  and  N_13
REMARK    7  A    between atoms: N_13  and  S_14
REMARK    8  A    between atoms: S_14  and  C_17
REMARK    9  A    between atoms: C_17  and  C_18
REMARK                            x       y       z     vdW  Elec       q    Type
REMARK                         _______ _______ _______ _____ _____    ______ ____
ROOT
ATOM      1  N   UNL     1       5.198  -2.115   3.294  0.00  0.00    -0.194 NA
ATOM      2  H   UNL     1       5.524  -1.798   2.437  0.00  0.00    +0.148 HD
ENDROOT
BRANCH   1   3
ATOM      3  S   UNL     1       6.221  -2.186   4.594  0.00  0.00    +0.033 S 
ATOM      4  O   UNL     1       7.462  -1.695   4.106  0.00  0.00    -0.158 OA
ATOM      5  O   UNL     1       5.533  -1.506   5.635  0.00  0.00    -0.158 OA
BRANCH   3   6
ATOM      6  C   UNL     1       6.357  -3.952   4.984  0.00  0.00    +0.220 C 
BRANCH   6   7
ATOM      7  C   UNL     1       7.275  -4.136   6.165  0.00  0.00    -0.025 A 
ATOM      8  C   UNL     1       8.633  -4.306   5.965  0.00  0.00    +0.006 A 
ATOM      9  C   UNL     1       9.475  -4.475   7.048  0.00  0.00    +0.015 A 
ATOM     10  C   UNL     1       8.960  -4.473   8.332  0.00  0.00    +0.018 A 
ATOM     11  C   UNL     1       7.601  -4.303   8.531  0.00  0.00    +0.015 A 
ATOM     12  C   UNL     1       6.761  -4.129   7.448  0.00  0.00    +0.006 A 
ATOM     13 BR   UNL     1      10.111  -4.704   9.814  0.00  0.00    -0.050 Br
ENDBRANCH   6   7
ENDBRANCH   3   6
ENDBRANCH   1   3
BRANCH   1  14
ATOM     14  C   UNL     1       3.800  -2.529   3.438  0.00  0.00    +0.103 C 
BRANCH  14  15
ATOM     15  C   UNL     1       2.993  -2.028   2.239  0.00  0.00    -0.002 C 
BRANCH  15  16
ATOM     16  C   UNL     1       1.534  -2.461   2.390  0.00  0.00    -0.078 C 
BRANCH  16  22
ATOM     17  C   UNL     1      -0.019   1.526   0.010  0.00  0.00    +0.005 C 
ATOM     18  C   UNL     1       0.002  -0.004   0.002  0.00  0.00    -0.031 C 
ATOM     19  C   UNL     1      -1.434  -0.535   0.015  0.00  0.00    +0.003 C 
ATOM     20  C   UNL     1      -1.402  -2.064   0.086  0.00  0.00    -0.031 C 
ATOM     21  C   UNL     1      -0.613  -2.496   1.324  0.00  0.00    -0.076 C 
ATOM     22  N   UNL     1       0.758  -1.980   1.239  0.00  0.00    +0.380 N 
ATOM     23  C   UNL     1       0.740  -0.512   1.242  0.00  0.00    -0.076 C 
ATOM     24  C   UNL     1      -2.832  -2.602   0.177  0.00  0.00    +0.005 C 
ATOM     25  H   UNL     1       1.188  -2.307   0.386  0.00  0.00    -0.082 HD
ENDBRANCH  16  22
ENDBRANCH  15  16
ENDBRANCH  14  15
ENDBRANCH   1  14
TORSDOF 7
