REMARK  Name = ZINC66983523
REMARK  7 active torsions:
REMARK  status: ('A' for Active; 'I' for Inactive)
REMARK    1  A    between atoms: C_1  and  C_2
REMARK    2  A    between atoms: C_2  and  O_3
REMARK    3  A    between atoms: O_3  and  C_4
REMARK    4  A    between atoms: C_7  and  C_10
REMARK    5  A    between atoms: C_10  and  C_12
REMARK    6  A    between atoms: C_10  and  N_13
REMARK    7  A    between atoms: C_22  and  C_24
REMARK                            x       y       z     vdW  Elec       q    Type
REMARK                         _______ _______ _______ _____ _____    ______ ____
ROOT
ATOM      1  N   UNL     1      -2.725  -6.164   1.876  0.00  0.00    -0.293 N 
ATOM      2  C   UNL     1      -2.843  -7.453   2.252  0.00  0.00    +0.303 C 
ATOM      3  O   UNL     1      -1.986  -8.258   1.943  0.00  0.00    -0.253 OA
ATOM      4  N   UNL     1      -3.912  -7.850   2.971  0.00  0.00    -0.283 N 
ATOM      5  C   UNL     1      -5.014  -6.918   3.250  0.00  0.00    +0.128 C 
ATOM      6  C   UNL     1      -6.324  -7.547   2.760  0.00  0.00    +0.127 C 
ATOM      7  N   UNL     1      -6.409  -8.919   3.278  0.00  0.00    -0.298 N 
ATOM      8  C   UNL     1      -5.307  -9.851   2.998  0.00  0.00    +0.127 C 
ATOM      9  C   UNL     1      -4.000  -9.225   3.484  0.00  0.00    +0.128 C 
ATOM     10  C   UNL     1      -7.478  -9.316   3.996  0.00  0.00    +0.219 C 
ATOM     11  O   UNL     1      -7.509 -10.432   4.471  0.00  0.00    -0.275 OA
ATOM     12  H   UNL     1      -3.442  -5.538   2.060  0.00  0.00    +0.151 HD
ENDROOT
BRANCH  10  13
ATOM     13  C   UNL     1      -8.634  -8.374   4.210  0.00  0.00    +0.075 C 
ATOM     14  C   UNL     1      -9.324  -8.101   2.873  0.00  0.00    +0.013 C 
ATOM     15  C   UNL     1     -10.498  -7.144   3.090  0.00  0.00    +0.001 C 
ATOM     16  C   UNL     1     -11.498  -7.776   4.060  0.00  0.00    +0.000 C 
ATOM     17  C   UNL     1     -10.808  -8.049   5.398  0.00  0.00    +0.001 C 
ATOM     18  C   UNL     1      -9.634  -9.006   5.181  0.00  0.00    +0.013 C 
ENDBRANCH  10  13
BRANCH   1  19
ATOM     19  C   UNL     1      -1.513  -5.710   1.190  0.00  0.00    +0.102 C 
ATOM     20  C   UNL     1      -1.644  -5.982  -0.310  0.00  0.00    +0.033 C 
BRANCH  19  24
ATOM     21  C   UNL     1      -0.997  -1.517   1.836  0.00  0.00    +0.121 A 
ATOM     22  C   UNL     1       0.101  -2.364   1.859  0.00  0.00    +0.046 A 
ATOM     23  C   UNL     1      -0.068  -3.719   1.650  0.00  0.00    +0.009 A 
ATOM     24  C   UNL     1      -1.331  -4.231   1.418  0.00  0.00    -0.027 A 
ATOM     25  C   UNL     1      -2.428  -3.389   1.395  0.00  0.00    +0.009 A 
ATOM     26  C   UNL     1      -2.264  -2.034   1.609  0.00  0.00    +0.046 A 
BRANCH  21  27
ATOM     27  O   UNL     1      -0.833  -0.184   2.042  0.00  0.00    -0.492 OA
BRANCH  27  29
ATOM     28  C   UNL     1       0.485   1.794   2.478  0.00  0.00    +0.048 C 
ATOM     29  C   UNL     1       0.500   0.278   2.269  0.00  0.00    +0.225 C 
ENDBRANCH  27  29
ENDBRANCH  21  27
ENDBRANCH  19  24
ENDBRANCH   1  19
TORSDOF 5
