REMARK  Name = ZINC41637765
REMARK  3 active torsions:
REMARK  status: ('A' for Active; 'I' for Inactive)
REMARK    1  A    between atoms: C_4  and  C_7
REMARK    2  A    between atoms: C_7  and  C_9
REMARK    3  A    between atoms: C_7  and  N_18
REMARK                            x       y       z     vdW  Elec       q    Type
REMARK                         _______ _______ _______ _____ _____    ______ ____
ROOT
ATOM      1  C   UNL     1       3.711  -0.707  -0.038  0.00  0.00    +0.006 C 
ENDROOT
BRANCH   1   2
ATOM      2  C   UNL     1       4.014  -1.161  -1.442  0.00  0.00    +0.050 A 
ATOM      3  C   UNL     1       5.013  -0.790  -2.253  0.00  0.00    +0.282 A 
ATOM      4  N   UNL     1       5.124  -1.322  -3.515  0.00  0.00    -0.170 N 
ATOM      5  C   UNL     1       4.183  -2.229  -3.894  0.00  0.00    +0.199 A 
ATOM      6  S   UNL     1       3.140  -2.340  -2.460  0.00  0.00    -0.050 S 
ATOM      7  N   UNL     1       4.429  -2.634  -5.111  0.00  0.00    -0.208 NA
ATOM      8  C   UNL     1       5.519  -2.019  -5.566  0.00  0.00    +0.246 A 
ATOM      9  N   UNL     1       5.978  -1.216  -4.644  0.00  0.00    -0.150 NA
ATOM     10  O   UNL     1       5.926   0.122  -1.823  0.00  0.00    -0.265 OA
ENDBRANCH   1   2
BRANCH   1  11
ATOM     11  N   UNL     1       3.630  -1.877   0.848  0.00  0.00    +0.387 N 
ATOM     12  C   UNL     1       3.242  -1.422   2.197  0.00  0.00    -0.077 C 
ATOM     13  C   UNL     1       2.584  -2.575   2.914  0.00  0.00    -0.019 C 
ATOM     14  C   UNL     1       3.588  -3.331   3.805  0.00  0.00    -0.002 C 
ATOM     15  C   UNL     1       4.957  -3.495   3.113  0.00  0.00    -0.002 C 
ATOM     16  C   UNL     1       4.824  -3.844   1.653  0.00  0.00    -0.019 C 
ATOM     17  C   UNL     1       4.855  -2.545   0.820  0.00  0.00    -0.077 C 
ATOM     18  H   UNL     1       2.914  -2.497   0.499  0.00  0.00    -0.080 HD
ENDBRANCH   1  11
BRANCH   1  22
ATOM     19  C   UNL     1      -0.017   1.378   0.010  0.00  0.00    +0.000 A 
ATOM     20  C   UNL     1       1.171   2.086   0.002  0.00  0.00    +0.000 A 
ATOM     21  C   UNL     1       2.377   1.411  -0.013  0.00  0.00    +0.002 A 
ATOM     22  C   UNL     1       2.396   0.029  -0.020  0.00  0.00    -0.056 A 
ATOM     23  C   UNL     1       1.208  -0.679  -0.012  0.00  0.00    +0.002 A 
ATOM     24  C   UNL     1       0.002  -0.004   0.002  0.00  0.00    +0.000 A 
ENDBRANCH   1  22
TORSDOF 3
