REMARK  Name = ZINC00137822
REMARK  4 active torsions:
REMARK  status: ('A' for Active; 'I' for Inactive)
REMARK    1  A    between atoms: C_6  and  C_7
REMARK    2  A    between atoms: C_9  and  C_12
REMARK    3  A    between atoms: C_12  and  S_13
REMARK    4  A    between atoms: S_13  and  C_14
REMARK                            x       y       z     vdW  Elec       q    Type
REMARK                         _______ _______ _______ _____ _____    ______ ____
ROOT
ATOM      1  C   UNL     1      -6.054   1.806  -0.532  0.00  0.00    +0.202 A 
ATOM      2  N   UNL     1      -4.857   1.411  -1.021  0.00  0.00    -0.191 NA
ATOM      3  C   UNL     1      -4.114   1.160   0.028  0.00  0.00    +0.238 A 
ATOM      4  O   UNL     1      -4.864   1.399   1.108  0.00  0.00    -0.337 OA
ATOM      5  N   UNL     1      -5.969   1.772   0.772  0.00  0.00    -0.056 NA
ENDROOT
BRANCH   1  11
ATOM      6  C   UNL     1      -7.187   2.198  -2.719  0.00  0.00    +0.013 A 
ATOM      7  C   UNL     1      -8.296   2.564  -3.454  0.00  0.00    +0.021 A 
ATOM      8  C   UNL     1      -9.460   2.947  -2.809  0.00  0.00    +0.041 A 
ATOM      9  C   UNL     1      -9.519   2.960  -1.426  0.00  0.00    +0.021 A 
ATOM     10  C   UNL     1      -8.417   2.590  -0.683  0.00  0.00    +0.013 A 
ATOM     11  C   UNL     1      -7.243   2.204  -1.327  0.00  0.00    +0.023 A 
ATOM     12 CL   UNL     1     -10.850   3.413  -3.739  0.00  0.00    -0.084 Cl
ENDBRANCH   1  11
BRANCH   3  13
ATOM     13  C   UNL     1      -2.684   0.685   0.018  0.00  0.00    +0.175 C 
BRANCH  13  14
ATOM     14  S   UNL     1      -1.574   2.115   0.021  0.00  0.00    -0.081 S 
BRANCH  14  15
ATOM     15  C   UNL     1      -0.015   1.292   0.009  0.00  0.00    +0.150 C 
ATOM     16  N   UNL     1       0.002  -0.004   0.002  0.00  0.00    -0.263 NA
ATOM     17  C   UNL     1       1.227  -0.816  -0.060  0.00  0.00    +0.149 C 
ATOM     18  C   UNL     1       2.337   0.071  -0.596  0.00  0.00    +0.031 C 
ATOM     19  C   UNL     1       3.764  -0.458  -0.426  0.00  0.00    +0.007 C 
ATOM     20  C   UNL     1       4.620   0.838  -0.476  0.00  0.00    +0.002 C 
ATOM     21  C   UNL     1       3.683   1.996  -0.051  0.00  0.00    +0.022 C 
ATOM     22  C   UNL     1       2.364   1.332   0.322  0.00  0.00    +0.077 C 
ATOM     23  N   UNL     1       1.143   2.061   0.002  0.00  0.00    -0.321 N 
ATOM     24  H   UNL     1       1.139   3.009  -0.200  0.00  0.00    +0.148 HD
ENDBRANCH  14  15
ENDBRANCH  13  14
ENDBRANCH   3  13
TORSDOF 4
