REMARK  Name = ZINC04712773
REMARK  4 active torsions:
REMARK  status: ('A' for Active; 'I' for Inactive)
REMARK    1  A    between atoms: C_1  and  C_2
REMARK    2  A    between atoms: C_5  and  C_30
REMARK    3  A    between atoms: C_10  and  C_12
REMARK    4  A    between atoms: C_15  and  C_18
REMARK                            x       y       z     vdW  Elec       q    Type
REMARK                         _______ _______ _______ _____ _____    ______ ____
ROOT
ATOM      1  C   UNL     1       3.890   3.848   0.486  0.00  0.00    +0.037 A 
ATOM      2  C   UNL     1       2.647   4.451   0.703  0.00  0.00    +0.013 A 
ATOM      3  C   UNL     1       1.500   3.727   0.548  0.00  0.00    +0.009 A 
ATOM      4  C   UNL     1       1.570   2.379   0.170  0.00  0.00    -0.024 A 
ATOM      5  C   UNL     1       2.816   1.775  -0.041  0.00  0.00    +0.009 A 
ATOM      6  C   UNL     1       3.961   2.503   0.109  0.00  0.00    +0.013 A 
ENDROOT
BRANCH   4   7
ATOM      7  C   UNL     1       0.337   1.599   0.003  0.00  0.00    +0.028 C 
ATOM      8  C   UNL     1       0.276   0.621  -0.935  0.00  0.00    +0.075 C 
ATOM      9  C   UNL     1       1.355   0.420  -1.931  0.00  0.00    +0.255 C 
ATOM     10  O   UNL     1       2.046   1.362  -2.270  0.00  0.00    -0.269 OA
ATOM     11  N   UNL     1       1.574  -0.791  -2.456  0.00  0.00    -0.280 N 
ATOM     12  C   UNL     1       0.935  -1.974  -2.110  0.00  0.00    +0.048 A 
ATOM     13  C   UNL     1       1.555  -3.182  -2.427  0.00  0.00    +0.024 A 
ATOM     14  C   UNL     1       0.958  -4.381  -2.100  0.00  0.00    +0.002 A 
ATOM     15  C   UNL     1      -0.265  -4.404  -1.452  0.00  0.00    +0.001 A 
ATOM     16  C   UNL     1      -0.894  -3.216  -1.131  0.00  0.00    +0.017 A 
ATOM     17  C   UNL     1      -0.299  -2.007  -1.457  0.00  0.00    +0.034 A 
ATOM     18  S   UNL     1      -1.104  -0.488  -1.046  0.00  0.00    -0.082 S 
ATOM     19  H   UNL     1       2.328  -0.920  -3.246  0.00  0.00    +0.155 HD
ENDBRANCH   4   7
BRANCH   1  27
ATOM     20  C   UNL     1       7.902   8.430  -0.399  0.00  0.00    +0.009 C 
ATOM     21  C   UNL     1       6.748   7.469  -0.687  0.00  0.00    +0.004 C 
ATOM     22  C   UNL     1       5.556   8.252  -1.241  0.00  0.00    +0.009 C 
ATOM     23  C   UNL     1       4.412   7.287  -1.561  0.00  0.00    +0.004 C 
ATOM     24  C   UNL     1       3.974   6.579  -0.280  0.00  0.00    +0.111 C 
ATOM     25  N   UNL     1       5.144   5.944   0.341  0.00  0.00    -0.297 N 
ATOM     26  C   UNL     1       6.333   6.764   0.608  0.00  0.00    +0.111 C 
ATOM     27  C   UNL     1       5.129   4.633   0.654  0.00  0.00    +0.247 C 
ATOM     28  O   UNL     1       6.136   4.097   1.074  0.00  0.00    -0.270 OA
ATOM     29  C   UNL     1       3.233   8.067  -2.145  0.00  0.00    +0.009 C 
ENDBRANCH   1  27
TORSDOF 2
