REMARK  Name = ZINC39483339
REMARK  5 active torsions:
REMARK  status: ('A' for Active; 'I' for Inactive)
REMARK    1  A    between atoms: C_1  and  C_2
REMARK    2  A    between atoms: C_2  and  C_3
REMARK    3  A    between atoms: C_3  and  C_4
REMARK    4  A    between atoms: C_19  and  C_20
REMARK    5  A    between atoms: C_22  and  O_27
REMARK                            x       y       z     vdW  Elec       q    Type
REMARK                         _______ _______ _______ _____ _____    ______ ____
ROOT
ATOM      1  C   UNL     1      -0.466  -1.756   0.026  0.00  0.00    -0.021 A 
ATOM      2  C   UNL     1      -0.316  -2.372  -1.196  0.00  0.00    +0.006 A 
ATOM      3  C   UNL     1      -0.247  -3.756  -1.290  0.00  0.00    +0.001 A 
ATOM      4  C   UNL     1      -0.321  -4.541  -0.160  0.00  0.00    +0.015 A 
ATOM      5  C   UNL     1      -0.468  -3.939   1.087  0.00  0.00    +0.065 A 
ATOM      6  C   UNL     1      -0.546  -2.530   1.188  0.00  0.00    +0.082 A 
ATOM      7  N   UNL     1      -0.716  -1.972   2.398  0.00  0.00    -0.229 NA
ATOM      8  C   UNL     1      -0.772  -2.688   3.502  0.00  0.00    +0.140 A 
ATOM      9  N   UNL     1      -0.622  -4.052   3.504  0.00  0.00    -0.293 N 
ATOM     10  C   UNL     1      -0.539  -4.724   2.325  0.00  0.00    +0.262 A 
ATOM     11  O   UNL     1      -0.512  -5.941   2.298  0.00  0.00    -0.267 OA
ATOM     12  C   UNL     1      -0.515  -4.820   4.738  0.00  0.00    +0.127 C 
ATOM     13  C   UNL     1      -1.196  -4.175   5.923  0.00  0.00    +0.026 C 
ATOM     14  C   UNL     1      -0.847  -2.705   6.074  0.00  0.00    +0.040 C 
ATOM     15  C   UNL     1      -1.022  -1.985   4.768  0.00  0.00    -0.004 C 
ATOM     16  C   UNL     1      -1.408  -0.694   4.757  0.00  0.00    +0.015 C 
ENDROOT
BRANCH  16  17
ATOM     17  C   UNL     1      -1.502   0.058   6.020  0.00  0.00    -0.019 A 
ATOM     18  C   UNL     1      -2.480   1.044   6.178  0.00  0.00    +0.053 A 
ATOM     19  C   UNL     1      -2.562   1.746   7.368  0.00  0.00    +0.120 A 
ATOM     20  C   UNL     1      -1.677   1.472   8.401  0.00  0.00    +0.083 A 
ATOM     21  C   UNL     1      -0.706   0.495   8.248  0.00  0.00    +0.127 A 
ATOM     22  C   UNL     1      -0.618  -0.217   7.067  0.00  0.00    +0.046 A 
ATOM     23  F   UNL     1       0.152   0.234   9.258  0.00  0.00    -0.205 F 
BRANCH  19  24
ATOM     24  O   UNL     1      -3.512   2.706   7.524  0.00  0.00    -0.507 OA
ATOM     25  H   UNL     1      -4.346   2.379   7.888  0.00  0.00    +0.292 HD
ENDBRANCH  19  24
ENDBRANCH  16  17
BRANCH   1  26
ATOM     26  C   UNL     1      -0.538  -0.253   0.111  0.00  0.00    +0.037 C 
BRANCH  26  28
ATOM     27  C   UNL     1       0.781   1.835   0.491  0.00  0.00    +0.004 C 
ATOM     28  C   UNL     1       0.854   0.309   0.404  0.00  0.00    +0.001 C 
ENDBRANCH  26  28
ENDBRANCH   1  26
TORSDOF 4
