REMARK  Name = ZINC09593260
REMARK  9 active torsions:
REMARK  status: ('A' for Active; 'I' for Inactive)
REMARK    1  A    between atoms: C_1  and  C_2
REMARK    2  A    between atoms: C_2  and  C_3
REMARK    3  A    between atoms: C_2  and  C_4
REMARK    4  A    between atoms: C_4  and  C_6
REMARK    5  A    between atoms: C_4  and  N_19
REMARK    6  A    between atoms: C_13  and  C_14
REMARK    7  A    between atoms: C_13  and  N_61
REMARK    8  A    between atoms: N_19  and  S_20
REMARK    9  A    between atoms: S_20  and  C_23
REMARK                            x       y       z     vdW  Elec       q    Type
REMARK                         _______ _______ _______ _____ _____    ______ ____
ROOT
ATOM      1  C   UNL     1       4.547  -0.050  -2.599  0.00  0.00    +0.165 C 
ENDROOT
BRANCH   1   2
ATOM      2  C   UNL     1       5.576  -0.717  -3.474  0.00  0.00    +0.234 C 
ATOM      3  O   UNL     1       5.949  -1.844  -3.222  0.00  0.00    -0.274 OA
ATOM      4  N   UNL     1       6.083  -0.063  -4.538  0.00  0.00    -0.304 N 
ATOM      5  C   UNL     1       5.713   1.334  -4.811  0.00  0.00    +0.089 C 
ATOM      6  C   UNL     1       7.004   2.146  -5.003  0.00  0.00    -0.059 C 
ATOM      7  C   UNL     1       8.251   0.163  -5.630  0.00  0.00    -0.059 C 
ATOM      8  C   UNL     1       7.016  -0.728  -5.460  0.00  0.00    +0.089 C 
ATOM      9  N   UNL     1       7.811   1.506  -6.065  0.00  0.00    +0.385 N 
ATOM     10  H   UNL     1       7.234   1.410  -6.909  0.00  0.00    -0.081 HD
BRANCH   9  11
ATOM     11  C   UNL     1       8.986   2.345  -6.379  0.00  0.00    -0.035 C 
BRANCH  11  12
ATOM     12  C   UNL     1       8.541   3.773  -6.554  0.00  0.00    -0.027 A 
ATOM     13  C   UNL     1       8.454   4.760  -5.629  0.00  0.00    +0.009 A 
ATOM     14  C   UNL     1       8.017   6.011  -6.022  0.00  0.00    +0.008 A 
ATOM     15  C   UNL     1       7.678   6.212  -7.319  0.00  0.00    +0.045 A 
ATOM     16  S   UNL     1       7.982   4.604  -8.033  0.00  0.00    -0.103 S 
ENDBRANCH  11  12
ENDBRANCH   9  11
ENDBRANCH   1   2
BRANCH   1  18
ATOM     17  C   UNL     1       2.675  -1.403  -3.553  0.00  0.00    +0.009 C 
ATOM     18  C   UNL     1       3.211   0.015  -3.342  0.00  0.00    +0.010 C 
ATOM     19  C   UNL     1       2.207   0.822  -2.516  0.00  0.00    +0.009 C 
ENDBRANCH   1  18
BRANCH   1  20
ATOM     20  N   UNL     1       4.382  -0.821  -1.364  0.00  0.00    -0.178 NA
ATOM     21  H   UNL     1       3.787  -1.586  -1.346  0.00  0.00    +0.149 HD
BRANCH  20  22
ATOM     22  S   UNL     1       5.212  -0.385   0.001  0.00  0.00    +0.059 S 
ATOM     23  O   UNL     1       6.563  -0.186  -0.392  0.00  0.00    -0.153 OA
ATOM     24  O   UNL     1       4.842  -1.310   1.014  0.00  0.00    -0.153 OA
BRANCH  22  25
ATOM     25  C   UNL     1       4.597   1.188   0.505  0.00  0.00    +0.109 A 
ATOM     26  C   UNL     1       3.461   1.265   1.289  0.00  0.00    +0.032 A 
ATOM     27  C   UNL     1       2.975   2.497   1.685  0.00  0.00    +0.051 A 
ATOM     28  C   UNL     1       3.626   3.659   1.296  0.00  0.00    +0.162 A 
ATOM     29  C   UNL     1       4.769   3.580   0.509  0.00  0.00    +0.164 A 
ATOM     30  C   UNL     1       5.251   2.341   0.115  0.00  0.00    +0.078 A 
ATOM     31  O   UNL     1       5.427   4.707   0.123  0.00  0.00    -0.485 OA
ATOM     32  C   UNL     1       4.706   5.940   0.224  0.00  0.00    +0.270 C 
ATOM     33  C   UNL     1       4.018   5.984   1.595  0.00  0.00    +0.270 C 
ATOM     34  O   UNL     1       3.130   4.864   1.687  0.00  0.00    -0.485 OA
ENDBRANCH  22  25
ENDBRANCH  20  22
ENDBRANCH   1  20
TORSDOF 7
