REMARK  Name = ZINC47524011
REMARK  7 active torsions:
REMARK  status: ('A' for Active; 'I' for Inactive)
REMARK    1  A    between atoms: C_1  and  C_2
REMARK    2  A    between atoms: C_2  and  C_3
REMARK    3  A    between atoms: C_2  and  C_4
REMARK    4  A    between atoms: C_2  and  O_5
REMARK    5  A    between atoms: O_5  and  C_6
REMARK    6  A    between atoms: N_8  and  C_9
REMARK    7  A    between atoms: C_15  and  C_17
REMARK                            x       y       z     vdW  Elec       q    Type
REMARK                         _______ _______ _______ _____ _____    ______ ____
ROOT
ATOM      1  C   UNL     1       3.885  -0.073  -2.779  0.00  0.00    +0.079 C 
ATOM      2  C   UNL     1       4.001   1.329  -3.382  0.00  0.00    +0.041 C 
ATOM      3  C   UNL     1       5.478   1.730  -3.452  0.00  0.00    +0.110 C 
ATOM      4  N   UNL     1       6.214   0.694  -4.188  0.00  0.00    -0.297 N 
ATOM      5  C   UNL     1       6.099  -0.703  -3.747  0.00  0.00    +0.110 C 
ATOM      6  C   UNL     1       4.616  -1.076  -3.674  0.00  0.00    +0.041 C 
ATOM      7  C   UNL     1       6.981   1.019  -5.248  0.00  0.00    +0.247 C 
ATOM      8  O   UNL     1       6.993   2.161  -5.662  0.00  0.00    -0.270 OA
ENDROOT
BRANCH   7   9
ATOM      9  C   UNL     1       7.809  -0.018  -5.910  0.00  0.00    +0.051 A 
ATOM     10  C   UNL     1       7.258  -0.877  -6.818  0.00  0.00    +0.083 A 
ATOM     11  C   UNL     1       8.101  -1.888  -7.453  0.00  0.00    +0.250 A 
ATOM     12  N   UNL     1       9.408  -1.985  -7.157  0.00  0.00    -0.322 N 
ATOM     13  C   UNL     1      10.002  -1.138  -6.247  0.00  0.00    +0.050 A 
ATOM     14  C   UNL     1       9.243  -0.141  -5.607  0.00  0.00    +0.011 A 
ATOM     15  C   UNL     1       9.854   0.717  -4.689  0.00  0.00    +0.011 A 
ATOM     16  C   UNL     1      11.188   0.587  -4.421  0.00  0.00    +0.001 A 
ATOM     17  C   UNL     1      11.942  -0.391  -5.053  0.00  0.00    +0.002 A 
ATOM     18  C   UNL     1      11.358  -1.255  -5.954  0.00  0.00    +0.026 A 
ATOM     19  O   UNL     1       7.610  -2.654  -8.263  0.00  0.00    -0.268 OA
ATOM     20  H   UNL     1       9.945  -2.666  -7.593  0.00  0.00    +0.169 HD
ENDBRANCH   7   9
BRANCH   1  23
ATOM     21  C   UNL     1       1.747  -0.065  -1.609  0.00  0.00    +0.401 C 
ATOM     22  O   UNL     1       2.267   0.589  -0.726  0.00  0.00    -0.226 OA
ATOM     23  N   UNL     1       2.471  -0.446  -2.680  0.00  0.00    -0.278 N 
ATOM     24  H   UNL     1       2.057  -0.967  -3.385  0.00  0.00    +0.152 HD
BRANCH  21  25
ATOM     25  O   UNL     1       0.449  -0.408  -1.518  0.00  0.00    -0.445 OA
BRANCH  25  27
ATOM     26  C   UNL     1      -0.231   1.558  -0.288  0.00  0.00    +0.055 C 
ATOM     27  C   UNL     1      -0.258   0.030  -0.356  0.00  0.00    +0.107 C 
ATOM     28  C   UNL     1       0.408  -0.548   0.894  0.00  0.00    +0.055 C 
ATOM     29  C   UNL     1      -1.708  -0.452  -0.429  0.00  0.00    +0.055 C 
ENDBRANCH  25  27
ENDBRANCH  21  25
ENDBRANCH   1  23
TORSDOF 4
