REMARK  Name = ZINC33718284
REMARK  10 active torsions:
REMARK  status: ('A' for Active; 'I' for Inactive)
REMARK    1  A    between atoms: C_1  and  O_2
REMARK    2  A    between atoms: O_2  and  C_3
REMARK    3  A    between atoms: C_3  and  C_4
REMARK    4  A    between atoms: C_4  and  C_5
REMARK    5  A    between atoms: C_5  and  N_6
REMARK    6  A    between atoms: N_6  and  S_7
REMARK    7  A    between atoms: S_7  and  C_10
REMARK    8  A    between atoms: C_13  and  N_16
REMARK    9  A    between atoms: N_16  and  S_17
REMARK   10  A    between atoms: S_17  and  C_20
REMARK                            x       y       z     vdW  Elec       q    Type
REMARK                         _______ _______ _______ _____ _____    ______ ____
ROOT
ATOM      1  C   UNL     1      -4.921  -4.929  -0.871  0.00  0.00    +0.105 A 
ATOM      2  C   UNL     1      -5.865  -3.929  -0.725  0.00  0.00    +0.030 A 
ATOM      3  C   UNL     1      -6.818  -3.729  -1.704  0.00  0.00    +0.028 A 
ATOM      4  C   UNL     1      -6.827  -4.533  -2.837  0.00  0.00    +0.074 A 
ATOM      5  C   UNL     1      -5.877  -5.536  -2.981  0.00  0.00    +0.028 A 
ATOM      6  C   UNL     1      -4.923  -5.727  -2.000  0.00  0.00    +0.030 A 
ENDROOT
BRANCH   1   7
ATOM      7  S   UNL     1      -3.707  -5.181   0.381  0.00  0.00    +0.058 S 
ATOM      8  O   UNL     1      -3.271  -6.528   0.258  0.00  0.00    -0.153 OA
ATOM      9  O   UNL     1      -4.253  -4.664   1.586  0.00  0.00    -0.153 OA
BRANCH   7  10
ATOM     10  N   UNL     1      -2.408  -4.226   0.002  0.00  0.00    -0.190 NA
ATOM     11  H   UNL     1      -1.557  -4.633  -0.225  0.00  0.00    +0.148 HD
BRANCH  10  12
ATOM     12  C   UNL     1      -2.543  -2.768   0.011  0.00  0.00    +0.108 C 
BRANCH  12  13
ATOM     13  C   UNL     1      -1.154  -2.126   0.002  0.00  0.00    +0.045 C 
BRANCH  13  14
ATOM     14  C   UNL     1      -1.295  -0.603   0.011  0.00  0.00    +0.160 C 
BRANCH  14  16
ATOM     15  C   UNL     1      -0.017   1.425   0.010  0.00  0.00    +0.193 C 
ATOM     16  O   UNL     1       0.002  -0.004   0.002  0.00  0.00    -0.383 OA
ENDBRANCH  14  16
ENDBRANCH  13  14
ENDBRANCH  12  13
ENDBRANCH  10  12
ENDBRANCH   7  10
ENDBRANCH   1   7
BRANCH   4  17
ATOM     17  N   UNL     1      -7.790  -4.333  -3.829  0.00  0.00    -0.098 NA
BRANCH  17  18
ATOM     18  S   UNL     1      -7.799  -5.292  -5.179  0.00  0.00    +0.092 S 
ATOM     19  O   UNL     1      -6.605  -5.000  -5.893  0.00  0.00    -0.148 OA
ATOM     20  O   UNL     1      -8.123  -6.605  -4.742  0.00  0.00    -0.148 OA
BRANCH  18  21
ATOM     21  C   UNL     1      -9.136  -4.753  -6.192  0.00  0.00    +0.110 A 
ATOM     22  C   UNL     1     -10.392  -5.309  -6.032  0.00  0.00    +0.030 A 
ATOM     23  C   UNL     1     -11.441  -4.887  -6.827  0.00  0.00    +0.017 A 
ATOM     24  C   UNL     1     -11.235  -3.907  -7.781  0.00  0.00    +0.018 A 
ATOM     25  C   UNL     1      -9.978  -3.351  -7.940  0.00  0.00    +0.017 A 
ATOM     26  C   UNL     1      -8.931  -3.771  -7.142  0.00  0.00    +0.030 A 
ATOM     27 BR   UNL     1     -12.670  -3.329  -8.868  0.00  0.00    -0.050 Br
ENDBRANCH  18  21
ENDBRANCH  17  18
ENDBRANCH   4  17
TORSDOF 9
