REMARK  Name = ZINC24758366
REMARK  7 active torsions:
REMARK  status: ('A' for Active; 'I' for Inactive)
REMARK    1  A    between atoms: C_1  and  O_2
REMARK    2  A    between atoms: O_2  and  C_3
REMARK    3  A    between atoms: C_3  and  C_5
REMARK    4  A    between atoms: C_12  and  C_17
REMARK    5  A    between atoms: C_17  and  S_18
REMARK    6  A    between atoms: S_18  and  C_19
REMARK    7  A    between atoms: N_27  and  C_28
REMARK                            x       y       z     vdW  Elec       q    Type
REMARK                         _______ _______ _______ _____ _____    ______ ____
ROOT
ATOM      1  C   UNL     1       2.662  -6.656  -4.547  0.00  0.00    +0.151 C 
ENDROOT
BRANCH   1   9
ATOM      2  C   UNL     1       0.658  -2.078  -1.122  0.00  0.00    +0.061 A 
ATOM      3  C   UNL     1       0.085  -2.849  -0.103  0.00  0.00    +0.016 A 
ATOM      4  C   UNL     1       0.129  -4.214  -0.156  0.00  0.00    +0.016 A 
ATOM      5  C   UNL     1       0.749  -4.846  -1.232  0.00  0.00    +0.065 A 
ATOM      6  C   UNL     1       1.333  -4.083  -2.267  0.00  0.00    +0.079 A 
ATOM      7  C   UNL     1       1.277  -2.690  -2.206  0.00  0.00    +0.043 A 
ATOM      8  N   UNL     1       1.931  -4.726  -3.302  0.00  0.00    -0.233 NA
ATOM      9  C   UNL     1       1.979  -6.021  -3.363  0.00  0.00    +0.121 A 
ATOM     10  N   UNL     1       1.446  -6.835  -2.414  0.00  0.00    -0.310 N 
ATOM     11  H   UNL     1       1.513  -7.797  -2.513  0.00  0.00    +0.170 HD
ATOM     12  C   UNL     1       0.822  -6.314  -1.332  0.00  0.00    +0.259 A 
ATOM     13  O   UNL     1       0.340  -7.031  -0.475  0.00  0.00    -0.267 OA
BRANCH   2  14
ATOM     14  C   UNL     1       0.600  -0.602  -1.046  0.00  0.00    +0.339 C 
ATOM     15  O   UNL     1       1.092   0.071  -1.929  0.00  0.00    -0.245 OA
BRANCH  14  17
ATOM     16  C   UNL     1      -0.017   1.425   0.010  0.00  0.00    +0.280 C 
ATOM     17  O   UNL     1       0.002  -0.004   0.002  0.00  0.00    -0.464 OA
ENDBRANCH  14  17
ENDBRANCH   2  14
ENDBRANCH   1   9
BRANCH   1  18
ATOM     18  S   UNL     1       3.281  -5.360  -5.655  0.00  0.00    -0.080 S 
BRANCH  18  19
ATOM     19  C   UNL     1       4.041  -6.252  -6.971  0.00  0.00    +0.171 A 
ATOM     20  N   UNL     1       4.100  -7.558  -7.061  0.00  0.00    -0.222 NA
ATOM     21  C   UNL     1       4.754  -7.908  -8.199  0.00  0.00    +0.090 A 
ATOM     22  C   UNL     1       5.090  -9.136  -8.773  0.00  0.00    +0.030 A 
ATOM     23  C   UNL     1       5.775  -9.168  -9.967  0.00  0.00    +0.002 A 
ATOM     24  C   UNL     1       6.135  -7.990 -10.604  0.00  0.00    +0.002 A 
ATOM     25  C   UNL     1       5.811  -6.769 -10.050  0.00  0.00    +0.028 A 
ATOM     26  C   UNL     1       5.121  -6.718  -8.848  0.00  0.00    +0.070 A 
ATOM     27  N   UNL     1       4.653  -5.684  -8.053  0.00  0.00    -0.316 N 
BRANCH  27  28
ATOM     28  C   UNL     1       4.791  -4.251  -8.320  0.00  0.00    +0.090 C 
ATOM     29  C   UNL     1       5.574  -3.593  -7.182  0.00  0.00    +0.025 C 
ATOM     30  C   UNL     1       5.719  -2.095  -7.462  0.00  0.00    +0.002 C 
ATOM     31  C   UNL     1       4.331  -1.459  -7.561  0.00  0.00    +0.000 C 
ATOM     32  C   UNL     1       3.548  -2.117  -8.699  0.00  0.00    +0.002 C 
ATOM     33  C   UNL     1       3.404  -3.614  -8.419  0.00  0.00    +0.025 C 
ENDBRANCH  27  28
ENDBRANCH  18  19
ENDBRANCH   1  18
TORSDOF 6
