REMARK  Name = ZINC17080413
REMARK  8 active torsions:
REMARK  status: ('A' for Active; 'I' for Inactive)
REMARK    1  A    between atoms: C_1  and  C_2
REMARK    2  A    between atoms: C_4  and  C_30
REMARK    3  A    between atoms: C_5  and  N_9
REMARK    4  A    between atoms: C_6  and  C_8
REMARK    5  A    between atoms: C_10  and  C_12
REMARK    6  A    between atoms: C_12  and  C_28
REMARK    7  A    between atoms: C_13  and  C_14
REMARK    8  A    between atoms: N_26  and  C_27
REMARK                            x       y       z     vdW  Elec       q    Type
REMARK                         _______ _______ _______ _____ _____    ______ ____
ROOT
ATOM      1  C   UNL     1       0.292  10.257   0.618  0.00  0.00    +0.114 C 
ATOM      2  C   UNL     1      -0.009   9.045   1.200  0.00  0.00    +0.032 C 
ENDROOT
BRANCH   2   3
ATOM      3  C   UNL     1       0.953   7.943   1.136  0.00  0.00    -0.023 A 
ATOM      4  C   UNL     1       0.500   6.613   1.105  0.00  0.00    +0.010 A 
ATOM      5  C   UNL     1       1.387   5.582   1.045  0.00  0.00    +0.027 A 
ATOM      6  C   UNL     1       2.760   5.831   1.014  0.00  0.00    +0.050 A 
ATOM      7  C   UNL     1       3.226   7.158   1.045  0.00  0.00    +0.008 A 
ATOM      8  C   UNL     1       2.326   8.211   1.106  0.00  0.00    +0.018 A 
ATOM      9  C   UNL     1       4.699   7.083   1.001  0.00  0.00    +0.008 A 
ATOM     10  C   UNL     1       5.708   8.043   1.004  0.00  0.00    +0.010 A 
ATOM     11  C   UNL     1       7.028   7.648   0.960  0.00  0.00    +0.001 A 
ATOM     12  C   UNL     1       7.353   6.301   0.900  0.00  0.00    +0.002 A 
ATOM     13  C   UNL     1       6.363   5.342   0.896  0.00  0.00    +0.026 A 
ATOM     14  C   UNL     1       5.025   5.720   0.946  0.00  0.00    +0.050 A 
ATOM     15  N   UNL     1       3.850   4.989   0.955  0.00  0.00    -0.343 N 
ATOM     16  C   UNL     1       3.776   3.527   0.909  0.00  0.00    +0.149 C 
ENDBRANCH   2   3
BRANCH   1  18
ATOM     17  N   UNL     1      -0.298  12.599   0.256  0.00  0.00    -0.280 N 
ATOM     18  C   UNL     1      -0.593  11.414   0.826  0.00  0.00    +0.259 C 
ATOM     19  O   UNL     1      -1.591  11.300   1.512  0.00  0.00    -0.269 OA
ATOM     20  H   UNL     1       0.453  12.671  -0.353  0.00  0.00    +0.155 HD
BRANCH  17  25
ATOM     21  C   UNL     1      -3.451  17.168   1.425  0.00  0.00    +0.044 C 
ATOM     22  C   UNL     1      -2.613  15.954   1.115  0.00  0.00    -0.050 A 
ATOM     23  C   UNL     1      -3.209  14.818   0.599  0.00  0.00    +0.008 A 
ATOM     24  C   UNL     1      -2.445  13.704   0.313  0.00  0.00    -0.029 A 
ATOM     25  C   UNL     1      -1.075  13.726   0.544  0.00  0.00    +0.040 A 
ATOM     26  C   UNL     1      -0.480  14.866   1.068  0.00  0.00    -0.029 A 
ATOM     27  C   UNL     1      -1.250  15.979   1.346  0.00  0.00    +0.008 A 
ATOM     28  C   UNL     1       1.004  14.892   1.325  0.00  0.00    +0.045 C 
ATOM     29  C   UNL     1      -3.095  12.466  -0.249  0.00  0.00    +0.045 C 
ENDBRANCH  17  25
ENDBRANCH   1  18
BRANCH   1  30
ATOM     30  C   UNL     1       1.467  10.391  -0.190  0.00  0.00    +0.104 C 
ATOM     31  N   UNL     1       2.399  10.498  -0.831  0.00  0.00    -0.191 NA
ENDBRANCH   1  30
TORSDOF 4
