REMARK  Name = ZINC41641326
REMARK  9 active torsions:
REMARK  status: ('A' for Active; 'I' for Inactive)
REMARK    1  A    between atoms: C_1  and  C_2
REMARK    2  A    between atoms: C_2  and  C_4
REMARK    3  A    between atoms: C_2  and  N_12
REMARK    4  A    between atoms: N_12  and  C_13
REMARK    5  A    between atoms: C_13  and  C_14
REMARK    6  A    between atoms: C_14  and  N_15
REMARK    7  A    between atoms: C_16  and  C_18
REMARK    8  A    between atoms: C_18  and  C_19
REMARK    9  A    between atoms: C_18  and  C_20
REMARK                            x       y       z     vdW  Elec       q    Type
REMARK                         _______ _______ _______ _____ _____    ______ ____
ROOT
ATOM      1  N   UNL     1       0.713  -0.491   1.192  0.00  0.00    +0.384 N 
ATOM      2  H   UNL     1       0.290  -0.099   2.020  0.00  0.00    -0.085 HD
ATOM      3  H   UNL     1       0.655  -1.497   1.230  0.00  0.00    -0.085 HD
ENDROOT
BRANCH   1   5
ATOM      4  C   UNL     1      -0.019   1.526   0.010  0.00  0.00    -0.009 C 
ATOM      5  C   UNL     1       0.002  -0.004   0.002  0.00  0.00    -0.043 C 
BRANCH   5   6
ATOM      6  C   UNL     1      -1.412  -0.526   0.013  0.00  0.00    -0.048 A 
ATOM      7  C   UNL     1      -2.015  -0.864   1.210  0.00  0.00    +0.004 A 
ATOM      8  C   UNL     1      -3.311  -1.342   1.220  0.00  0.00    +0.015 A 
ATOM      9  C   UNL     1      -4.007  -1.482   0.033  0.00  0.00    +0.019 A 
ATOM     10  C   UNL     1      -3.404  -1.144  -1.165  0.00  0.00    +0.030 A 
ATOM     11  C   UNL     1      -2.108  -0.661  -1.175  0.00  0.00    +0.021 A 
ATOM     12 BR   UNL     1      -1.286  -0.191  -2.812  0.00  0.00    -0.050 Br
ATOM     13 BR   UNL     1      -5.781  -2.137   0.047  0.00  0.00    -0.050 Br
ENDBRANCH   5   6
ENDBRANCH   1   5
BRANCH   1  14
ATOM     14  C   UNL     1       2.122  -0.083   1.122  0.00  0.00    -0.063 C 
BRANCH  14  15
ATOM     15  C   UNL     1       2.862  -0.589   2.361  0.00  0.00    +0.085 C 
BRANCH  15  16
ATOM     16  N   UNL     1       4.268  -0.182   2.292  0.00  0.00    -0.317 N 
ATOM     17  C   UNL     1       5.117  -0.520   3.282  0.00  0.00    +0.216 C 
ATOM     18  O   UNL     1       4.718  -1.161   4.231  0.00  0.00    -0.276 OA
ATOM     19  H   UNL     1       4.587   0.330   1.532  0.00  0.00    +0.149 HD
BRANCH  17  20
ATOM     20  C   UNL     1       6.563  -0.101   3.210  0.00  0.00    +0.069 C 
ATOM     21  C   UNL     1       7.303  -0.608   4.450  0.00  0.00    +0.017 C 
ATOM     22  C   UNL     1       7.204  -0.696   1.955  0.00  0.00    +0.017 C 
ENDBRANCH  17  20
ENDBRANCH  15  16
ENDBRANCH  14  15
ENDBRANCH   1  14
TORSDOF 6
