REMARK  Name = ZINC39237625
REMARK  4 active torsions:
REMARK  status: ('A' for Active; 'I' for Inactive)
REMARK    1  A    between atoms: C_1  and  C_2
REMARK    2  A    between atoms: C_4  and  C_31
REMARK    3  A    between atoms: C_16  and  C_19
REMARK    4  A    between atoms: C_24  and  C_25
REMARK                            x       y       z     vdW  Elec       q    Type
REMARK                         _______ _______ _______ _____ _____    ______ ____
ROOT
ATOM      1  C   UNL     1      -0.352   2.185  -0.363  0.00  0.00    +0.044 C 
ATOM      2  C   UNL     1      -0.302   0.705  -0.640  0.00  0.00    -0.041 A 
ATOM      3  C   UNL     1      -0.411   0.236  -1.937  0.00  0.00    +0.036 A 
ATOM      4  C   UNL     1      -0.362  -1.121  -2.186  0.00  0.00    +0.145 A 
ATOM      5  N   UNL     1      -0.187  -1.967  -1.188  0.00  0.00    -0.236 NA
ATOM      6  C   UNL     1      -0.065  -1.560   0.057  0.00  0.00    +0.103 A 
ATOM      7  C   UNL     1      -0.140  -0.200   0.410  0.00  0.00    +0.006 A 
ATOM      8  C   UNL     1      -0.086   0.056   1.868  0.00  0.00    +0.110 C 
ATOM      9  C   UNL     1       0.730  -1.029   2.625  0.00  0.00    +0.160 C 
ATOM     10  S   UNL     1       0.238  -2.455   1.572  0.00  0.00    -0.091 S 
ATOM     11  C   UNL     1       0.051  -1.076   3.978  0.00  0.00    +0.229 C 
ATOM     12  O   UNL     1      -0.188  -2.110   4.565  0.00  0.00    -0.274 OA
ATOM     13  N   UNL     1      -0.266   0.151   4.474  0.00  0.00    -0.298 N 
ATOM     14  C   UNL     1       0.154   1.395   3.851  0.00  0.00    +0.156 C 
ATOM     15  N   UNL     1       0.237   1.351   2.394  0.00  0.00    -0.289 NA
ATOM     16  H   UNL     1      -0.800   0.198   5.283  0.00  0.00    +0.150 HD
ATOM     17  H   UNL     1       1.149   1.651   2.081  0.00  0.00    +0.124 HD
ENDROOT
BRANCH  14  18
ATOM     18  C   UNL     1      -0.834   2.493   4.249  0.00  0.00    +0.118 C 
ATOM     19  C   UNL     1      -2.205   2.215   3.666  0.00  0.00    +0.120 C 
ATOM     20  N   UNL     1      -2.470   3.209   2.882  0.00  0.00    -0.161 NA
ATOM     21  N   UNL     1      -1.445   4.149   2.849  0.00  0.00    -0.153 NA
ATOM     22  C   UNL     1      -0.443   3.817   3.621  0.00  0.00    +0.082 C 
BRANCH  22  23
ATOM     23  C   UNL     1       0.804   4.567   3.836  0.00  0.00    -0.001 A 
ATOM     24  C   UNL     1       1.723   4.143   4.801  0.00  0.00    +0.010 A 
ATOM     25  C   UNL     1       2.889   4.852   4.997  0.00  0.00    +0.001 A 
ATOM     26  C   UNL     1       3.151   5.981   4.241  0.00  0.00    +0.000 A 
ATOM     27  C   UNL     1       2.247   6.408   3.284  0.00  0.00    +0.001 A 
ATOM     28  C   UNL     1       1.080   5.706   3.072  0.00  0.00    +0.010 A 
ENDBRANCH  22  23
ENDBRANCH  14  18
BRANCH   4  29
ATOM     29  C   UNL     1      -0.508  -1.635  -3.595  0.00  0.00    +0.434 C 
ATOM     30  F   UNL     1       0.753  -1.717  -4.195  0.00  0.00    -0.164 F 
ATOM     31  F   UNL     1      -1.096  -2.905  -3.569  0.00  0.00    -0.164 F 
ATOM     32  F   UNL     1      -1.317  -0.761  -4.329  0.00  0.00    -0.164 F 
ENDBRANCH   4  29
TORSDOF 3
