REMARK  Name = ZINC39466101
REMARK  8 active torsions:
REMARK  status: ('A' for Active; 'I' for Inactive)
REMARK    1  A    between atoms: C_1  and  C_2
REMARK    2  A    between atoms: C_2  and  C_3
REMARK    3  A    between atoms: C_2  and  S_4
REMARK    4  A    between atoms: S_4  and  P_7
REMARK    5  A    between atoms: C_15  and  O_30
REMARK    6  A    between atoms: C_16  and  C_23
REMARK    7  A    between atoms: C_23  and  C_24
REMARK    8  A    between atoms: O_30  and  C_31
REMARK                            x       y       z     vdW  Elec       q    Type
REMARK                         _______ _______ _______ _____ _____    ______ ____
ROOT
ATOM      1  P   UNL     1      -2.582   0.150  -1.747  0.00  0.00    +0.419 P 
ATOM      2  O   UNL     1      -2.592   1.629  -1.700  0.00  0.00    -0.246 OA
ATOM      3  N   UNL     1      -4.121  -0.429  -1.921  0.00  0.00    -0.161 NA
ATOM      4  N   UNL     1      -4.246  -1.705  -2.425  0.00  0.00    -0.224 NA
ATOM      5  C   UNL     1      -5.669  -2.061  -2.534  0.00  0.00    +0.108 C 
ATOM      6  C   UNL     1      -5.783  -3.567  -2.770  0.00  0.00    +0.052 C 
ATOM      7  C   UNL     1      -4.903  -3.967  -3.927  0.00  0.00    -0.038 A 
ATOM      8  C   UNL     1      -5.145  -5.179  -4.553  0.00  0.00    +0.050 A 
ATOM      9  C   UNL     1      -4.358  -5.583  -5.620  0.00  0.00    +0.124 A 
ATOM     10  C   UNL     1      -3.325  -4.767  -6.059  0.00  0.00    -0.001 A 
ATOM     11  C   UNL     1      -3.089  -3.562  -5.432  0.00  0.00    +0.013 A 
ATOM     12  C   UNL     1      -3.877  -3.157  -4.364  0.00  0.00    -0.023 A 
ATOM     13  C   UNL     1      -3.574  -1.830  -3.718  0.00  0.00    +0.129 C 
ATOM     14  C   UNL     1      -2.057  -1.683  -3.566  0.00  0.00    +0.195 C 
ATOM     15  O   UNL     1      -1.770  -0.365  -3.058  0.00  0.00    -0.298 OA
ATOM     16  H   UNL     1      -4.896   0.102  -1.680  0.00  0.00    +0.152 HD
ENDROOT
BRANCH   1  17
ATOM     17  S   UNL     1      -1.700  -0.632   0.015  0.00  0.00    +0.058 S 
ATOM     18  O   UNL     1      -1.703  -2.041  -0.172  0.00  0.00    -0.164 OA
ATOM     19  O   UNL     1      -2.431  -0.041   1.080  0.00  0.00    -0.164 OA
BRANCH  17  21
ATOM     20  C   UNL     1      -0.019   1.526   0.010  0.00  0.00    +0.032 C 
ATOM     21  C   UNL     1       0.002  -0.004   0.002  0.00  0.00    +0.136 C 
ATOM     22  C   UNL     1       0.742  -0.511   1.242  0.00  0.00    +0.032 C 
ENDBRANCH  17  21
ENDBRANCH   1  17
BRANCH   9  23
ATOM     23  O   UNL     1      -4.597  -6.772  -6.232  0.00  0.00    -0.495 OA
ATOM     24  C   UNL     1      -5.677  -7.558  -5.725  0.00  0.00    +0.277 C 
ENDBRANCH   9  23
BRANCH  10  25
ATOM     25  C   UNL     1      -2.463  -5.198  -7.217  0.00  0.00    +0.074 C 
BRANCH  25  26
ATOM     26  C   UNL     1      -1.429  -6.183  -6.735  0.00  0.00    -0.043 A 
ATOM     27  C   UNL     1      -0.203  -5.732  -6.283  0.00  0.00    +0.004 A 
ATOM     28  C   UNL     1       0.745  -6.636  -5.841  0.00  0.00    +0.000 A 
ATOM     29  C   UNL     1       0.467  -7.990  -5.850  0.00  0.00    +0.000 A 
ATOM     30  C   UNL     1      -0.760  -8.441  -6.302  0.00  0.00    +0.000 A 
ATOM     31  C   UNL     1      -1.709  -7.537  -6.740  0.00  0.00    +0.004 A 
ENDBRANCH  25  26
ENDBRANCH  10  25
TORSDOF 5
