REMARK  Name = ZINC06464088
REMARK  7 active torsions:
REMARK  status: ('A' for Active; 'I' for Inactive)
REMARK    1  A    between atoms: C_1  and  O_2
REMARK    2  A    between atoms: O_2  and  C_3
REMARK    3  A    between atoms: C_8  and  C_9
REMARK    4  A    between atoms: C_13  and  S_15
REMARK    5  A    between atoms: S_15  and  C_16
REMARK    6  A    between atoms: C_16  and  C_17
REMARK    7  A    between atoms: C_20  and  C_23
REMARK                            x       y       z     vdW  Elec       q    Type
REMARK                         _______ _______ _______ _____ _____    ______ ____
ROOT
ATOM      1  C   UNL     1      -0.005  -2.830  -0.013  0.00  0.00    +0.186 A 
ATOM      2  N   UNL     1       1.213  -2.339  -0.015  0.00  0.00    -0.151 NA
ATOM      3  H   UNL     1       3.064  -3.395  -0.037  0.00  0.00    +0.191 HD
ATOM      4  N   UNL     1       2.095  -3.431  -0.032  0.00  0.00    -0.253 N 
ATOM      5  C   UNL     1       1.327  -4.544  -0.038  0.00  0.00    +0.185 A 
ATOM      6  N   UNL     1       0.067  -4.169  -0.021  0.00  0.00    -0.201 NA
ENDROOT
BRANCH   1  12
ATOM      7  C   UNL     1      -1.200  -0.637   0.010  0.00  0.00    +0.131 A 
ATOM      8  C   UNL     1      -2.374   0.099   0.019  0.00  0.00    +0.048 A 
ATOM      9  C   UNL     1      -3.596  -0.545   0.027  0.00  0.00    +0.023 A 
ATOM     10  C   UNL     1      -3.656  -1.929   0.026  0.00  0.00    +0.042 A 
ATOM     11  C   UNL     1      -2.494  -2.675   0.016  0.00  0.00    +0.035 A 
ATOM     12  C   UNL     1      -1.257  -2.034   0.003  0.00  0.00    +0.064 A 
ATOM     13 CL   UNL     1      -5.197  -2.728   0.036  0.00  0.00    -0.084 Cl
BRANCH   7  15
ATOM     14  C   UNL     1      -0.017   1.425   0.010  0.00  0.00    +0.277 C 
ATOM     15  O   UNL     1       0.002  -0.004   0.002  0.00  0.00    -0.494 OA
ENDBRANCH   7  15
ENDBRANCH   1  12
BRANCH   5  16
ATOM     16  S   UNL     1       1.913  -6.205  -0.059  0.00  0.00    -0.082 S 
BRANCH  16  17
ATOM     17  C   UNL     1       0.399  -7.205  -0.059  0.00  0.00    +0.112 C 
BRANCH  17  18
ATOM     18  C   UNL     1       0.763  -8.667  -0.076  0.00  0.00    -0.037 A 
ATOM     19  C   UNL     1       0.926  -9.322  -1.284  0.00  0.00    +0.006 A 
ATOM     20  C   UNL     1       1.259 -10.660  -1.308  0.00  0.00    +0.019 A 
ATOM     21  C   UNL     1       1.431 -11.354  -0.108  0.00  0.00    +0.052 A 
ATOM     22  C   UNL     1       1.265 -10.688   1.107  0.00  0.00    +0.019 A 
ATOM     23  C   UNL     1       0.937  -9.348   1.116  0.00  0.00    +0.006 A 
BRANCH  21  24
ATOM     24  C   UNL     1       1.776 -12.744  -0.125  0.00  0.00    +0.099 C 
ATOM     25  N   UNL     1       2.049 -13.847  -0.138  0.00  0.00    -0.191 NA
ENDBRANCH  21  24
ENDBRANCH  17  18
ENDBRANCH  16  17
ENDBRANCH   5  16
TORSDOF 6
