REMARK  Name = ZINC59019566
REMARK  11 active torsions:
REMARK  status: ('A' for Active; 'I' for Inactive)
REMARK    1  A    between atoms: C_1  and  C_2
REMARK    2  A    between atoms: C_5  and  C_8
REMARK    3  A    between atoms: N_9  and  N_10
REMARK    4  A    between atoms: C_13  and  S_16
REMARK    5  A    between atoms: S_16  and  C_17
REMARK    6  A    between atoms: C_17  and  C_18
REMARK    7  A    between atoms: N_20  and  C_21
REMARK    8  A    between atoms: C_21  and  C_22
REMARK    9  A    between atoms: C_22  and  C_23
REMARK   10  A    between atoms: C_26  and  O_29
REMARK   11  A    between atoms: O_29  and  C_30
REMARK                            x       y       z     vdW  Elec       q    Type
REMARK                         _______ _______ _______ _____ _____    ______ ____
ROOT
ATOM      1  N   UNL     1       0.094  -6.304   1.091  0.00  0.00    -0.205 N 
ATOM      2  C   UNL     1       0.110  -7.002   2.285  0.00  0.00    +0.232 A 
ATOM      3  N   UNL     1       0.103  -6.473   3.491  0.00  0.00    -0.186 NA
ATOM      4  C   UNL     1       0.123  -7.446   4.409  0.00  0.00    +0.211 A 
ATOM      5  N   UNL     1       0.142  -8.607   3.799  0.00  0.00    -0.144 NA
ATOM      6  N   UNL     1       0.129  -8.345   2.419  0.00  0.00    -0.245 N 
ATOM      7  H   UNL     1       0.096  -6.784   0.249  0.00  0.00    +0.177 HD
ATOM      8  H   UNL     1       0.134  -9.000   1.704  0.00  0.00    +0.192 HD
ENDROOT
BRANCH   1  10
ATOM      9  C   UNL     1       0.061  -4.248  -0.021  0.00  0.00    +0.138 C 
ATOM     10  N   UNL     1       0.075  -4.903   1.099  0.00  0.00    -0.188 NA
BRANCH   9  15
ATOM     11  C   UNL     1      -0.018   1.503   0.010  0.00  0.00    +0.044 C 
ATOM     12  C   UNL     1       0.002  -0.004   0.002  0.00  0.00    -0.050 A 
ATOM     13  C   UNL     1       0.006  -0.686  -1.202  0.00  0.00    +0.004 A 
ATOM     14  C   UNL     1       0.025  -2.065  -1.217  0.00  0.00    +0.010 A 
ATOM     15  C   UNL     1       0.041  -2.773  -0.013  0.00  0.00    -0.005 A 
ATOM     16  C   UNL     1       0.037  -2.078   1.198  0.00  0.00    +0.010 A 
ATOM     17  C   UNL     1       0.023  -0.699   1.198  0.00  0.00    +0.004 A 
ENDBRANCH   9  15
ENDBRANCH   1  10
BRANCH   4  18
ATOM     18  S   UNL     1       0.122  -7.206   6.154  0.00  0.00    -0.075 S 
BRANCH  18  19
ATOM     19  C   UNL     1       0.155  -8.890   6.828  0.00  0.00    +0.173 C 
BRANCH  19  20
ATOM     20  C   UNL     1       0.157  -8.828   8.334  0.00  0.00    +0.223 C 
ATOM     21  O   UNL     1       0.139  -7.754   8.897  0.00  0.00    -0.275 OA
ATOM     22  N   UNL     1       0.180  -9.967   9.055  0.00  0.00    -0.314 N 
ATOM     23  H   UNL     1       0.194 -10.826   8.605  0.00  0.00    +0.149 HD
BRANCH  22  24
ATOM     24  C   UNL     1       0.182  -9.907  10.519  0.00  0.00    +0.109 C 
BRANCH  24  25
ATOM     25  C   UNL     1       0.209 -11.327  11.087  0.00  0.00    +0.054 C 
BRANCH  25  26
ATOM     26  C   UNL     1       0.211 -11.265  12.593  0.00  0.00    -0.046 A 
ATOM     27  C   UNL     1       1.410 -11.210  13.280  0.00  0.00    +0.007 A 
ATOM     28  C   UNL     1       1.415 -11.154  14.660  0.00  0.00    +0.046 A 
ATOM     29  C   UNL     1       0.216 -11.153  15.357  0.00  0.00    +0.120 A 
ATOM     30  C   UNL     1      -0.986 -11.209  14.666  0.00  0.00    +0.046 A 
ATOM     31  C   UNL     1      -0.985 -11.259  13.285  0.00  0.00    +0.007 A 
BRANCH  29  32
ATOM     32  O   UNL     1       0.218 -11.098  16.715  0.00  0.00    -0.495 OA
ATOM     33  C   UNL     1      -1.054 -11.101  17.366  0.00  0.00    +0.277 C 
ENDBRANCH  29  32
ENDBRANCH  25  26
ENDBRANCH  24  25
ENDBRANCH  22  24
ENDBRANCH  19  20
ENDBRANCH  18  19
ENDBRANCH   4  18
TORSDOF 9
