REMARK  Name = ZINC11950548
REMARK  11 active torsions:
REMARK  status: ('A' for Active; 'I' for Inactive)
REMARK    1  A    between atoms: C_1  and  C_2
REMARK    2  A    between atoms: C_5  and  O_9
REMARK    3  A    between atoms: C_6  and  C_8
REMARK    4  A    between atoms: O_9  and  C_10
REMARK    5  A    between atoms: C_10  and  C_11
REMARK    6  A    between atoms: C_11  and  O_12
REMARK    7  A    between atoms: O_12  and  C_13
REMARK    8  A    between atoms: C_14  and  O_23
REMARK    9  A    between atoms: C_16  and  C_20
REMARK   10  A    between atoms: C_20  and  N_22
REMARK   11  A    between atoms: O_23  and  C_24
REMARK                            x       y       z     vdW  Elec       q    Type
REMARK                         _______ _______ _______ _____ _____    ______ ____
ROOT
ATOM      1  C   UNL     1      -1.433   3.410   2.468  0.00  0.00    +0.180 A 
ATOM      2  C   UNL     1      -0.787   2.893   1.346  0.00  0.00    +0.164 A 
ATOM      3  C   UNL     1      -0.260   3.747   0.397  0.00  0.00    +0.059 A 
ATOM      4  C   UNL     1      -0.371   5.130   0.567  0.00  0.00    +0.008 A 
ATOM      5  C   UNL     1      -1.015   5.643   1.696  0.00  0.00    +0.034 A 
ATOM      6  C   UNL     1      -1.539   4.785   2.640  0.00  0.00    +0.087 A 
ATOM      7 CL   UNL     1      -2.338   5.423   4.042  0.00  0.00    -0.080 Cl
ENDROOT
BRANCH   4   8
ATOM      8  C   UNL     1       0.191   6.045  -0.444  0.00  0.00    +0.077 C 
ATOM      9  S   UNL     1       0.155   5.617  -2.101  0.00  0.00    -0.035 S 
BRANCH   8  10
ATOM     10  N   UNL     1       0.731   7.219  -0.062  0.00  0.00    -0.352 N 
ATOM     11  H   UNL     1       0.751   7.462   0.877  0.00  0.00    +0.143 HD
ATOM     12  H   UNL     1       1.101   7.822  -0.727  0.00  0.00    +0.143 HD
ENDBRANCH   8  10
ENDBRANCH   4   8
BRANCH   2  13
ATOM     13  O   UNL     1      -0.682   1.547   1.184  0.00  0.00    -0.491 OA
ATOM     14  C   UNL     1      -0.013   1.086   0.008  0.00  0.00    +0.277 C 
ENDBRANCH   2  13
BRANCH   1  15
ATOM     15  O   UNL     1      -1.956   2.569   3.397  0.00  0.00    -0.483 OA
BRANCH  15  16
ATOM     16  C   UNL     1      -1.100   2.178   4.473  0.00  0.00    +0.270 C 
BRANCH  16  17
ATOM     17  C   UNL     1      -1.858   1.237   5.412  0.00  0.00    +0.270 C 
BRANCH  17  18
ATOM     18  O   UNL     1      -2.173   0.027   4.720  0.00  0.00    -0.488 OA
BRANCH  18  23
ATOM     19  C   UNL     1      -4.983  -3.910   7.606  0.00  0.00    +0.044 C 
ATOM     20  C   UNL     1      -4.231  -2.857   6.834  0.00  0.00    -0.050 A 
ATOM     21  C   UNL     1      -3.894  -1.663   7.444  0.00  0.00    +0.007 A 
ATOM     22  C   UNL     1      -3.205  -0.695   6.738  0.00  0.00    +0.046 A 
ATOM     23  C   UNL     1      -2.851  -0.923   5.416  0.00  0.00    +0.124 A 
ATOM     24  C   UNL     1      -3.194  -2.120   4.805  0.00  0.00    -0.009 A 
ATOM     25  C   UNL     1      -3.879  -3.086   5.517  0.00  0.00    +0.010 A 
ATOM     26  C   UNL     1      -2.816  -2.369   3.368  0.00  0.00    +0.047 C 
ENDBRANCH  18  23
ENDBRANCH  17  18
ENDBRANCH  16  17
ENDBRANCH  15  16
ENDBRANCH   1  15
TORSDOF 8
