REMARK  Name = ZINC04995646
REMARK  8 active torsions:
REMARK  status: ('A' for Active; 'I' for Inactive)
REMARK    1  A    between atoms: C_1  and  C_2
REMARK    2  A    between atoms: C_5  and  C_31
REMARK    3  A    between atoms: C_11  and  C_30
REMARK    4  A    between atoms: C_16  and  C_28
REMARK    5  A    between atoms: C_22  and  C_26
REMARK    6  A    between atoms: C_22  and  O_27
REMARK    7  A    between atoms: C_32  and  C_33
REMARK    8  A    between atoms: C_32  and  C_34
REMARK                            x       y       z     vdW  Elec       q    Type
REMARK                         _______ _______ _______ _____ _____    ______ ____
ROOT
ATOM      1  C   UNL     1       2.588  -0.936  -0.569  0.00  0.00    +0.010 C 
ATOM      2  C   UNL     1       1.248  -0.332  -0.975  0.00  0.00    +0.021 C 
ATOM      3  C   UNL     1       1.023   1.010  -0.224  0.00  0.00    +0.042 C 
ATOM      4  C   UNL     1      -0.494   0.954   0.088  0.00  0.00    +0.142 C 
ATOM      5  O   UNL     1      -0.713  -0.443   0.386  0.00  0.00    -0.366 OA
ATOM      6  C   UNL     1       0.040  -1.187  -0.583  0.00  0.00    +0.077 C 
ATOM      7  C   UNL     1      -0.836  -1.419  -1.845  0.00  0.00    +0.036 C 
ATOM      8  C   UNL     1      -1.008  -2.960  -1.966  0.00  0.00    +0.010 C 
ATOM      9  C   UNL     1      -0.903  -3.404  -0.483  0.00  0.00    -0.026 C 
ATOM     10  C   UNL     1       0.378  -2.576  -0.095  0.00  0.00    +0.031 C 
ATOM     11  C   UNL     1       0.787  -2.832   1.317  0.00  0.00    +0.034 C 
ATOM     12  C   UNL     1      -0.304  -2.610   2.328  0.00  0.00    -0.019 C 
ATOM     13  C   UNL     1      -0.941  -3.663   2.825  0.00  0.00    -0.002 C 
ATOM     14  C   UNL     1      -0.584  -5.019   2.292  0.00  0.00    +0.094 C 
ATOM     15  C   UNL     1      -1.324  -5.396   1.021  0.00  0.00    +0.036 C 
ATOM     16  C   UNL     1      -0.704  -4.878  -0.273  0.00  0.00    +0.014 C 
ATOM     17  C   UNL     1      -1.258  -6.950   1.033  0.00  0.00    +0.074 C 
ATOM     18  C   UNL     1      -1.441  -7.290   2.529  0.00  0.00    +0.109 C 
ATOM     19  C   UNL     1      -0.889  -6.107   3.304  0.00  0.00    +0.144 C 
ATOM     20  O   UNL     1      -0.710  -6.064   4.497  0.00  0.00    -0.297 OA
ATOM     21  C   UNL     1      -2.399  -7.540   0.205  0.00  0.00    +0.042 C 
ATOM     22  C   UNL     1      -2.168  -2.888   0.186  0.00  0.00    +0.011 C 
ENDROOT
BRANCH   4  23
ATOM     23  C   UNL     1      -0.825   1.812   1.281  0.00  0.00    +0.003 C 
ATOM     24  C   UNL     1      -1.695   2.784   1.168  0.00  0.00    -0.077 C 
ATOM     25  C   UNL     1      -2.265   3.131  -0.183  0.00  0.00    +0.038 C 
ATOM     26  C   UNL     1      -2.126   3.556   2.388  0.00  0.00    +0.038 C 
ENDBRANCH   4  23
BRANCH  17  27
ATOM     27  O   UNL     1       0.008  -7.402   0.557  0.00  0.00    -0.388 OA
ATOM     28  H   UNL     1       0.102  -8.364   0.543  0.00  0.00    +0.210 HD
ENDBRANCH  17  27
BRANCH  13  29
ATOM     29  C   UNL     1      -1.968  -3.483   3.860  0.00  0.00    +0.254 C 
ATOM     30  O   UNL     1      -2.554  -4.447   4.306  0.00  0.00    -0.296 OA
ENDBRANCH  13  29
TORSDOF 3
