REMARK  Name = ZINC52094927
REMARK  3 active torsions:
REMARK  status: ('A' for Active; 'I' for Inactive)
REMARK    1  A    between atoms: C_6  and  C_7
REMARK    2  A    between atoms: C_7  and  C_9
REMARK    3  A    between atoms: C_7  and  O_22
REMARK                            x       y       z     vdW  Elec       q    Type
REMARK                         _______ _______ _______ _____ _____    ______ ____
ROOT
ATOM      1  C   UNL     1      -1.612  -1.236  -1.388  0.00  0.00    +0.001 A 
ATOM      2  C   UNL     1      -1.247  -2.505  -1.794  0.00  0.00    +0.035 A 
ATOM      3  C   UNL     1      -1.541  -2.930  -3.080  0.00  0.00    +0.067 A 
ATOM      4  C   UNL     1      -2.204  -2.073  -3.961  0.00  0.00    +0.068 A 
ATOM      5  C   UNL     1      -2.567  -0.801  -3.546  0.00  0.00    +0.043 A 
ATOM      6  C   UNL     1      -2.275  -0.389  -2.259  0.00  0.00    +0.026 A 
ATOM      7 BR   UNL     1      -2.777   1.343  -1.689  0.00  0.00    -0.050 Br
ATOM      8  N   UNL     1      -2.357  -2.767  -5.159  0.00  0.00    -0.306 N 
ATOM      9  H   UNL     1      -2.784  -2.428  -5.961  0.00  0.00    +0.170 HD
ATOM     10  C   UNL     1      -1.812  -3.990  -5.014  0.00  0.00    +0.325 A 
ATOM     11  O   UNL     1      -1.777  -4.848  -5.876  0.00  0.00    -0.247 OA
ATOM     12  N   UNL     1      -1.311  -4.118  -3.771  0.00  0.00    -0.306 N 
ATOM     13  H   UNL     1      -0.866  -4.904  -3.417  0.00  0.00    +0.170 HD
ENDROOT
BRANCH   1  14
ATOM     14  C   UNL     1      -1.293  -0.775   0.011  0.00  0.00    +0.176 C 
BRANCH  14  20
ATOM     15  C   UNL     1      -0.017   1.378   0.010  0.00  0.00    +0.008 A 
ATOM     16  C   UNL     1       1.171   2.086   0.002  0.00  0.00    +0.020 A 
ATOM     17  C   UNL     1       2.378   1.410  -0.013  0.00  0.00    +0.041 A 
ATOM     18  C   UNL     1       2.396   0.027  -0.021  0.00  0.00    +0.020 A 
ATOM     19  C   UNL     1       1.208  -0.679  -0.013  0.00  0.00    +0.008 A 
ATOM     20  C   UNL     1       0.002  -0.004   0.002  0.00  0.00    -0.015 A 
ATOM     21 CL   UNL     1       3.870   2.298  -0.023  0.00  0.00    -0.084 Cl
ENDBRANCH  14  20
BRANCH  14  22
ATOM     22  O   UNL     1      -1.166  -1.910   0.869  0.00  0.00    -0.382 OA
ATOM     23  H   UNL     1      -0.469  -2.526   0.606  0.00  0.00    +0.211 HD
ENDBRANCH  14  22
ENDBRANCH   1  14
TORSDOF 3
