REMARK  Name = ZINC21397493
REMARK  6 active torsions:
REMARK  status: ('A' for Active; 'I' for Inactive)
REMARK    1  A    between atoms: C_1  and  C_2
REMARK    2  A    between atoms: C_5  and  C_8
REMARK    3  A    between atoms: C_11  and  S_20
REMARK    4  A    between atoms: N_12  and  C_13
REMARK    5  A    between atoms: S_20  and  C_21
REMARK    6  A    between atoms: C_21  and  C_22
REMARK                            x       y       z     vdW  Elec       q    Type
REMARK                         _______ _______ _______ _____ _____    ______ ____
ROOT
ATOM      1  C   UNL     1      -2.501   0.983  -0.131  0.00  0.00    +0.169 A 
ATOM      2  N   UNL     1      -2.644  -0.300   0.109  0.00  0.00    -0.128 NA
ATOM      3  N   UNL     1      -3.890  -0.589   0.228  0.00  0.00    -0.122 NA
ATOM      4  C   UNL     1      -4.622   0.492   0.071  0.00  0.00    +0.197 A 
ATOM      5  N   UNL     1      -3.764   1.532  -0.158  0.00  0.00    -0.270 N 
ENDROOT
BRANCH   1  10
ATOM      6  C   UNL     1       2.463   3.792  -0.892  0.00  0.00    +0.044 C 
ATOM      7  C   UNL     1       1.164   3.055  -0.696  0.00  0.00    -0.050 A 
ATOM      8  C   UNL     1      -0.024   3.631  -1.109  0.00  0.00    +0.004 A 
ATOM      9  C   UNL     1      -1.217   2.962  -0.932  0.00  0.00    +0.012 A 
ATOM     10  C   UNL     1      -1.225   1.703  -0.330  0.00  0.00    +0.020 A 
ATOM     11  C   UNL     1      -0.023   1.125   0.081  0.00  0.00    +0.012 A 
ATOM     12  C   UNL     1       1.164   1.805  -0.102  0.00  0.00    +0.004 A 
ENDBRANCH   1  10
BRANCH   5  13
ATOM     13  C   UNL     1      -4.100   2.876  -0.377  0.00  0.00    +0.051 A 
ATOM     14  C   UNL     1      -3.775   3.837   0.569  0.00  0.00    +0.028 A 
ATOM     15  C   UNL     1      -4.103   5.161   0.349  0.00  0.00    +0.022 A 
ATOM     16  C   UNL     1      -4.765   5.527  -0.810  0.00  0.00    +0.041 A 
ATOM     17  C   UNL     1      -5.095   4.569  -1.753  0.00  0.00    +0.022 A 
ATOM     18  C   UNL     1      -4.764   3.245  -1.539  0.00  0.00    +0.028 A 
ATOM     19 CL   UNL     1      -5.181   7.190  -1.081  0.00  0.00    -0.084 Cl
ENDBRANCH   5  13
BRANCH   4  20
ATOM     20  S   UNL     1      -6.380   0.584   0.148  0.00  0.00    -0.078 S 
BRANCH  20  21
ATOM     21  C   UNL     1      -6.771  -1.152   0.483  0.00  0.00    +0.151 C 
BRANCH  21  22
ATOM     22  C   UNL     1      -8.265  -1.318   0.593  0.00  0.00    +0.122 A 
ATOM     23  N   UNL     1      -8.760  -2.558   0.844  0.00  0.00    -0.194 NA
ATOM     24  C   UNL     1     -10.100  -2.729   0.947  0.00  0.00    +0.288 A 
ATOM     25  O   UNL     1     -10.576  -3.830   1.171  0.00  0.00    -0.265 OA
ATOM     26  C   UNL     1     -10.920  -1.612   0.789  0.00  0.00    +0.102 A 
ATOM     27  C   UNL     1     -10.382  -0.339   0.530  0.00  0.00    +0.060 A 
ATOM     28  N   UNL     1      -9.013  -0.271   0.449  0.00  0.00    -0.342 N 
ATOM     29  C   UNL     1     -11.318   0.695   0.393  0.00  0.00    +0.034 A 
ATOM     30  C   UNL     1     -12.638   0.437   0.511  0.00  0.00    +0.048 A 
ATOM     31  S   UNL     1     -12.669  -1.319   0.830  0.00  0.00    -0.090 S 
ATOM     32  H   UNL     1      -8.554   0.710   0.256  0.00  0.00    +0.167 HD
ENDBRANCH  21  22
ENDBRANCH  20  21
ENDBRANCH   4  20
TORSDOF 5
