REMARK  Name = ZINC00650765
REMARK  8 active torsions:
REMARK  status: ('A' for Active; 'I' for Inactive)
REMARK    1  A    between atoms: C_1  and  C_2
REMARK    2  A    between atoms: C_2  and  C_3
REMARK    3  A    between atoms: C_2  and  C_4
REMARK    4  A    between atoms: C_4  and  N_5
REMARK    5  A    between atoms: C_6  and  C_8
REMARK    6  A    between atoms: C_8  and  S_9
REMARK    7  A    between atoms: S_9  and  C_10
REMARK    8  A    between atoms: C_14  and  C_16
REMARK                            x       y       z     vdW  Elec       q    Type
REMARK                         _______ _______ _______ _____ _____    ______ ____
ROOT
ATOM      1  C   UNL     1       0.050  -2.683  -0.045  0.00  0.00    +0.190 A 
ATOM      2  N   UNL     1       0.980  -2.018  -0.717  0.00  0.00    -0.222 NA
ATOM      3  C   UNL     1       0.986  -0.690  -0.712  0.00  0.00    +0.079 A 
ATOM      4  C   UNL     1      -0.003  -0.004  -0.005  0.00  0.00    +0.009 A 
ATOM      5  C   UNL     1      -0.950  -0.734   0.686  0.00  0.00    +0.152 A 
ATOM      6  N   UNL     1      -0.893  -2.058   0.646  0.00  0.00    -0.218 NA
ATOM      7  C   UNL     1      -0.030   1.498  -0.005  0.00  0.00    +0.044 C 
ATOM      8  C   UNL     1       1.388   2.062  -0.024  0.00  0.00    +0.040 C 
ATOM      9  C   UNL     1       2.203   1.428  -1.119  0.00  0.00    -0.038 A 
ATOM     10  C   UNL     1       2.025   0.080  -1.432  0.00  0.00    +0.004 A 
ATOM     11  C   UNL     1       2.836  -0.526  -2.385  0.00  0.00    +0.010 A 
ATOM     12  C   UNL     1       3.788   0.221  -3.050  0.00  0.00    +0.001 A 
ATOM     13  C   UNL     1       3.938   1.566  -2.763  0.00  0.00    +0.000 A 
ATOM     14  C   UNL     1       3.150   2.167  -1.798  0.00  0.00    +0.004 A 
ENDROOT
BRANCH   5  15
ATOM     15  C   UNL     1      -2.030  -0.038   1.473  0.00  0.00    +0.435 C 
ATOM     16  F   UNL     1      -2.712   0.855   0.639  0.00  0.00    -0.164 F 
ATOM     17  F   UNL     1      -2.928  -0.987   1.974  0.00  0.00    -0.164 F 
ATOM     18  F   UNL     1      -1.453   0.665   2.536  0.00  0.00    -0.164 F 
ENDBRANCH   5  15
BRANCH   1  19
ATOM     19  S   UNL     1       0.069  -4.444  -0.070  0.00  0.00    -0.077 S 
BRANCH  19  20
ATOM     20  C   UNL     1      -1.369  -4.789   0.974  0.00  0.00    +0.173 C 
BRANCH  20  22
ATOM     21  N   UNL     1      -2.568  -6.774   1.835  0.00  0.00    -0.314 N 
ATOM     22  C   UNL     1      -1.553  -6.280   1.099  0.00  0.00    +0.223 C 
ATOM     23  O   UNL     1      -0.788  -7.035   0.536  0.00  0.00    -0.275 OA
ATOM     24  H   UNL     1      -3.180  -6.170   2.284  0.00  0.00    +0.149 HD
BRANCH  21  25
ATOM     25  C   UNL     1      -2.748  -8.223   1.956  0.00  0.00    +0.107 C 
BRANCH  25  27
ATOM     26  C   UNL     1      -4.225 -10.021   2.864  0.00  0.00    +0.009 C 
ATOM     27  C   UNL     1      -3.963  -8.514   2.838  0.00  0.00    -0.000 C 
ATOM     28  C   UNL     1      -3.691  -8.020   4.261  0.00  0.00    +0.009 C 
ENDBRANCH  25  27
ENDBRANCH  21  25
ENDBRANCH  20  22
ENDBRANCH  19  20
ENDBRANCH   1  19
TORSDOF 6
