REMARK  Name = ZINC23138465
REMARK  9 active torsions:
REMARK  status: ('A' for Active; 'I' for Inactive)
REMARK    1  A    between atoms: C_1  and  C_2
REMARK    2  A    between atoms: C_3  and  C_18
REMARK    3  A    between atoms: C_8  and  S_10
REMARK    4  A    between atoms: S_10  and  C_11
REMARK    5  A    between atoms: C_11  and  C_12
REMARK    6  A    between atoms: C_18  and  C_19
REMARK    7  A    between atoms: C_24  and  C_27
REMARK    8  A    between atoms: C_27  and  C_28
REMARK    9  A    between atoms: N_30  and  C_31
REMARK                            x       y       z     vdW  Elec       q    Type
REMARK                         _______ _______ _______ _____ _____    ______ ____
ROOT
ATOM      1  C   UNL     1      -0.018   1.503   0.010  0.00  0.00    +0.066 C 
ATOM      2  C   UNL     1       0.002  -0.004   0.002  0.00  0.00    +0.050 A 
ATOM      3  C   UNL     1      -1.171  -0.701   0.004  0.00  0.00    +0.047 A 
ATOM      4  C   UNL     1      -1.128  -2.107  -0.004  0.00  0.00    +0.256 A 
ATOM      5  O   UNL     1      -2.158  -2.761  -0.004  0.00  0.00    -0.267 OA
ATOM      6  N   UNL     1       0.076  -2.718  -0.014  0.00  0.00    -0.302 N 
ATOM      7  H   UNL     1       0.130  -3.687  -0.020  0.00  0.00    +0.171 HD
ATOM      8  C   UNL     1       1.214  -1.970  -0.015  0.00  0.00    +0.169 A 
ATOM      9  N   UNL     1       1.164  -0.652  -0.013  0.00  0.00    -0.228 NA
ENDROOT
BRANCH   8  10
ATOM     10  S   UNL     1       2.781  -2.777  -0.027  0.00  0.00    -0.083 S 
BRANCH  10  11
ATOM     11  C   UNL     1       3.977  -1.414  -0.025  0.00  0.00    +0.112 C 
BRANCH  11  12
ATOM     12  C   UNL     1       5.376  -1.973  -0.035  0.00  0.00    -0.037 A 
ATOM     13  C   UNL     1       6.021  -2.241   1.158  0.00  0.00    +0.004 A 
ATOM     14  C   UNL     1       7.305  -2.754   1.149  0.00  0.00    +0.000 A 
ATOM     15  C   UNL     1       7.943  -2.999  -0.053  0.00  0.00    +0.000 A 
ATOM     16  C   UNL     1       7.298  -2.732  -1.245  0.00  0.00    +0.000 A 
ATOM     17  C   UNL     1       6.012  -2.223  -1.236  0.00  0.00    +0.004 A 
ENDBRANCH  11  12
ENDBRANCH  10  11
ENDBRANCH   8  10
BRANCH   3  18
ATOM     18  C   UNL     1      -2.493   0.023   0.015  0.00  0.00    +0.138 C 
BRANCH  18  19
ATOM     19  C   UNL     1      -3.000   0.165  -1.397  0.00  0.00    +0.223 C 
ATOM     20  O   UNL     1      -2.352  -0.279  -2.321  0.00  0.00    -0.275 OA
ATOM     21  N   UNL     1      -4.173   0.785  -1.633  0.00  0.00    -0.264 N 
ATOM     22  C   UNL     1      -4.641   0.916  -2.935  0.00  0.00    +0.165 A 
ATOM     23  N   UNL     1      -5.750   1.489  -3.352  0.00  0.00    -0.229 NA
ATOM     24  C   UNL     1      -6.055   1.531  -4.636  0.00  0.00    +0.059 A 
ATOM     25  C   UNL     1      -5.177   0.960  -5.497  0.00  0.00    +0.072 A 
ATOM     26  S   UNL     1      -3.924   0.386  -4.362  0.00  0.00    -0.060 S 
ATOM     27  H   UNL     1      -4.691   1.140  -0.893  0.00  0.00    +0.157 HD
BRANCH  24  28
ATOM     28  C   UNL     1      -7.322   2.185  -5.122  0.00  0.00    +0.151 C 
BRANCH  28  29
ATOM     29  C   UNL     1      -8.505   1.575  -4.415  0.00  0.00    +0.219 C 
ATOM     30  O   UNL     1      -8.336   0.695  -3.598  0.00  0.00    -0.275 OA
ATOM     31  N   UNL     1      -9.752   2.006  -4.693  0.00  0.00    -0.318 N 
ATOM     32  C   UNL     1     -10.902   1.413  -4.006  0.00  0.00    +0.128 C 
ATOM     33  H   UNL     1      -9.887   2.709  -5.347  0.00  0.00    +0.148 HD
ENDBRANCH  28  29
ENDBRANCH  24  28
ENDBRANCH  18  19
ENDBRANCH   3  18
TORSDOF 7
