REMARK  Name = ZINC02915807
REMARK  5 active torsions:
REMARK  status: ('A' for Active; 'I' for Inactive)
REMARK    1  A    between atoms: C_1  and  C_2
REMARK    2  A    between atoms: C_2  and  C_3
REMARK    3  A    between atoms: C_2  and  C_4
REMARK    4  A    between atoms: C_7  and  C_10
REMARK    5  A    between atoms: N_17  and  C_20
REMARK                            x       y       z     vdW  Elec       q    Type
REMARK                         _______ _______ _______ _____ _____    ______ ____
ROOT
ATOM      1  C   UNL     1      -2.367   4.244   0.047  0.00  0.00    +0.026 C 
ATOM      2  C   UNL     1      -1.258   3.554  -0.393  0.00  0.00    +0.100 C 
ATOM      3  C   UNL     1      -0.087   4.255  -0.960  0.00  0.00    +0.255 C 
ATOM      4  O   UNL     1      -0.070   5.468  -1.054  0.00  0.00    -0.270 OA
ATOM      5  N   UNL     1       0.963   3.514  -1.369  0.00  0.00    -0.263 N 
ATOM      6  C   UNL     1       0.958   2.177  -1.270  0.00  0.00    +0.151 C 
ATOM      7  S   UNL     1       2.336   1.320  -1.815  0.00  0.00    -0.018 S 
ATOM      8  N   UNL     1      -0.066   1.474  -0.767  0.00  0.00    -0.216 N 
ATOM      9  C   UNL     1      -1.187   2.080  -0.322  0.00  0.00    +0.262 C 
ATOM     10  O   UNL     1      -2.112   1.430   0.128  0.00  0.00    -0.269 OA
ATOM     11  H   UNL     1       1.740   3.958  -1.743  0.00  0.00    +0.157 HD
ENDROOT
BRANCH   8  12
ATOM     12  C   UNL     1       0.027   0.077  -0.706  0.00  0.00    +0.062 A 
ATOM     13  C   UNL     1       0.562  -0.536   0.418  0.00  0.00    +0.027 A 
ATOM     14  C   UNL     1       0.647  -1.913   0.478  0.00  0.00    +0.022 A 
ATOM     15  C   UNL     1       0.210  -2.682  -0.586  0.00  0.00    +0.042 A 
ATOM     16  C   UNL     1      -0.319  -2.074  -1.711  0.00  0.00    +0.042 A 
ATOM     17  C   UNL     1      -0.412  -0.696  -1.774  0.00  0.00    +0.064 A 
ATOM     18 CL   UNL     1      -1.075   0.067  -3.185  0.00  0.00    -0.082 Cl
ATOM     19 CL   UNL     1       0.325  -4.413  -0.510  0.00  0.00    -0.083 Cl
ENDBRANCH   8  12
BRANCH   1  23
ATOM     20  C   UNL     1      -2.239   8.465   0.391  0.00  0.00    -0.045 A 
ATOM     21  C   UNL     1      -3.329   7.856  -0.207  0.00  0.00    +0.004 A 
ATOM     22  C   UNL     1      -3.379   6.484  -0.324  0.00  0.00    +0.008 A 
ATOM     23  C   UNL     1      -2.323   5.704   0.166  0.00  0.00    -0.024 A 
ATOM     24  C   UNL     1      -1.226   6.329   0.776  0.00  0.00    +0.008 A 
ATOM     25  C   UNL     1      -1.190   7.703   0.878  0.00  0.00    +0.004 A 
BRANCH  20  27
ATOM     26  C   UNL     1      -2.105  10.355   1.991  0.00  0.00    +0.012 C 
ATOM     27  C   UNL     1      -2.193   9.966   0.514  0.00  0.00    +0.013 C 
ATOM     28  C   UNL     1      -0.967  10.502  -0.229  0.00  0.00    +0.012 C 
ENDBRANCH  20  27
ENDBRANCH   1  23
TORSDOF 3
