REMARK  Name = ZINC15733813
REMARK  7 active torsions:
REMARK  status: ('A' for Active; 'I' for Inactive)
REMARK    1  A    between atoms: C_1  and  C_2
REMARK    2  A    between atoms: C_7  and  S_8
REMARK    3  A    between atoms: S_8  and  N_11
REMARK    4  A    between atoms: N_11  and  C_12
REMARK    5  A    between atoms: C_12  and  C_13
REMARK    6  A    between atoms: C_13  and  N_14
REMARK    7  A    between atoms: N_17  and  C_20
REMARK                            x       y       z     vdW  Elec       q    Type
REMARK                         _______ _______ _______ _____ _____    ______ ____
ROOT
ATOM      1  S   UNL     1      -0.064  -0.039   2.733  0.00  0.00    +0.059 S 
ATOM      2  O   UNL     1      -1.269   0.712   2.784  0.00  0.00    -0.153 OA
ATOM      3  O   UNL     1       0.203  -1.111   3.627  0.00  0.00    -0.153 OA
ENDROOT
BRANCH   1  10
ATOM      4  C   UNL     1       2.240  -1.726   1.754  0.00  0.00    +0.046 C 
ATOM      5  C   UNL     1       1.149  -1.467   0.748  0.00  0.00    -0.023 A 
ATOM      6  C   UNL     1       1.246  -1.996  -0.521  0.00  0.00    +0.016 A 
ATOM      7  C   UNL     1       0.237  -1.757  -1.450  0.00  0.00    +0.011 A 
ATOM      8  C   UNL     1      -0.877  -0.976  -1.091  0.00  0.00    +0.049 A 
ATOM      9  C   UNL     1      -0.955  -0.451   0.194  0.00  0.00    +0.055 A 
ATOM     10  C   UNL     1       0.048  -0.702   1.105  0.00  0.00    +0.110 A 
ATOM     11  N   UNL     1      -1.714  -0.900  -2.189  0.00  0.00    -0.357 N 
ATOM     12  H   UNL     1      -2.555  -0.417  -2.210  0.00  0.00    +0.166 HD
ATOM     13  C   UNL     1      -1.203  -1.585  -3.221  0.00  0.00    +0.028 A 
ATOM     14  C   UNL     1       0.010  -2.143  -2.845  0.00  0.00    +0.046 A 
ATOM     15  C   UNL     1       0.797  -2.924  -3.725  0.00  0.00    +0.165 C 
ATOM     16  O   UNL     1       1.837  -3.431  -3.356  0.00  0.00    -0.292 OA
ATOM     17  C   UNL     1       0.295  -3.105  -5.141  0.00  0.00    +0.080 C 
ATOM     18  C   UNL     1      -1.233  -3.105  -5.160  0.00  0.00    +0.014 C 
ATOM     19  C   UNL     1      -1.777  -1.783  -4.604  0.00  0.00    +0.054 C 
ENDBRANCH   1  10
BRANCH   1  20
ATOM     20  N   UNL     1       1.177   1.043   2.908  0.00  0.00    -0.189 NA
ATOM     21  H   UNL     1       1.877   0.877   3.559  0.00  0.00    +0.148 HD
BRANCH  20  22
ATOM     22  C   UNL     1       1.217   2.251   2.081  0.00  0.00    +0.121 C 
BRANCH  22  23
ATOM     23  C   UNL     1       2.207   3.250   2.684  0.00  0.00    +0.101 C 
BRANCH  23  24
ATOM     24  N   UNL     1       2.248   4.461   1.854  0.00  0.00    -0.298 NA
ATOM     25  C   UNL     1       2.799   4.171   0.524  0.00  0.00    +0.103 C 
ATOM     26  C   UNL     1       2.657   5.410  -0.366  0.00  0.00    +0.120 C 
ATOM     27  N   UNL     1       3.270   6.554   0.325  0.00  0.00    -0.325 N 
ATOM     28  C   UNL     1       2.867   6.826   1.713  0.00  0.00    +0.120 C 
ATOM     29  C   UNL     1       3.001   5.532   2.522  0.00  0.00    +0.103 C 
BRANCH  27  30
ATOM     30  C   UNL     1       4.211   7.363  -0.321  0.00  0.00    +0.065 A 
ATOM     31  C   UNL     1       3.797   8.480  -1.033  0.00  0.00    +0.026 A 
ATOM     32  C   UNL     1       4.728   9.277  -1.669  0.00  0.00    +0.002 A 
ATOM     33  C   UNL     1       6.073   8.964  -1.599  0.00  0.00    +0.003 A 
ATOM     34  C   UNL     1       6.491   7.851  -0.891  0.00  0.00    +0.040 A 
ATOM     35  C   UNL     1       5.565   7.053  -0.246  0.00  0.00    +0.144 A 
ATOM     36  F   UNL     1       5.974   5.970   0.450  0.00  0.00    -0.204 F 
ENDBRANCH  27  30
ENDBRANCH  23  24
ENDBRANCH  22  23
ENDBRANCH  20  22
ENDBRANCH   1  20
TORSDOF 6
