REMARK  Name = ZINC09090032
REMARK  5 active torsions:
REMARK  status: ('A' for Active; 'I' for Inactive)
REMARK    1  A    between atoms: C_1  and  O_2
REMARK    2  A    between atoms: O_2  and  C_3
REMARK    3  A    between atoms: C_8  and  O_9
REMARK    4  A    between atoms: O_9  and  C_10
REMARK    5  A    between atoms: C_19  and  C_21
REMARK                            x       y       z     vdW  Elec       q    Type
REMARK                         _______ _______ _______ _____ _____    ______ ____
ROOT
ATOM      1  C   UNL     1      -1.411  -0.427  -0.201  0.00  0.00    +0.162 A 
ATOM      2  C   UNL     1      -2.618   0.243  -0.187  0.00  0.00    +0.064 A 
ATOM      3  C   UNL     1      -3.806  -0.484  -0.125  0.00  0.00    +0.066 A 
ATOM      4  C   UNL     1      -3.774  -1.889  -0.079  0.00  0.00    +0.055 A 
ATOM      5  C   UNL     1      -2.555  -2.550  -0.093  0.00  0.00    +0.073 A 
ATOM      6  C   UNL     1      -1.379  -1.822  -0.160  0.00  0.00    +0.163 A 
ATOM      7  N   UNL     1      -4.973  -2.574  -0.019  0.00  0.00    -0.244 N 
ATOM      8  C   UNL     1      -6.169  -1.907  -0.006  0.00  0.00    +0.230 C 
ATOM      9  N   UNL     1      -6.222  -0.579  -0.050  0.00  0.00    -0.175 NA
ATOM     10  C   UNL     1      -5.123   0.177  -0.108  0.00  0.00    +0.282 C 
ATOM     11  O   UNL     1      -5.208   1.394  -0.147  0.00  0.00    -0.265 OA
ATOM     12  N   UNL     1      -7.321  -2.589   0.052  0.00  0.00    -0.183 NA
ATOM     13  C   UNL     1      -7.407  -3.897   0.100  0.00  0.00    +0.191 C 
ATOM     14  N   UNL     1      -6.301  -4.698   0.095  0.00  0.00    -0.335 N 
ATOM     15  C   UNL     1      -4.981  -4.044   0.032  0.00  0.00    +0.210 C 
ATOM     16  N   UNL     1      -8.641  -4.476   0.156  0.00  0.00    -0.329 N 
ATOM     17  H   UNL     1      -9.438  -3.922   0.161  0.00  0.00    +0.145 HD
ATOM     18  H   UNL     1      -8.723  -5.442   0.192  0.00  0.00    +0.145 HD
ATOM     19  H   UNL     1      -6.381  -5.664   0.131  0.00  0.00    +0.164 HD
ENDROOT
BRANCH  15  20
ATOM     20  C   UNL     1      -4.265  -4.556  -1.192  0.00  0.00    +0.012 A 
ATOM     21  C   UNL     1      -4.215  -3.784  -2.337  0.00  0.00    +0.010 A 
ATOM     22  C   UNL     1      -3.559  -4.253  -3.459  0.00  0.00    +0.020 A 
ATOM     23  C   UNL     1      -2.950  -5.495  -3.436  0.00  0.00    +0.042 A 
ATOM     24  C   UNL     1      -2.999  -6.268  -2.290  0.00  0.00    +0.040 A 
ATOM     25  C   UNL     1      -3.652  -5.796  -1.166  0.00  0.00    +0.049 A 
ATOM     26 CL   UNL     1      -3.709  -6.763   0.275  0.00  0.00    -0.083 Cl
ATOM     27 CL   UNL     1      -2.125  -6.084  -4.846  0.00  0.00    -0.083 Cl
ENDBRANCH  15  20
BRANCH   1  29
ATOM     28  C   UNL     1      -0.351   1.700  -0.301  0.00  0.00    +0.277 C 
ATOM     29  O   UNL     1      -0.247   0.276  -0.261  0.00  0.00    -0.491 OA
ENDBRANCH   1  29
BRANCH   6  30
ATOM     30  O   UNL     1      -0.186  -2.471  -0.180  0.00  0.00    -0.491 OA
ATOM     31  C   UNL     1      -0.222  -3.898  -0.136  0.00  0.00    +0.277 C 
ENDBRANCH   6  30
TORSDOF 3
