REMARK  Name = ZINC13993051
REMARK  7 active torsions:
REMARK  status: ('A' for Active; 'I' for Inactive)
REMARK    1  A    between atoms: C_1  and  C_2
REMARK    2  A    between atoms: C_6  and  O_8
REMARK    3  A    between atoms: O_8  and  C_9
REMARK    4  A    between atoms: C_9  and  C_11
REMARK    5  A    between atoms: C_9  and  C_12
REMARK    6  A    between atoms: N_14  and  N_15
REMARK    7  A    between atoms: C_16  and  C_18
REMARK                            x       y       z     vdW  Elec       q    Type
REMARK                         _______ _______ _______ _____ _____    ______ ____
ROOT
ATOM      1  C   UNL     1      -0.063   1.192   2.682  0.00  0.00    +0.270 C 
ATOM      2  O   UNL     1       0.603   2.015   3.273  0.00  0.00    -0.270 OA
ATOM      3  N   UNL     1      -0.098  -0.084   3.115  0.00  0.00    -0.231 N 
ATOM      4  H   UNL     1      -0.630  -0.742   2.642  0.00  0.00    +0.173 HD
ENDROOT
BRANCH   3   5
ATOM      5  N   UNL     1       0.635  -0.459   4.249  0.00  0.00    -0.230 N 
ATOM      6  C   UNL     1       0.601  -1.735   4.682  0.00  0.00    +0.268 C 
ATOM      7  O   UNL     1      -0.067  -2.561   4.088  0.00  0.00    -0.268 OA
ATOM      8  H   UNL     1       1.168   0.200   4.721  0.00  0.00    +0.173 HD
BRANCH   6   9
ATOM      9  C   UNL     1       1.369  -2.128   5.869  0.00  0.00    +0.095 A 
ATOM     10  C   UNL     1       1.456  -3.353   6.456  0.00  0.00    +0.068 A 
ATOM     11  C   UNL     1       2.258  -3.527   7.600  0.00  0.00    +0.008 A 
ATOM     12  C   UNL     1       2.478  -4.714   8.345  0.00  0.00    +0.010 A 
ATOM     13  C   UNL     1       3.286  -4.709   9.437  0.00  0.00    +0.001 A 
ATOM     14  C   UNL     1       3.924  -3.551   9.866  0.00  0.00    +0.001 A 
ATOM     15  C   UNL     1       3.737  -2.374   9.170  0.00  0.00    +0.016 A 
ATOM     16  C   UNL     1       2.920  -2.364   8.059  0.00  0.00    +0.021 A 
ATOM     17  S   UNL     1       2.414  -1.116   6.903  0.00  0.00    -0.082 S 
ATOM     18 CL   UNL     1       0.582  -4.698   5.793  0.00  0.00    -0.082 Cl
ENDBRANCH   6   9
ENDBRANCH   3   5
BRANCH   1  19
ATOM     19  C   UNL     1      -0.852   1.595   1.463  0.00  0.00    +0.257 C 
ATOM     20  C   UNL     1      -0.295   0.875   0.234  0.00  0.00    +0.062 C 
BRANCH  19  21
ATOM     21  O   UNL     1      -0.748   3.008   1.275  0.00  0.00    -0.480 OA
BRANCH  21  27
ATOM     22  C   UNL     1      -2.827   7.113  -0.354  0.00  0.00    +0.044 C 
ATOM     23  C   UNL     1      -2.802   5.612  -0.222  0.00  0.00    -0.047 A 
ATOM     24  C   UNL     1      -3.804   4.851  -0.795  0.00  0.00    +0.003 A 
ATOM     25  C   UNL     1      -3.784   3.474  -0.675  0.00  0.00    +0.004 A 
ATOM     26  C   UNL     1      -2.762   2.854   0.018  0.00  0.00    +0.046 A 
ATOM     27  C   UNL     1      -1.755   3.615   0.593  0.00  0.00    +0.122 A 
ATOM     28  C   UNL     1      -1.780   4.998   0.476  0.00  0.00    +0.049 A 
ENDBRANCH  21  27
ENDBRANCH  19  21
ENDBRANCH   1  19
TORSDOF 5
