REMARK  Name = ZINC40740949
REMARK  3 active torsions:
REMARK  status: ('A' for Active; 'I' for Inactive)
REMARK    1  A    between atoms: C_6  and  S_7
REMARK    2  A    between atoms: S_7  and  N_10
REMARK    3  A    between atoms: N_10  and  C_11
REMARK                            x       y       z     vdW  Elec       q    Type
REMARK                         _______ _______ _______ _____ _____    ______ ____
ROOT
ATOM      1  S   UNL     1      -1.423  -0.758  -0.045  0.00  0.00    +0.059 S 
ATOM      2  O   UNL     1      -0.993  -1.969   0.560  0.00  0.00    -0.153 OA
ATOM      3  O   UNL     1      -2.427   0.067   0.530  0.00  0.00    -0.153 OA
ENDROOT
BRANCH   1   9
ATOM      4  C   UNL     1      -0.115   1.623  -0.319  0.00  0.00    +0.029 A 
ATOM      5  C   UNL     1       1.010   2.410  -0.464  0.00  0.00    +0.006 A 
ATOM      6  C   UNL     1       2.265   1.828  -0.523  0.00  0.00    -0.044 A 
ATOM      7  C   UNL     1       2.391   0.454  -0.436  0.00  0.00    -0.042 A 
ATOM      8  C   UNL     1       1.262  -0.334  -0.290  0.00  0.00    +0.032 A 
ATOM      9  C   UNL     1       0.011   0.249  -0.231  0.00  0.00    +0.106 A 
ATOM     10  C   UNL     1       3.852   0.068  -0.526  0.00  0.00    +0.036 C 
ATOM     11  C   UNL     1       4.562   1.306  -1.113  0.00  0.00    +0.009 C 
ATOM     12  C   UNL     1       3.633   2.459  -0.677  0.00  0.00    +0.036 C 
ENDBRANCH   1   9
BRANCH   1  13
ATOM     13  N   UNL     1      -1.947  -1.149  -1.567  0.00  0.00    -0.187 NA
ATOM     14  H   UNL     1      -2.807  -0.827  -1.881  0.00  0.00    +0.148 HD
BRANCH  13  15
ATOM     15  C   UNL     1      -1.113  -1.980  -2.438  0.00  0.00    +0.073 C 
ATOM     16  C   UNL     1      -1.893  -3.233  -2.846  0.00  0.00    +0.004 C 
ATOM     17  C   UNL     1      -3.082  -2.814  -3.726  0.00  0.00    -0.070 C 
ATOM     18  C   UNL     1      -3.807  -1.647  -3.018  0.00  0.00    -0.017 C 
ATOM     19  C   UNL     1      -3.095  -0.375  -3.522  0.00  0.00    -0.017 C 
ATOM     20  C   UNL     1      -2.004  -0.889  -4.490  0.00  0.00    -0.070 C 
ATOM     21  C   UNL     1      -0.727  -1.182  -3.687  0.00  0.00    +0.004 C 
ATOM     22  N   UNL     1      -2.522  -2.216  -4.967  0.00  0.00    +0.383 N 
ATOM     23  H   UNL     1      -1.777  -2.789  -5.334  0.00  0.00    -0.085 HD
ATOM     24  H   UNL     1      -3.246  -2.087  -5.658  0.00  0.00    -0.085 HD
ENDBRANCH  13  15
ENDBRANCH   1  13
TORSDOF 3
