REMARK  Name = ZINC63280882
REMARK  8 active torsions:
REMARK  status: ('A' for Active; 'I' for Inactive)
REMARK    1  A    between atoms: C_6  and  C_11
REMARK    2  A    between atoms: N_13  and  C_14
REMARK    3  A    between atoms: C_14  and  C_15
REMARK    4  A    between atoms: C_15  and  C_16
REMARK    5  A    between atoms: C_16  and  C_17
REMARK    6  A    between atoms: C_17  and  C_18
REMARK    7  A    between atoms: C_18  and  C_19
REMARK    8  A    between atoms: N_21  and  C_22
REMARK                            x       y       z     vdW  Elec       q    Type
REMARK                         _______ _______ _______ _____ _____    ______ ____
ROOT
ATOM      1  C   UNL     1       3.911  -6.933   3.797  0.00  0.00    +0.002 C 
ENDROOT
BRANCH   1   2
ATOM      2  C   UNL     1       3.391  -6.211   2.553  0.00  0.00    +0.019 C 
BRANCH   2   3
ATOM      3  C   UNL     1       3.862  -4.756   2.573  0.00  0.00    +0.104 C 
BRANCH   3   6
ATOM      4  C   UNL     1       3.656  -2.764   1.185  0.00  0.00    +0.239 C 
ATOM      5  O   UNL     1       4.332  -2.165   1.995  0.00  0.00    -0.273 OA
ATOM      6  N   UNL     1       3.363  -4.065   1.381  0.00  0.00    -0.313 N 
ATOM      7  H   UNL     1       2.823  -4.543   0.734  0.00  0.00    +0.149 HD
BRANCH   4  13
ATOM      8  C   UNL     1      -0.016   1.348   0.009  0.00  0.00    +0.001 A 
ATOM      9  C   UNL     1       1.166   2.101   0.002  0.00  0.00    +0.002 A 
ATOM     10  C   UNL     1       2.391   1.535  -0.013  0.00  0.00    +0.026 A 
ATOM     11  C   UNL     1       2.529   0.120  -0.022  0.00  0.00    +0.043 A 
ATOM     12  N   UNL     1       3.587  -0.654  -0.037  0.00  0.00    -0.370 N 
ATOM     13  C   UNL     1       3.143  -2.053  -0.041  0.00  0.00    +0.190 C 
ATOM     14  C   UNL     1       1.631  -2.008  -0.025  0.00  0.00    +0.016 C 
ATOM     15  C   UNL     1       1.295  -0.698  -0.014  0.00  0.00    -0.004 A 
ATOM     16  C   UNL     1       0.002  -0.004   0.002  0.00  0.00    +0.010 A 
ATOM     17  H   UNL     1       4.509  -0.353  -0.045  0.00  0.00    +0.161 HD
ENDBRANCH   4  13
ENDBRANCH   3   6
ENDBRANCH   2   3
ENDBRANCH   1   2
BRANCH   1  18
ATOM     18  C   UNL     1       3.440  -8.389   3.777  0.00  0.00    +0.009 C 
BRANCH  18  19
ATOM     19  C   UNL     1       3.960  -9.111   5.022  0.00  0.00    +0.096 C 
BRANCH  19  20
ATOM     20  C   UNL     1       3.496 -10.544   5.002  0.00  0.00    +0.215 C 
ATOM     21  O   UNL     1       2.816 -10.949   4.083  0.00  0.00    -0.276 OA
ATOM     22  N   UNL     1       3.837 -11.377   6.006  0.00  0.00    -0.288 N 
ATOM     23  H   UNL     1       4.381 -11.053   6.741  0.00  0.00    +0.151 HD
BRANCH  22  24
ATOM     24  C   UNL     1       3.386 -12.770   5.987  0.00  0.00    +0.224 C 
ATOM     25  N   UNL     1       4.082 -13.565   7.007  0.00  0.00    -0.316 N 
ATOM     26  C   UNL     1       3.308 -14.141   8.014  0.00  0.00    +0.043 A 
ATOM     27  C   UNL     1       3.796 -14.931   9.070  0.00  0.00    +0.024 A 
ATOM     28  C   UNL     1       2.948 -15.456  10.017  0.00  0.00    +0.002 A 
ATOM     29  C   UNL     1       1.586 -15.225   9.963  0.00  0.00    +0.001 A 
ATOM     30  C   UNL     1       1.077 -14.450   8.934  0.00  0.00    +0.016 A 
ATOM     31  C   UNL     1       1.927 -13.925   7.987  0.00  0.00    +0.032 A 
ATOM     32  S   UNL     1       1.643 -12.909   6.554  0.00  0.00    -0.082 S 
ATOM     33  H   UNL     1       5.044 -13.685   6.981  0.00  0.00    +0.149 HD
ENDBRANCH  22  24
ENDBRANCH  19  20
ENDBRANCH  18  19
ENDBRANCH   1  18
TORSDOF 8
