REMARK  Name = ZINC04843282
REMARK  9 active torsions:
REMARK  status: ('A' for Active; 'I' for Inactive)
REMARK    1  A    between atoms: C_1  and  O_2
REMARK    2  A    between atoms: O_2  and  C_3
REMARK    3  A    between atoms: C_5  and  C_15
REMARK    4  A    between atoms: C_8  and  O_9
REMARK    5  A    between atoms: O_9  and  C_10
REMARK    6  A    between atoms: C_10  and  C_11
REMARK    7  A    between atoms: C_15  and  N_38
REMARK    8  A    between atoms: C_16  and  C_17
REMARK    9  A    between atoms: C_16  and  N_38
REMARK                            x       y       z     vdW  Elec       q    Type
REMARK                         _______ _______ _______ _____ _____    ______ ____
ROOT
ATOM      1  C   UNL     1       0.807   1.987   2.993  0.00  0.00    +0.163 A 
ATOM      2  C   UNL     1       1.347   1.611   4.213  0.00  0.00    +0.051 A 
ATOM      3  C   UNL     1       0.936   0.439   4.819  0.00  0.00    -0.060 A 
ATOM      4  C   UNL     1      -0.013  -0.362   4.211  0.00  0.00    +0.021 A 
ATOM      5  C   UNL     1      -0.559   0.009   2.996  0.00  0.00    +0.063 A 
ATOM      6  C   UNL     1      -0.148   1.182   2.381  0.00  0.00    +0.176 A 
ATOM      7 BR   UNL     1      -1.862  -1.085   2.171  0.00  0.00    -0.046 Br
ENDROOT
BRANCH   1   9
ATOM      8  C   UNL     1       2.193   3.917   3.082  0.00  0.00    +0.277 C 
ATOM      9  O   UNL     1       1.210   3.140   2.396  0.00  0.00    -0.491 OA
ENDBRANCH   1   9
BRANCH   6  10
ATOM     10  O   UNL     1      -0.682   1.547   1.184  0.00  0.00    -0.478 OA
BRANCH  10  11
ATOM     11  C   UNL     1      -0.013   1.086   0.008  0.00  0.00    +0.324 C 
BRANCH  11  12
ATOM     12  C   UNL     1      -0.742   1.585  -1.213  0.00  0.00    +0.248 C 
ATOM     13  O   UNL     1      -1.736   2.268  -1.088  0.00  0.00    -0.272 OA
ATOM     14  N   UNL     1      -0.288   1.272  -2.443  0.00  0.00    -0.327 N 
ATOM     15  H   UNL     1       0.507   0.726  -2.543  0.00  0.00    +0.145 HD
ATOM     16  H   UNL     1      -0.758   1.594  -3.229  0.00  0.00    +0.145 HD
ENDBRANCH  11  12
ENDBRANCH  10  11
ENDBRANCH   6  10
BRANCH   3  17
ATOM     17  C   UNL     1       1.525   0.032   6.145  0.00  0.00    -0.046 C 
BRANCH  17  18
ATOM     18  N   UNL     1       0.703   0.598   7.232  0.00  0.00    +0.385 N 
ATOM     19  H   UNL     1      -0.256   0.241   7.152  0.00  0.00    -0.085 HD
ATOM     20  H   UNL     1       0.695   1.621   7.153  0.00  0.00    -0.085 HD
BRANCH  18  21
ATOM     21  C   UNL     1       1.257   0.215   8.545  0.00  0.00    -0.039 C 
BRANCH  21  22
ATOM     22  C   UNL     1       0.399   0.805   9.634  0.00  0.00    -0.027 A 
ATOM     23  C   UNL     1      -0.687   0.275  10.246  0.00  0.00    +0.009 A 
ATOM     24  C   UNL     1      -1.323   1.004  11.234  0.00  0.00    +0.008 A 
ATOM     25  C   UNL     1      -0.847   2.233  11.553  0.00  0.00    +0.045 A 
ATOM     26  S   UNL     1       0.546   2.388  10.447  0.00  0.00    -0.104 S 
ENDBRANCH  21  22
ENDBRANCH  18  21
ENDBRANCH  17  18
ENDBRANCH   3  17
TORSDOF 8
