REMARK  Name = ZINC66602731
REMARK  9 active torsions:
REMARK  status: ('A' for Active; 'I' for Inactive)
REMARK    1  A    between atoms: C_1  and  C_2
REMARK    2  A    between atoms: C_2  and  C_4
REMARK    3  A    between atoms: C_2  and  N_22
REMARK    4  A    between atoms: C_4  and  C_5
REMARK    5  A    between atoms: N_7  and  C_8
REMARK    6  A    between atoms: C_8  and  C_9
REMARK    7  A    between atoms: C_12  and  C_15
REMARK    8  A    between atoms: C_15  and  N_16
REMARK    9  A    between atoms: C_23  and  C_25
REMARK                            x       y       z     vdW  Elec       q    Type
REMARK                         _______ _______ _______ _____ _____    ______ ____
ROOT
ATOM      1  C   UNL     1       0.657  -2.014   1.298  0.00  0.00    +0.215 C 
ATOM      2  O   UNL     1       0.062  -2.621   0.432  0.00  0.00    -0.276 OA
ATOM      3  N   UNL     1       1.241  -2.685   2.311  0.00  0.00    -0.311 N 
ATOM      4  H   UNL     1       1.716  -2.200   3.003  0.00  0.00    +0.149 HD
ENDROOT
BRANCH   1   5
ATOM      5  C   UNL     1       0.742  -0.511   1.242  0.00  0.00    +0.117 C 
BRANCH   5   7
ATOM      6  C   UNL     1      -0.019   1.526   0.010  0.00  0.00    +0.028 C 
ATOM      7  C   UNL     1       0.002  -0.004   0.002  0.00  0.00    +0.079 C 
BRANCH   7   8
ATOM      8  N   UNL     1       0.688  -0.476  -1.203  0.00  0.00    -0.312 N 
ATOM      9  C   UNL     1       0.006  -0.608  -2.358  0.00  0.00    +0.216 C 
ATOM     10  O   UNL     1      -1.175  -0.336  -2.400  0.00  0.00    -0.276 OA
ATOM     11  H   UNL     1       1.632  -0.695  -1.170  0.00  0.00    +0.149 HD
BRANCH   9  12
ATOM     12  C   UNL     1       0.712  -1.094  -3.598  0.00  0.00    +0.075 C 
ATOM     13  C   UNL     1       1.849  -0.133  -3.948  0.00  0.00    +0.013 C 
ATOM     14  C   UNL     1       2.565  -0.626  -5.207  0.00  0.00    +0.001 C 
ATOM     15  C   UNL     1       1.572  -0.685  -6.369  0.00  0.00    +0.000 C 
ATOM     16  C   UNL     1       0.434  -1.646  -6.019  0.00  0.00    +0.001 C 
ATOM     17  C   UNL     1      -0.282  -1.153  -4.761  0.00  0.00    +0.013 C 
ENDBRANCH   9  12
ENDBRANCH   7   8
ENDBRANCH   5   7
ENDBRANCH   1   5
BRANCH   3  18
ATOM     18  C   UNL     1       1.158  -4.147   2.365  0.00  0.00    +0.139 C 
BRANCH  18  19
ATOM     19  C   UNL     1       1.887  -4.646   3.586  0.00  0.00    -0.030 A 
ATOM     20  C   UNL     1       3.233  -4.951   3.511  0.00  0.00    +0.005 A 
ATOM     21  C   UNL     1       3.901  -5.409   4.631  0.00  0.00    +0.002 A 
ATOM     22  C   UNL     1       3.224  -5.561   5.826  0.00  0.00    -0.064 A 
ATOM     23  C   UNL     1       1.878  -5.256   5.901  0.00  0.00    +0.002 A 
ATOM     24  C   UNL     1       1.210  -4.794   4.782  0.00  0.00    +0.005 A 
BRANCH  22  25
ATOM     25  C   UNL     1       3.953  -6.062   7.047  0.00  0.00    -0.043 C 
BRANCH  25  26
ATOM     26  N   UNL     1       4.505  -4.921   7.789  0.00  0.00    +0.382 N 
ATOM     27  C   UNL     1       5.520  -4.250   6.968  0.00  0.00    -0.078 C 
ATOM     28  C   UNL     1       6.041  -3.014   7.703  0.00  0.00    -0.019 C 
ATOM     29  C   UNL     1       6.662  -3.442   9.036  0.00  0.00    -0.004 C 
ATOM     30  C   UNL     1       5.616  -4.206   9.853  0.00  0.00    -0.019 C 
ATOM     31  C   UNL     1       5.110  -5.398   9.038  0.00  0.00    -0.078 C 
ATOM     32  H   UNL     1       3.765  -4.269   8.003  0.00  0.00    -0.081 HD
ENDBRANCH  25  26
ENDBRANCH  22  25
ENDBRANCH  18  19
ENDBRANCH   3  18
TORSDOF 8
