REMARK  Name = ZINC08619143
REMARK  12 active torsions:
REMARK  status: ('A' for Active; 'I' for Inactive)
REMARK    1  A    between atoms: C_1  and  C_2
REMARK    2  A    between atoms: C_2  and  C_3
REMARK    3  A    between atoms: C_2  and  C_4
REMARK    4  A    between atoms: C_4  and  C_6
REMARK    5  A    between atoms: C_4  and  N_19
REMARK    6  A    between atoms: N_8  and  C_9
REMARK    7  A    between atoms: C_11  and  O_17
REMARK    8  A    between atoms: C_14  and  O_15
REMARK    9  A    between atoms: O_15  and  C_16
REMARK   10  A    between atoms: O_17  and  C_18
REMARK   11  A    between atoms: N_19  and  S_20
REMARK   12  A    between atoms: S_20  and  C_23
REMARK                            x       y       z     vdW  Elec       q    Type
REMARK                         _______ _______ _______ _____ _____    ______ ____
ROOT
ATOM      1  C   UNL     1      -1.303  -0.884  -0.471  0.00  0.00    +0.165 C 
ENDROOT
BRANCH   1   2
ATOM      2  C   UNL     1      -2.323  -0.354  -1.445  0.00  0.00    +0.236 C 
ATOM      3  O   UNL     1      -2.675  -1.035  -2.385  0.00  0.00    -0.274 OA
ATOM      4  N   UNL     1      -2.844   0.877  -1.272  0.00  0.00    -0.281 N 
ATOM      5  H   UNL     1      -2.529   1.440  -0.548  0.00  0.00    +0.155 HD
BRANCH   4   6
ATOM      6  C   UNL     1      -3.842   1.343  -2.138  0.00  0.00    +0.079 A 
ATOM      7  C   UNL     1      -4.596   0.444  -2.877  0.00  0.00    +0.072 A 
ATOM      8  C   UNL     1      -5.582   0.908  -3.734  0.00  0.00    +0.122 A 
ATOM      9  C   UNL     1      -5.815   2.271  -3.852  0.00  0.00    +0.049 A 
ATOM     10  C   UNL     1      -5.064   3.169  -3.116  0.00  0.00    +0.051 A 
ATOM     11  C   UNL     1      -4.082   2.710  -2.254  0.00  0.00    +0.141 A 
BRANCH  11  12
ATOM     12  O   UNL     1      -3.348   3.594  -1.526  0.00  0.00    -0.493 OA
ATOM     13  C   UNL     1      -3.648   4.981  -1.695  0.00  0.00    +0.277 C 
ENDBRANCH  11  12
BRANCH   8  14
ATOM     14  O   UNL     1      -6.322   0.028  -4.459  0.00  0.00    -0.495 OA
ATOM     15  C   UNL     1      -7.321   0.576  -5.322  0.00  0.00    +0.277 C 
ENDBRANCH   8  14
ENDBRANCH   4   6
ENDBRANCH   1   2
BRANCH   1  17
ATOM     16  C   UNL     1       1.101  -0.796   0.205  0.00  0.00    +0.009 C 
ATOM     17  C   UNL     1       0.086  -0.375  -0.860  0.00  0.00    +0.010 C 
ATOM     18  C   UNL     1       0.488  -0.970  -2.211  0.00  0.00    +0.009 C 
ENDBRANCH   1  17
BRANCH   1  19
ATOM     19  N   UNL     1      -1.312  -2.349  -0.502  0.00  0.00    -0.178 NA
ATOM     20  H   UNL     1      -1.093  -2.818  -1.322  0.00  0.00    +0.149 HD
BRANCH  19  21
ATOM     21  S   UNL     1      -1.698  -3.203   0.864  0.00  0.00    +0.059 S 
ATOM     22  O   UNL     1      -1.663  -4.578   0.505  0.00  0.00    -0.153 OA
ATOM     23  O   UNL     1      -0.903  -2.669   1.914  0.00  0.00    -0.153 OA
BRANCH  21  24
ATOM     24  C   UNL     1      -3.373  -2.828   1.258  0.00  0.00    +0.106 A 
ATOM     25  C   UNL     1      -3.673  -1.760   2.085  0.00  0.00    +0.030 A 
ATOM     26  C   UNL     1      -4.984  -1.479   2.380  0.00  0.00    +0.025 A 
ATOM     27  C   UNL     1      -6.036  -2.256   1.862  0.00  0.00    +0.037 A 
ATOM     28  C   UNL     1      -5.731  -3.321   1.042  0.00  0.00    -0.024 A 
ATOM     29  C   UNL     1      -4.395  -3.591   0.741  0.00  0.00    +0.034 A 
ATOM     30  C   UNL     1      -6.729  -4.247   0.427  0.00  0.00    +0.037 C 
ATOM     31  C   UNL     1      -7.929  -4.561   1.265  0.00  0.00    +0.014 C 
ATOM     32  C   UNL     1      -8.955  -3.453   1.284  0.00  0.00    +0.096 C 
ATOM     33  C   UNL     1      -8.510  -2.298   2.106  0.00  0.00    +0.217 C 
ATOM     34  O   UNL     1      -9.371  -1.716   2.730  0.00  0.00    -0.275 OA
ATOM     35  N   UNL     1      -7.295  -1.843   2.231  0.00  0.00    -0.285 N 
ATOM     36  H   UNL     1      -7.274  -0.996   2.704  0.00  0.00    +0.155 HD
ENDBRANCH  21  24
ENDBRANCH  19  21
ENDBRANCH   1  19
TORSDOF 8
