REMARK  Name = ZINC38652166
REMARK  16 active torsions:
REMARK  status: ('A' for Active; 'I' for Inactive)
REMARK    1  A    between atoms: C_1  and  O_2
REMARK    2  A    between atoms: O_2  and  C_3
REMARK    3  A    between atoms: C_3  and  C_5
REMARK    4  A    between atoms: C_5  and  C_6
REMARK    5  A    between atoms: C_6  and  C_7
REMARK    6  A    between atoms: C_7  and  C_8
REMARK    7  A    between atoms: C_9  and  C_10
REMARK    8  A    between atoms: C_10  and  C_11
REMARK    9  A    between atoms: C_13  and  O_36
REMARK   10  A    between atoms: C_16  and  O_35
REMARK   11  A    between atoms: C_18  and  C_20
REMARK   12  A    between atoms: C_21  and  C_22
REMARK   13  A    between atoms: C_22  and  C_24
REMARK   14  A    between atoms: C_22  and  O_34
REMARK   15  A    between atoms: C_24  and  C_26
REMARK   16  A    between atoms: C_26  and  C_27
REMARK                            x       y       z     vdW  Elec       q    Type
REMARK                         _______ _______ _______ _____ _____    ______ ____
ROOT
ATOM      1  C   UNL     1       1.556  -5.434   6.977  0.00  0.00    +0.039 C 
ATOM      2  C   UNL     1       0.299  -6.328   6.989  0.00  0.00    +0.122 C 
ATOM      3  C   UNL     1       0.087  -6.665   8.486  0.00  0.00    +0.064 C 
ATOM      4  C   UNL     1       1.536  -6.846   9.004  0.00  0.00    +0.132 C 
ATOM      5  C   UNL     1       2.343  -5.762   8.258  0.00  0.00    +0.098 C 
ENDROOT
BRANCH   5   6
ATOM      6  C   UNL     1       2.466  -4.558   9.096  0.00  0.00    -0.093 C 
ATOM      7  C   UNL     1       2.565  -3.598   9.765  0.00  0.00    -0.068 C 
BRANCH   7   8
ATOM      8  C   UNL     1       2.689  -2.395  10.603  0.00  0.00    +0.222 C 
BRANCH   8   9
ATOM      9  C   UNL     1       3.428  -1.305   9.824  0.00  0.00    +0.207 C 
ATOM     10  F   UNL     1       4.703  -1.764   9.476  0.00  0.00    -0.242 F 
BRANCH   9  11
ATOM     11  C   UNL     1       3.557  -0.053  10.695  0.00  0.00    +0.044 C 
BRANCH  11  12
ATOM     12  C   UNL     1       4.184   1.076   9.876  0.00  0.00    -0.008 C 
ATOM     13  C   UNL     1       5.617   0.697   9.498  0.00  0.00    +0.003 C 
ATOM     14  C   UNL     1       6.244   1.827   8.678  0.00  0.00    +0.000 C 
ATOM     15  C   UNL     1       6.258   3.112   9.509  0.00  0.00    +0.000 C 
ATOM     16  C   UNL     1       4.825   3.491   9.887  0.00  0.00    +0.000 C 
ATOM     17  C   UNL     1       4.198   2.361  10.706  0.00  0.00    +0.003 C 
ENDBRANCH  11  12
ENDBRANCH   9  11
ENDBRANCH   8   9
BRANCH   8  18
ATOM     18  O   UNL     1       1.387  -1.926  10.958  0.00  0.00    -0.376 OA
ATOM     19  H   UNL     1       0.833  -1.691  10.201  0.00  0.00    +0.211 HD
ENDBRANCH   8  18
ENDBRANCH   7   8
ENDBRANCH   5   6
BRANCH   4  20
ATOM     20  O   UNL     1       1.592  -6.632  10.415  0.00  0.00    -0.390 OA
ATOM     21  H   UNL     1       1.056  -7.252  10.929  0.00  0.00    +0.210 HD
ENDBRANCH   4  20
BRANCH   2  22
ATOM     22  O   UNL     1      -0.826  -5.616   6.470  0.00  0.00    -0.391 OA
ATOM     23  H   UNL     1      -1.644  -6.131   6.454  0.00  0.00    +0.210 HD
ENDBRANCH   2  22
BRANCH   1  24
ATOM     24  C   UNL     1       2.408  -5.744   5.745  0.00  0.00    +0.034 C 
BRANCH  24  26
ATOM     25  C   UNL     1       2.232  -4.498   3.652  0.00  0.00    -0.031 C 
ATOM     26  C   UNL     1       1.668  -5.320   4.502  0.00  0.00    -0.031 C 
BRANCH  25  27
ATOM     27  C   UNL     1       1.492  -4.074   2.410  0.00  0.00    +0.027 C 
BRANCH  27  28
ATOM     28  C   UNL     1       1.430  -2.546   2.350  0.00  0.00    +0.015 C 
BRANCH  28  29
ATOM     29  C   UNL     1       0.679  -2.115   1.088  0.00  0.00    +0.121 C 
BRANCH  29  30
ATOM     30  C   UNL     1       0.618  -0.611   1.029  0.00  0.00    +0.307 C 
ATOM     31  O   UNL     1       1.124   0.049   1.905  0.00  0.00    -0.251 OA
BRANCH  30  33
ATOM     32  C   UNL     1      -0.017   1.425   0.010  0.00  0.00    +0.280 C 
ATOM     33  O   UNL     1       0.002  -0.004   0.002  0.00  0.00    -0.468 OA
ENDBRANCH  30  33
ENDBRANCH  29  30
ENDBRANCH  28  29
ENDBRANCH  27  28
ENDBRANCH  25  27
ENDBRANCH  24  26
ENDBRANCH   1  24
TORSDOF 15
