REMARK  Name = ZINC04363673
REMARK  8 active torsions:
REMARK  status: ('A' for Active; 'I' for Inactive)
REMARK    1  A    between atoms: C_1  and  N_2
REMARK    2  A    between atoms: C_3  and  C_8
REMARK    3  A    between atoms: C_6  and  S_7
REMARK    4  A    between atoms: C_8  and  S_9
REMARK    5  A    between atoms: S_9  and  C_10
REMARK    6  A    between atoms: C_13  and  C_14
REMARK    7  A    between atoms: C_13  and  C_20
REMARK    8  A    between atoms: C_13  and  N_48
REMARK                            x       y       z     vdW  Elec       q    Type
REMARK                         _______ _______ _______ _____ _____    ______ ____
ROOT
ATOM      1  C   UNL     1      -1.890   0.806   2.761  0.00  0.00    +0.014 C 
ATOM      2  C   UNL     1      -2.090   1.067   1.261  0.00  0.00    -0.065 C 
ATOM      3  C   UNL     1      -0.412   0.683   2.367  0.00  0.00    -0.065 C 
ATOM      4  N   UNL     1      -0.764   1.460   1.276  0.00  0.00    +0.388 N 
ATOM      5  H   UNL     1      -0.651   2.465   1.453  0.00  0.00    -0.080 HD
ENDROOT
BRANCH   1   6
ATOM      6  S   UNL     1      -2.634  -0.739   3.351  0.00  0.00    -0.153 S 
BRANCH   6   7
ATOM      7  C   UNL     1      -2.372  -0.695   5.146  0.00  0.00    +0.145 C 
BRANCH   7  10
ATOM      8  C   UNL     1      -5.296  -1.093   6.234  0.00  0.00    +0.152 C 
ATOM      9  N   UNL     1      -4.226  -2.093   6.237  0.00  0.00    -0.309 N 
ATOM     10  C   UNL     1      -2.951  -1.940   5.768  0.00  0.00    +0.144 A 
ATOM     11  N   UNL     1      -2.327  -3.066   5.966  0.00  0.00    -0.133 NA
ATOM     12  N   UNL     1      -3.116  -3.917   6.518  0.00  0.00    -0.123 NA
ATOM     13  C   UNL     1      -4.297  -3.374   6.705  0.00  0.00    +0.188 A 
BRANCH  13  14
ATOM     14  S   UNL     1      -5.704  -4.149   7.428  0.00  0.00    -0.103 S 
ATOM     15  H   UNL     1      -5.498  -3.816   8.783  0.00  0.00    +0.110 HD
ENDBRANCH  13  14
ENDBRANCH   7  10
ENDBRANCH   6   7
ENDBRANCH   1   6
BRANCH   4  16
ATOM     16  C   UNL     1      -0.013   1.086   0.008  0.00  0.00    -0.007 C 
BRANCH  16  17
ATOM     17  C   UNL     1       1.401   1.607  -0.003  0.00  0.00    -0.057 A 
ATOM     18  C   UNL     1       1.663   2.902   0.406  0.00  0.00    +0.002 A 
ATOM     19  C   UNL     1       2.961   3.379   0.401  0.00  0.00    +0.000 A 
ATOM     20  C   UNL     1       3.995   2.564  -0.023  0.00  0.00    +0.000 A 
ATOM     21  C   UNL     1       3.732   1.272  -0.437  0.00  0.00    +0.000 A 
ATOM     22  C   UNL     1       2.435   0.793  -0.426  0.00  0.00    +0.002 A 
ENDBRANCH  16  17
BRANCH  16  23
ATOM     23  C   UNL     1      -0.742   1.585  -1.213  0.00  0.00    -0.057 A 
ATOM     24  C   UNL     1      -1.257   2.868  -1.234  0.00  0.00    +0.002 A 
ATOM     25  C   UNL     1      -1.922   3.327  -2.356  0.00  0.00    +0.000 A 
ATOM     26  C   UNL     1      -2.079   2.501  -3.453  0.00  0.00    +0.000 A 
ATOM     27  C   UNL     1      -1.568   1.216  -3.429  0.00  0.00    +0.000 A 
ATOM     28  C   UNL     1      -0.899   0.759  -2.310  0.00  0.00    +0.002 A 
ENDBRANCH  16  23
ENDBRANCH   4  16
TORSDOF 7
