REMARK  Name = ZINC09008343
REMARK  11 active torsions:
REMARK  status: ('A' for Active; 'I' for Inactive)
REMARK    1  A    between atoms: C_1  and  C_2
REMARK    2  A    between atoms: C_2  and  N_57
REMARK    3  A    between atoms: C_3  and  C_4
REMARK    4  A    between atoms: C_3  and  N_57
REMARK    5  A    between atoms: C_5  and  C_6
REMARK    6  A    between atoms: C_5  and  N_57
REMARK    7  A    between atoms: C_6  and  N_7
REMARK    8  A    between atoms: C_8  and  C_24
REMARK    9  A    between atoms: C_11  and  C_12
REMARK   10  A    between atoms: C_11  and  O_19
REMARK   11  A    between atoms: C_15  and  C_18
REMARK                            x       y       z     vdW  Elec       q    Type
REMARK                         _______ _______ _______ _____ _____    ______ ____
ROOT
ATOM      1  N   UNL     1      -0.588  -0.164   0.083  0.00  0.00    -0.285 N 
ATOM      2  C   UNL     1      -0.262  -0.980  -1.090  0.00  0.00    +0.144 C 
ATOM      3  C   UNL     1      -0.150  -2.407  -0.607  0.00  0.00    +0.071 C 
ATOM      4  C   UNL     1       0.146  -3.519  -1.368  0.00  0.00    +0.133 C 
ATOM      5  C   UNL     1      -0.415  -2.374   0.772  0.00  0.00    +0.249 C 
ATOM      6  O   UNL     1      -0.424  -3.334   1.521  0.00  0.00    -0.282 OA
ATOM      7  C   UNL     1      -0.682  -0.962   1.159  0.00  0.00    +0.288 C 
ATOM      8  O   UNL     1      -0.945  -0.587   2.283  0.00  0.00    -0.266 OA
ENDROOT
BRANCH   4   9
ATOM      9  C   UNL     1       0.327  -4.830  -0.718  0.00  0.00    +0.017 A 
ATOM     10  C   UNL     1       1.160  -4.951   0.399  0.00  0.00    +0.012 A 
ATOM     11  C   UNL     1       1.320  -6.179   1.005  0.00  0.00    +0.004 A 
ATOM     12  C   UNL     1       0.668  -7.293   0.503  0.00  0.00    -0.050 A 
ATOM     13  C   UNL     1      -0.153  -7.182  -0.606  0.00  0.00    +0.004 A 
ATOM     14  C   UNL     1      -0.328  -5.959  -1.219  0.00  0.00    +0.012 A 
ATOM     15  C   UNL     1       0.853  -8.632   1.167  0.00  0.00    +0.044 C 
ENDBRANCH   4   9
BRANCH   2  16
ATOM     16  C   UNL     1       1.052  -0.534  -1.679  0.00  0.00    -0.021 A 
ATOM     17  C   UNL     1       2.098  -0.181  -0.848  0.00  0.00    +0.006 A 
ATOM     18  C   UNL     1       3.305   0.222  -1.388  0.00  0.00    +0.001 A 
ATOM     19  C   UNL     1       3.462   0.284  -2.760  0.00  0.00    +0.015 A 
ATOM     20  C   UNL     1       2.414  -0.063  -3.592  0.00  0.00    +0.018 A 
ATOM     21  C   UNL     1       1.208  -0.472  -3.051  0.00  0.00    +0.021 A 
ATOM     22 BR   UNL     1       2.628   0.022  -5.469  0.00  0.00    -0.050 Br
ENDBRANCH   2  16
BRANCH   4  23
ATOM     23  O   UNL     1       0.270  -3.407  -2.707  0.00  0.00    -0.506 OA
ATOM     24  H   UNL     1       0.484  -4.302  -3.098  0.00  0.00    +0.292 HD
ENDBRANCH   4  23
BRANCH   1  25
ATOM     25  C   UNL     1      -0.787   1.288   0.080  0.00  0.00    +0.090 C 
BRANCH  25  26
ATOM     26  C   UNL     1       0.549   1.986   0.344  0.00  0.00    -0.060 C 
BRANCH  26  27
ATOM     27  N   UNL     1       0.336   3.448   0.317  0.00  0.00    +0.380 N 
ATOM     28  H   UNL     1      -0.153   3.698  -0.550  0.00  0.00    -0.082 HD
BRANCH  27  30
ATOM     29  C   UNL     1       0.225   3.544   2.785  0.00  0.00    -0.017 C 
ATOM     30  C   UNL     1      -0.492   3.859   1.471  0.00  0.00    -0.082 C 
ENDBRANCH  27  30
BRANCH  27  31
ATOM     31  C   UNL     1       1.637   4.149   0.354  0.00  0.00    -0.082 C 
ATOM     32  C   UNL     1       1.417   5.614  -0.029  0.00  0.00    -0.017 C 
ENDBRANCH  27  31
ENDBRANCH  26  27
ENDBRANCH  25  26
ENDBRANCH   1  25
TORSDOF 8
