REMARK  Name = ZINC15938608
REMARK  6 active torsions:
REMARK  status: ('A' for Active; 'I' for Inactive)
REMARK    1  A    between atoms: C_1  and  O_2
REMARK    2  A    between atoms: O_2  and  C_3
REMARK    3  A    between atoms: C_7  and  C_10
REMARK    4  A    between atoms: C_8  and  O_9
REMARK    5  A    between atoms: N_11  and  C_12
REMARK    6  A    between atoms: C_13  and  C_21
REMARK                            x       y       z     vdW  Elec       q    Type
REMARK                         _______ _______ _______ _____ _____    ______ ____
ROOT
ATOM      1  C   UNL     1      -2.569  -4.141   0.015  0.00  0.00    +0.123 C 
ATOM      2  N   UNL     1      -1.469  -4.848   0.006  0.00  0.00    -0.246 NA
ENDROOT
BRANCH   2   3
ATOM      3  C   UNL     1      -1.533  -6.196   0.005  0.00  0.00    +0.119 A 
ATOM      4  C   UNL     1      -0.490  -7.130   0.003  0.00  0.00    +0.088 A 
ATOM      5  C   UNL     1      -0.813  -8.498   0.002  0.00  0.00    -0.018 A 
ATOM      6  C   UNL     1      -2.131  -8.818   0.004  0.00  0.00    -0.004 A 
ATOM      7  S   UNL     1      -2.970  -7.256   0.015  0.00  0.00    -0.073 S 
ATOM      8  C   UNL     1      -2.735 -10.187   0.003  0.00  0.00    +0.043 C 
ATOM      9  C   UNL     1      -1.642 -11.198  -0.373  0.00  0.00    +0.005 C 
ATOM     10  C   UNL     1      -0.393 -10.904   0.464  0.00  0.00    +0.005 C 
ATOM     11  C   UNL     1       0.248  -9.596   0.000  0.00  0.00    +0.037 C 
BRANCH   4  12
ATOM     12  C   UNL     1       0.876  -6.700  -0.001  0.00  0.00    +0.102 C 
ATOM     13  N   UNL     1       1.959  -6.360  -0.003  0.00  0.00    -0.191 NA
ENDBRANCH   4  12
ENDBRANCH   2   3
BRANCH   1  18
ATOM     14  C   UNL     1      -1.201  -0.638   0.010  0.00  0.00    +0.163 A 
ATOM     15  C   UNL     1      -2.373   0.101   0.019  0.00  0.00    +0.069 A 
ATOM     16  C   UNL     1      -3.604  -0.536   0.027  0.00  0.00    +0.045 A 
ATOM     17  C   UNL     1      -3.675  -1.913   0.026  0.00  0.00    +0.033 A 
ATOM     18  C   UNL     1      -2.499  -2.674   0.016  0.00  0.00    +0.040 A 
ATOM     19  C   UNL     1      -1.255  -2.027   0.003  0.00  0.00    +0.167 A 
ATOM     20 CL   UNL     1      -5.063   0.404   0.040  0.00  0.00    -0.083 Cl
BRANCH  14  22
ATOM     21  C   UNL     1      -0.017   1.425   0.010  0.00  0.00    +0.277 C 
ATOM     22  O   UNL     1       0.002  -0.004   0.002  0.00  0.00    -0.491 OA
ENDBRANCH  14  22
BRANCH  19  23
ATOM     23  O   UNL     1      -0.108  -2.754  -0.012  0.00  0.00    -0.503 OA
ATOM     24  H   UNL     1       0.233  -2.969   0.867  0.00  0.00    +0.292 HD
ENDBRANCH  19  23
ENDBRANCH   1  18
TORSDOF 5
