REMARK  Name = ZINC20885404
REMARK  15 active torsions:
REMARK  status: ('A' for Active; 'I' for Inactive)
REMARK    1  A    between atoms: C_1  and  C_2
REMARK    2  A    between atoms: C_2  and  O_3
REMARK    3  A    between atoms: O_3  and  C_4
REMARK    4  A    between atoms: C_6  and  C_14
REMARK    5  A    between atoms: C_9  and  O_10
REMARK    6  A    between atoms: O_10  and  C_11
REMARK    7  A    between atoms: C_11  and  C_12
REMARK    8  A    between atoms: C_11  and  C_13
REMARK    9  A    between atoms: C_25  and  C_28
REMARK   10  A    between atoms: C_31  and  O_36
REMARK   11  A    between atoms: C_32  and  O_34
REMARK   12  A    between atoms: O_34  and  C_35
REMARK   13  A    between atoms: O_36  and  C_37
REMARK   14  A    between atoms: C_37  and  C_38
REMARK   15  A    between atoms: C_37  and  C_39
REMARK                            x       y       z     vdW  Elec       q    Type
REMARK                         _______ _______ _______ _____ _____    ______ ____
ROOT
ATOM      1  C   UNL     1       2.927   9.395   0.417  0.00  0.00    +0.063 C 
ATOM      2  C   UNL     1       1.639   9.630  -0.375  0.00  0.00    +0.109 C 
ATOM      3  C   UNL     1       1.853   9.198  -1.803  0.00  0.00    +0.218 C 
ATOM      4  O   UNL     1       1.298   9.790  -2.703  0.00  0.00    -0.275 OA
ATOM      5  N   UNL     1       2.658   8.158  -2.080  0.00  0.00    -0.289 N 
ATOM      6  C   UNL     1       3.280   7.454  -1.081  0.00  0.00    +0.018 C 
ATOM      7  C   UNL     1       3.435   7.999   0.145  0.00  0.00    +0.020 C 
ATOM      8  C   UNL     1       4.063   7.293   1.185  0.00  0.00    +0.162 C 
ATOM      9  O   UNL     1       4.197   7.822   2.270  0.00  0.00    -0.292 OA
ATOM     10  C   UNL     1       4.574   5.893   0.974  0.00  0.00    +0.088 C 
ATOM     11  C   UNL     1       3.729   5.213  -0.109  0.00  0.00    +0.032 C 
ATOM     12  C   UNL     1       3.787   6.065  -1.379  0.00  0.00    +0.059 C 
ATOM     13  H   UNL     1       2.828   7.857  -3.125  0.00  0.00    +0.155 HD
ENDROOT
BRANCH   1  16
ATOM     14  C   UNL     1       5.458  12.197   0.543  0.00  0.00    +0.162 A 
ATOM     15  C   UNL     1       4.501  11.272   0.928  0.00  0.00    +0.053 A 
ATOM     16  C   UNL     1       3.968  10.400  -0.003  0.00  0.00    -0.036 A 
ATOM     17  C   UNL     1       4.392  10.444  -1.318  0.00  0.00    +0.008 A 
ATOM     18  C   UNL     1       5.343  11.369  -1.710  0.00  0.00    +0.050 A 
ATOM     19  C   UNL     1       5.881  12.245  -0.781  0.00  0.00    +0.162 A 
BRANCH  14  20
ATOM     20  O   UNL     1       5.983  13.055   1.458  0.00  0.00    -0.489 OA
BRANCH  20  22
ATOM     21  C   UNL     1       6.203  13.986   3.678  0.00  0.00    +0.048 C 
ATOM     22  C   UNL     1       5.502  12.947   2.800  0.00  0.00    +0.226 C 
ENDBRANCH  20  22
ENDBRANCH  14  20
BRANCH  19  23
ATOM     23  O   UNL     1       6.821  13.151  -1.164  0.00  0.00    -0.486 OA
BRANCH  23  24
ATOM     24  C   UNL     1       7.122  13.223  -2.559  0.00  0.00    +0.167 C 
ATOM     25  C   UNL     1       7.659  14.616  -2.893  0.00  0.00    +0.051 C 
ATOM     26  C   UNL     1       8.179  12.172  -2.907  0.00  0.00    +0.051 C 
ENDBRANCH  23  24
ENDBRANCH  19  23
ENDBRANCH   1  16
BRANCH  11  27
ATOM     27  C   UNL     1       4.282   3.841  -0.394  0.00  0.00    -0.040 A 
ATOM     28  C   UNL     1       5.580   3.701  -0.849  0.00  0.00    +0.008 A 
ATOM     29  C   UNL     1       6.092   2.444  -1.112  0.00  0.00    +0.050 A 
ATOM     30  C   UNL     1       5.304   1.321  -0.921  0.00  0.00    +0.162 A 
ATOM     31  C   UNL     1       3.997   1.462  -0.464  0.00  0.00    +0.162 A 
ATOM     32  C   UNL     1       3.490   2.724  -0.202  0.00  0.00    +0.053 A 
BRANCH  31  33
ATOM     33  O   UNL     1       3.219   0.362  -0.275  0.00  0.00    -0.491 OA
ATOM     34  C   UNL     1       1.888   0.583   0.197  0.00  0.00    +0.277 C 
ENDBRANCH  31  33
BRANCH  30  35
ATOM     35  O   UNL     1       5.806   0.084  -1.180  0.00  0.00    -0.486 OA
BRANCH  35  36
ATOM     36  C   UNL     1       7.189   0.005  -1.531  0.00  0.00    +0.167 C 
ATOM     37  C   UNL     1       7.721  -1.389  -1.195  0.00  0.00    +0.051 C 
ATOM     38  C   UNL     1       7.350   0.265  -3.030  0.00  0.00    +0.051 C 
ENDBRANCH  35  36
ENDBRANCH  30  35
ENDBRANCH  11  27
TORSDOF 9
