REMARK  Name = ZINC40034778
REMARK  10 active torsions:
REMARK  status: ('A' for Active; 'I' for Inactive)
REMARK    1  A    between atoms: C_1  and  C_2
REMARK    2  A    between atoms: C_2  and  O_3
REMARK    3  A    between atoms: O_3  and  C_4
REMARK    4  A    between atoms: C_7  and  C_12
REMARK    5  A    between atoms: C_9  and  O_10
REMARK    6  A    between atoms: O_10  and  C_11
REMARK    7  A    between atoms: N_13  and  N_14
REMARK    8  A    between atoms: N_21  and  C_22
REMARK    9  A    between atoms: C_28  and  C_36
REMARK   10  A    between atoms: C_28  and  C_37
REMARK                            x       y       z     vdW  Elec       q    Type
REMARK                         _______ _______ _______ _____ _____    ______ ____
ROOT
ATOM      1  N   UNL     1      -0.767  -8.024  -0.601  0.00  0.00    -0.206 N 
ATOM      2  C   UNL     1       0.293  -8.880  -0.751  0.00  0.00    +0.223 A 
ATOM      3  N   UNL     1       1.509  -8.454  -0.476  0.00  0.00    -0.214 NA
ATOM      4  C   UNL     1       2.566  -9.261  -0.610  0.00  0.00    +0.084 A 
ATOM      5  C   UNL     1       2.390 -10.569  -1.040  0.00  0.00    +0.049 A 
ATOM      6  C   UNL     1       1.095 -11.015  -1.333  0.00  0.00    +0.264 A 
ATOM      7  O   UNL     1       0.902 -12.157  -1.716  0.00  0.00    -0.267 OA
ATOM      8  N   UNL     1       0.065 -10.155  -1.178  0.00  0.00    -0.248 N 
ATOM      9  C   UNL     1       3.572 -11.486  -1.179  0.00  0.00    +0.001 C 
ATOM     10  C   UNL     1       4.796 -10.716  -1.669  0.00  0.00    +0.047 C 
ATOM     11  C   UNL     1       5.025  -9.492  -0.823  0.00  0.00    -0.037 A 
ATOM     12  C   UNL     1       3.936  -8.784  -0.312  0.00  0.00    +0.004 A 
ATOM     13  C   UNL     1       4.144  -7.649   0.464  0.00  0.00    +0.010 A 
ATOM     14  C   UNL     1       5.432  -7.229   0.730  0.00  0.00    +0.001 A 
ATOM     15  C   UNL     1       6.510  -7.935   0.226  0.00  0.00    +0.000 A 
ATOM     16  C   UNL     1       6.307  -9.063  -0.549  0.00  0.00    +0.004 A 
ATOM     17  C   UNL     1       3.884 -12.116   0.180  0.00  0.00    +0.016 C 
ATOM     18  C   UNL     1       3.237 -12.592  -2.181  0.00  0.00    +0.016 C 
ATOM     19  H   UNL     1      -1.657  -8.302  -0.871  0.00  0.00    +0.177 HD
ENDROOT
BRANCH   8  20
ATOM     20  C   UNL     1      -1.241 -10.574  -1.461  0.00  0.00    +0.053 A 
ATOM     21  C   UNL     1      -1.758 -10.424  -2.741  0.00  0.00    +0.026 A 
ATOM     22  C   UNL     1      -3.046 -10.839  -3.017  0.00  0.00    +0.002 A 
ATOM     23  C   UNL     1      -3.821 -11.402  -2.020  0.00  0.00    +0.000 A 
ATOM     24  C   UNL     1      -3.310 -11.552  -0.744  0.00  0.00    +0.002 A 
ATOM     25  C   UNL     1      -2.020 -11.145  -0.463  0.00  0.00    +0.026 A 
ENDBRANCH   8  20
BRANCH   1  27
ATOM     26  C   UNL     1      -1.571  -5.939   0.086  0.00  0.00    +0.138 C 
ATOM     27  N   UNL     1      -0.567  -6.749  -0.057  0.00  0.00    -0.188 NA
BRANCH  26  31
ATOM     28  C   UNL     1      -0.955  -2.072   1.736  0.00  0.00    +0.162 A 
ATOM     29  C   UNL     1       0.117  -2.940   1.584  0.00  0.00    +0.050 A 
ATOM     30  C   UNL     1      -0.079  -4.196   1.049  0.00  0.00    +0.013 A 
ATOM     31  C   UNL     1      -1.359  -4.597   0.659  0.00  0.00    -0.002 A 
ATOM     32  C   UNL     1      -2.438  -3.723   0.813  0.00  0.00    +0.059 A 
ATOM     33  C   UNL     1      -2.235  -2.468   1.355  0.00  0.00    +0.162 A 
BRANCH  33  34
ATOM     34  O   UNL     1      -3.285  -1.617   1.511  0.00  0.00    -0.491 OA
ATOM     35  C   UNL     1      -4.569  -2.088   1.098  0.00  0.00    +0.277 C 
ENDBRANCH  33  34
BRANCH  28  36
ATOM     36  O   UNL     1      -0.757  -0.835   2.264  0.00  0.00    -0.489 OA
BRANCH  36  38
ATOM     37  C   UNL     1       0.607   0.925   3.204  0.00  0.00    +0.048 C 
ATOM     38  C   UNL     1       0.581  -0.495   2.633  0.00  0.00    +0.226 C 
ENDBRANCH  36  38
ENDBRANCH  28  36
ENDBRANCH  26  31
ENDBRANCH   1  27
TORSDOF 6
