REMARK  Name = ZINC40749844
REMARK  3 active torsions:
REMARK  status: ('A' for Active; 'I' for Inactive)
REMARK    1  A    between atoms: C_2  and  S_9
REMARK    2  A    between atoms: S_9  and  N_12
REMARK    3  A    between atoms: C_20  and  N_22
REMARK                            x       y       z     vdW  Elec       q    Type
REMARK                         _______ _______ _______ _____ _____    ______ ____
ROOT
ATOM      1  N   UNL     1       1.404   4.327   1.603  0.00  0.00    -0.171 NA
ATOM      2  C   UNL     1       0.194   4.631   2.405  0.00  0.00    +0.079 C 
ATOM      3  C   UNL     1       0.578   5.896   3.208  0.00  0.00    +0.022 C 
ATOM      4  C   UNL     1       2.117   5.847   3.306  0.00  0.00    +0.022 C 
ATOM      5  C   UNL     1       2.519   4.552   2.555  0.00  0.00    +0.079 C 
ATOM      6  C   UNL     1       2.497   3.393   3.564  0.00  0.00    +0.004 C 
ATOM      7  C   UNL     1       1.192   3.455   4.362  0.00  0.00    -0.072 C 
ATOM      8  C   UNL     1      -0.001   3.470   3.393  0.00  0.00    +0.004 C 
ENDROOT
BRANCH   7   9
ATOM      9  N   UNL     1       1.182   4.669   5.190  0.00  0.00    +0.380 N 
ATOM     10  H   UNL     1       1.250   5.482   4.596  0.00  0.00    -0.090 HD
ATOM     11  H   UNL     1       0.324   4.709   5.718  0.00  0.00    -0.090 HD
ATOM     12  H   UNL     1       1.967   4.650   5.824  0.00  0.00    -0.090 HD
ENDBRANCH   7   9
BRANCH   1  13
ATOM     13  S   UNL     1       1.489   3.845   0.021  0.00  0.00    +0.061 S 
ATOM     14  O   UNL     1       2.782   4.207  -0.445  0.00  0.00    -0.153 OA
ATOM     15  O   UNL     1       0.298   4.299  -0.607  0.00  0.00    -0.153 OA
BRANCH  13  17
ATOM     16  C   UNL     1       0.206   1.438  -0.073  0.00  0.00    +0.048 A 
ATOM     17  C   UNL     1       1.425   2.084   0.009  0.00  0.00    +0.108 A 
ATOM     18  C   UNL     1       2.594   1.350   0.082  0.00  0.00    +0.048 A 
ATOM     19  C   UNL     1       2.545  -0.033   0.072  0.00  0.00    +0.044 A 
ATOM     20  C   UNL     1       1.325  -0.680  -0.010  0.00  0.00    +0.040 A 
ATOM     21  C   UNL     1       0.156   0.055  -0.083  0.00  0.00    +0.044 A 
ATOM     22 CL   UNL     1      -1.375  -0.757  -0.186  0.00  0.00    -0.083 Cl
ATOM     23 CL   UNL     1       4.013  -0.955   0.164  0.00  0.00    -0.083 Cl
ENDBRANCH  13  17
ENDBRANCH   1  13
TORSDOF 3
