REMARK  Name = ZINC21736533
REMARK  12 active torsions:
REMARK  status: ('A' for Active; 'I' for Inactive)
REMARK    1  A    between atoms: C_1  and  C_2
REMARK    2  A    between atoms: C_5  and  C_28
REMARK    3  A    between atoms: C_6  and  O_8
REMARK    4  A    between atoms: O_8  and  C_9
REMARK    5  A    between atoms: C_9  and  C_10
REMARK    6  A    between atoms: C_13  and  S_16
REMARK    7  A    between atoms: N_14  and  N_15
REMARK    8  A    between atoms: S_16  and  C_17
REMARK    9  A    between atoms: C_17  and  C_18
REMARK   10  A    between atoms: C_20  and  C_23
REMARK   11  A    between atoms: C_28  and  C_29
REMARK   12  A    between atoms: C_28  and  C_30
REMARK                            x       y       z     vdW  Elec       q    Type
REMARK                         _______ _______ _______ _____ _____    ______ ____
ROOT
ATOM      1  C   UNL     1       1.202   1.745   0.000  0.00  0.00    +0.189 A 
ATOM      2  N   UNL     1      -0.015   1.281   0.009  0.00  0.00    -0.128 NA
ATOM      3  N   UNL     1       0.002  -0.004   0.002  0.00  0.00    -0.121 NA
ATOM      4  C   UNL     1       1.243  -0.433  -0.012  0.00  0.00    +0.209 A 
ATOM      5  N   UNL     1       2.047   0.670  -0.014  0.00  0.00    -0.225 N 
ENDROOT
BRANCH   5   6
ATOM      6  N   UNL     1       3.413   0.695  -0.027  0.00  0.00    -0.295 N 
ATOM      7  H   UNL     1       3.980  -0.248  -0.037  0.00  0.00    +0.163 HD
ATOM      8  H   UNL     1       3.946   1.657  -0.027  0.00  0.00    +0.163 HD
ENDBRANCH   5   6
BRANCH   1   9
ATOM      9  C   UNL     1       1.605   3.197   0.004  0.00  0.00    +0.306 C 
BRANCH   9  10
ATOM     10  O   UNL     1       1.745   3.649   1.352  0.00  0.00    -0.484 OA
BRANCH  10  16
ATOM     11  C   UNL     1       2.923   7.979  -0.569  0.00  0.00    +0.044 C 
ATOM     12  C   UNL     1       2.689   7.086   0.622  0.00  0.00    -0.047 A 
ATOM     13  C   UNL     1       2.842   7.588   1.902  0.00  0.00    +0.004 A 
ATOM     14  C   UNL     1       2.628   6.772   2.997  0.00  0.00    +0.008 A 
ATOM     15  C   UNL     1       2.255   5.454   2.816  0.00  0.00    -0.003 A 
ATOM     16  C   UNL     1       2.106   4.947   1.533  0.00  0.00    +0.125 A 
ATOM     17  C   UNL     1       2.321   5.768   0.435  0.00  0.00    +0.049 A 
BRANCH  15  18
ATOM     18  C   UNL     1       2.016   4.566   4.010  0.00  0.00    +0.016 C 
ATOM     19  C   UNL     1       3.295   4.482   4.846  0.00  0.00    +0.012 C 
ATOM     20  C   UNL     1       0.887   5.150   4.861  0.00  0.00    +0.012 C 
ENDBRANCH  15  18
ENDBRANCH  10  16
ENDBRANCH   9  10
ENDBRANCH   1   9
BRANCH   4  21
ATOM     21  S   UNL     1       1.770  -2.114  -0.026  0.00  0.00    -0.075 S 
BRANCH  21  22
ATOM     22  C   UNL     1       0.163  -2.948  -0.015  0.00  0.00    +0.176 C 
BRANCH  22  23
ATOM     23  C   UNL     1       0.371  -4.440  -0.025  0.00  0.00    +0.238 A 
ATOM     24  N   UNL     1       0.493  -5.215   1.024  0.00  0.00    -0.191 NA
ATOM     25  C   UNL     1       0.658  -6.465   0.535  0.00  0.00    +0.203 A 
ATOM     26  N   UNL     1       0.635  -6.375  -0.771  0.00  0.00    -0.056 NA
ATOM     27  O   UNL     1       0.471  -5.221  -1.105  0.00  0.00    -0.337 OA
BRANCH  25  28
ATOM     28  C   UNL     1       0.837  -7.705   1.328  0.00  0.00    +0.029 A 
ATOM     29  C   UNL     1       0.999  -8.938   0.700  0.00  0.00    +0.019 A 
ATOM     30  C   UNL     1       1.163 -10.026   1.484  0.00  0.00    +0.046 A 
ATOM     31  S   UNL     1       1.079  -9.329   3.123  0.00  0.00    -0.104 S 
ATOM     32  C   UNL     1       0.843  -7.667   2.692  0.00  0.00    +0.057 A 
ENDBRANCH  25  28
ENDBRANCH  22  23
ENDBRANCH  21  22
ENDBRANCH   4  21
TORSDOF 9
