REMARK  Name = ZINC18342769
REMARK  9 active torsions:
REMARK  status: ('A' for Active; 'I' for Inactive)
REMARK    1  A    between atoms: C_1  and  C_2
REMARK    2  A    between atoms: C_2  and  C_3
REMARK    3  A    between atoms: C_3  and  C_5
REMARK    4  A    between atoms: C_3  and  C_6
REMARK    5  A    between atoms: C_6  and  C_7
REMARK    6  A    between atoms: C_8  and  C_30
REMARK    7  A    between atoms: C_16  and  S_18
REMARK    8  A    between atoms: S_18  and  C_19
REMARK    9  A    between atoms: C_19  and  C_20
REMARK                            x       y       z     vdW  Elec       q    Type
REMARK                         _______ _______ _______ _____ _____    ______ ____
ROOT
ATOM      1  C   UNL     1       1.387   1.686   2.572  0.00  0.00    -0.023 A 
ATOM      2  C   UNL     1       1.582   2.849   3.210  0.00  0.00    -0.007 A 
ATOM      3  S   UNL     1       3.325   3.154   2.993  0.00  0.00    -0.073 S 
ATOM      4  C   UNL     1       3.741   1.709   2.051  0.00  0.00    +0.117 A 
ATOM      5  C   UNL     1       2.515   1.028   1.936  0.00  0.00    +0.075 A 
ATOM      6  C   UNL     1       2.551  -0.200   1.202  0.00  0.00    +0.261 A 
ATOM      7  O   UNL     1       1.536  -0.857   1.048  0.00  0.00    -0.267 OA
ATOM      8  N   UNL     1       3.721  -0.622   0.689  0.00  0.00    -0.301 N 
ATOM      9  H   UNL     1       3.750  -1.456   0.194  0.00  0.00    +0.171 HD
ATOM     10  C   UNL     1       4.868   0.100   0.852  0.00  0.00    +0.170 A 
ATOM     11  N   UNL     1       4.862   1.236   1.519  0.00  0.00    -0.216 NA
ATOM     12  C   UNL     1       0.569   3.697   3.937  0.00  0.00    +0.052 C 
ENDROOT
BRANCH   1  13
ATOM     13  C   UNL     1       0.014   1.065   2.521  0.00  0.00    +0.040 C 
BRANCH  13  14
ATOM     14  C   UNL     1      -0.728   1.571   1.282  0.00  0.00    -0.010 C 
ATOM     15  C   UNL     1      -0.013   1.078   0.022  0.00  0.00    +0.008 C 
BRANCH  14  17
ATOM     16  C   UNL     1      -2.941   1.645   0.125  0.00  0.00    +0.004 C 
ATOM     17  C   UNL     1      -2.163   1.040   1.295  0.00  0.00    +0.000 C 
ENDBRANCH  14  17
ENDBRANCH  13  14
ENDBRANCH   1  13
BRANCH  10  18
ATOM     18  S   UNL     1       6.375  -0.494   0.160  0.00  0.00    -0.078 S 
BRANCH  18  19
ATOM     19  C   UNL     1       7.501   0.825   0.678  0.00  0.00    +0.173 C 
BRANCH  19  20
ATOM     20  C   UNL     1       8.892   0.522   0.184  0.00  0.00    +0.229 C 
ATOM     21  O   UNL     1       9.102  -0.487  -0.455  0.00  0.00    -0.275 OA
ATOM     22  N   UNL     1       9.903   1.371   0.453  0.00  0.00    -0.270 N 
ATOM     23  C   UNL     1      11.207   1.040   0.089  0.00  0.00    +0.125 A 
ATOM     24  C   UNL     1      12.258   1.870   0.463  0.00  0.00    +0.045 A 
ATOM     25  C   UNL     1      13.549   1.528   0.100  0.00  0.00    +0.025 A 
ATOM     26  C   UNL     1      13.743   0.366  -0.637  0.00  0.00    +0.059 A 
ATOM     27  C   UNL     1      12.652  -0.408  -0.979  0.00  0.00    +0.132 A 
ATOM     28  N   UNL     1      11.433  -0.058  -0.613  0.00  0.00    -0.239 NA
ATOM     29 CL   UNL     1      15.341  -0.106  -1.123  0.00  0.00    -0.082 Cl
ATOM     30  H   UNL     1       9.723   2.213   0.900  0.00  0.00    +0.156 HD
ENDBRANCH  19  20
ENDBRANCH  18  19
ENDBRANCH  10  18
TORSDOF 6
