REMARK  Name = ZINC14387588
REMARK  8 active torsions:
REMARK  status: ('A' for Active; 'I' for Inactive)
REMARK    1  A    between atoms: C_1  and  C_2
REMARK    2  A    between atoms: C_5  and  C_8
REMARK    3  A    between atoms: C_8  and  N_9
REMARK    4  A    between atoms: N_12  and  C_13
REMARK    5  A    between atoms: C_13  and  C_14
REMARK    6  A    between atoms: N_16  and  C_17
REMARK    7  A    between atoms: C_17  and  C_19
REMARK    8  A    between atoms: C_17  and  C_20
REMARK                            x       y       z     vdW  Elec       q    Type
REMARK                         _______ _______ _______ _____ _____    ______ ____
ROOT
ATOM      1  C   UNL     1       1.034  -0.883  -0.740  0.00  0.00    +0.201 C 
ENDROOT
BRANCH   1   5
ATOM      2  N   UNL     1       1.262  -4.507  -1.317  0.00  0.00    -0.295 N 
ATOM      3  C   UNL     1       1.606  -3.212  -1.170  0.00  0.00    +0.300 C 
ATOM      4  O   UNL     1       2.769  -2.876  -1.280  0.00  0.00    -0.253 OA
ATOM      5  N   UNL     1       0.660  -2.291  -0.900  0.00  0.00    -0.291 N 
ATOM      6  H   UNL     1       0.334  -4.776  -1.229  0.00  0.00    +0.151 HD
ATOM      7  H   UNL     1      -0.268  -2.559  -0.812  0.00  0.00    +0.151 HD
BRANCH   2   8
ATOM      8  C   UNL     1       2.290  -5.509  -1.610  0.00  0.00    +0.141 C 
BRANCH   8  13
ATOM      9  C   UNL     1      -0.169 -10.720  -2.054  0.00  0.00    +0.044 C 
ATOM     10  C   UNL     1       0.473  -9.361  -1.938  0.00  0.00    -0.050 A 
ATOM     11  C   UNL     1       0.604  -8.561  -3.058  0.00  0.00    +0.003 A 
ATOM     12  C   UNL     1       1.192  -7.315  -2.952  0.00  0.00    +0.005 A 
ATOM     13  C   UNL     1       1.649  -6.868  -1.726  0.00  0.00    -0.030 A 
ATOM     14  C   UNL     1       1.522  -7.670  -0.607  0.00  0.00    +0.005 A 
ATOM     15  C   UNL     1       0.930  -8.915  -0.713  0.00  0.00    +0.003 A 
ENDBRANCH   8  13
ENDBRANCH   2   8
ENDBRANCH   1   5
BRANCH   1  16
ATOM     16  C   UNL     1      -0.198  -0.067  -0.446  0.00  0.00    +0.231 C 
ATOM     17  O   UNL     1      -1.282  -0.607  -0.378  0.00  0.00    -0.274 OA
ATOM     18  N   UNL     1      -0.096   1.264  -0.260  0.00  0.00    -0.307 N 
ATOM     19  H   UNL     1       0.770   1.696  -0.315  0.00  0.00    +0.149 HD
BRANCH  18  20
ATOM     20  C   UNL     1      -1.295   2.059   0.019  0.00  0.00    +0.102 C 
ATOM     21  C   UNL     1      -1.562   2.066   1.526  0.00  0.00    +0.033 C 
BRANCH  20  22
ATOM     22  C   UNL     1      -1.084   3.472  -0.460  0.00  0.00    -0.009 A 
ATOM     23  C   UNL     1       0.194   3.995  -0.527  0.00  0.00    +0.008 A 
ATOM     24  C   UNL     1       0.389   5.291  -0.966  0.00  0.00    +0.020 A 
ATOM     25  C   UNL     1      -0.696   6.066  -1.339  0.00  0.00    +0.042 A 
ATOM     26  C   UNL     1      -1.975   5.542  -1.273  0.00  0.00    +0.040 A 
ATOM     27  C   UNL     1      -2.168   4.243  -0.838  0.00  0.00    +0.047 A 
ATOM     28 CL   UNL     1      -3.772   3.583  -0.762  0.00  0.00    -0.083 Cl
ATOM     29 CL   UNL     1      -0.452   7.693  -1.891  0.00  0.00    -0.083 Cl
ENDBRANCH  20  22
ENDBRANCH  18  20
ENDBRANCH   1  16
TORSDOF 6
