REMARK  Name = ZINC49371863
REMARK  8 active torsions:
REMARK  status: ('A' for Active; 'I' for Inactive)
REMARK    1  A    between atoms: C_1  and  C_2
REMARK    2  A    between atoms: C_2  and  O_3
REMARK    3  A    between atoms: O_3  and  C_4
REMARK    4  A    between atoms: C_4  and  C_6
REMARK    5  A    between atoms: C_6  and  C_8
REMARK    6  A    between atoms: C_6  and  N_9
REMARK    7  A    between atoms: N_9  and  C_10
REMARK    8  A    between atoms: C_19  and  N_20
REMARK                            x       y       z     vdW  Elec       q    Type
REMARK                         _______ _______ _______ _____ _____    ______ ____
ROOT
ATOM      1  C   UNL     1       3.291  -4.543  -3.395  0.00  0.00    +0.059 A 
ATOM      2  C   UNL     1       3.464  -5.913  -3.693  0.00  0.00    +0.022 A 
ATOM      3  C   UNL     1       2.371  -6.734  -4.011  0.00  0.00    +0.027 A 
ATOM      4  C   UNL     1       2.577  -8.051  -4.293  0.00  0.00    +0.019 A 
ATOM      5  C   UNL     1       3.861  -8.594  -4.269  0.00  0.00    +0.017 A 
ATOM      6  C   UNL     1       4.942  -7.826  -3.965  0.00  0.00    +0.027 A 
ATOM      7  C   UNL     1       4.769  -6.462  -3.668  0.00  0.00    +0.048 A 
ATOM      8  N   UNL     1       5.816  -5.686  -3.367  0.00  0.00    -0.359 N 
ATOM      9  C   UNL     1       5.674  -4.412  -3.088  0.00  0.00    +0.107 A 
ATOM     10  C   UNL     1       4.424  -3.795  -3.096  0.00  0.00    +0.063 A 
ATOM     11 BR   UNL     1       1.103  -9.156  -4.720  0.00  0.00    -0.050 Br
ATOM     12  H   UNL     1       6.704  -6.076  -3.354  0.00  0.00    +0.165 HD
ENDROOT
BRANCH  10  13
ATOM     13  N   UNL     1       4.310  -2.429  -2.799  0.00  0.00    -0.355 N 
ATOM     14  H   UNL     1       3.433  -2.023  -2.713  0.00  0.00    +0.142 HD
ATOM     15  H   UNL     1       5.107  -1.890  -2.680  0.00  0.00    +0.142 HD
ENDBRANCH  10  13
BRANCH   1  16
ATOM     16  N   UNL     1       2.028  -3.959  -3.407  0.00  0.00    -0.330 N 
ATOM     17  H   UNL     1       1.524  -3.910  -4.234  0.00  0.00    +0.147 HD
BRANCH  16  18
ATOM     18  C   UNL     1       1.459  -3.420  -2.169  0.00  0.00    +0.177 C 
ATOM     19  C   UNL     1       0.320  -2.456  -2.510  0.00  0.00    +0.040 C 
BRANCH  18  20
ATOM     20  C   UNL     1       0.926  -4.549  -1.326  0.00  0.00    +0.327 C 
ATOM     21  O   UNL     1       1.013  -5.689  -1.719  0.00  0.00    -0.249 OA
BRANCH  20  22
ATOM     22  O   UNL     1       0.356  -4.290  -0.139  0.00  0.00    -0.464 OA
BRANCH  22  24
ATOM     23  C   UNL     1      -0.740  -4.920   1.921  0.00  0.00    +0.048 C 
ATOM     24  C   UNL     1      -0.127  -5.409   0.607  0.00  0.00    +0.229 C 
ENDBRANCH  22  24
ENDBRANCH  20  22
ENDBRANCH  18  20
ENDBRANCH  16  18
ENDBRANCH   1  16
TORSDOF 6
