REMARK  Name = ZINC08312203
REMARK  5 active torsions:
REMARK  status: ('A' for Active; 'I' for Inactive)
REMARK    1  A    between atoms: C_1  and  C_2
REMARK    2  A    between atoms: C_15  and  C_17
REMARK    3  A    between atoms: C_17  and  N_18
REMARK    4  A    between atoms: C_21  and  C_25
REMARK    5  A    between atoms: C_21  and  C_26
REMARK                            x       y       z     vdW  Elec       q    Type
REMARK                         _______ _______ _______ _____ _____    ______ ____
ROOT
ATOM      1  C   UNL     1      -0.805   5.844   2.341  0.00  0.00    +0.029 C 
ATOM      2  C   UNL     1       0.338   5.911   1.326  0.00  0.00    +0.087 C 
ATOM      3  C   UNL     1       1.573   5.219   1.905  0.00  0.00    +0.118 C 
ATOM      4  C   UNL     1       2.562   4.922   0.809  0.00  0.00    +0.219 C 
ATOM      5  O   UNL     1       3.558   5.604   0.696  0.00  0.00    -0.275 OA
ATOM      6  N   UNL     1       2.347   3.901  -0.048  0.00  0.00    -0.284 N 
ATOM      7  C   UNL     1       1.157   3.166   0.008  0.00  0.00    +0.055 A 
ATOM      8  C   UNL     1       1.177   1.781   0.000  0.00  0.00    +0.025 A 
ATOM      9  C   UNL     1      -0.013   1.076   0.008  0.00  0.00    +0.002 A 
ATOM     10  C   UNL     1      -1.221   1.748   0.017  0.00  0.00    +0.002 A 
ATOM     11  C   UNL     1      -1.249   3.131   0.039  0.00  0.00    +0.025 A 
ATOM     12  C   UNL     1      -0.062   3.844   0.041  0.00  0.00    +0.058 A 
ATOM     13  N   UNL     1      -0.070   5.245   0.088  0.00  0.00    -0.265 N 
ATOM     14  C   UNL     1      -0.447   5.966  -0.987  0.00  0.00    +0.238 C 
ATOM     15  O   UNL     1      -0.450   7.178  -0.934  0.00  0.00    -0.273 OA
ATOM     16  H   UNL     1       3.021   3.675  -0.708  0.00  0.00    +0.155 HD
ENDROOT
BRANCH  14  17
ATOM     17  C   UNL     1      -0.864   5.266  -2.255  0.00  0.00    +0.214 C 
BRANCH  17  18
ATOM     18  N   UNL     1      -1.224   6.263  -3.267  0.00  0.00    -0.215 N 
ATOM     19  C   UNL     1      -2.467   6.755  -3.436  0.00  0.00    +0.251 C 
ATOM     20  O   UNL     1      -3.460   6.468  -2.803  0.00  0.00    -0.272 OA
ATOM     21  C   UNL     1      -2.364   7.744  -4.580  0.00  0.00    +0.135 C 
ATOM     22  N   UNL     1      -0.943   7.682  -4.964  0.00  0.00    -0.281 N 
ATOM     23  C   UNL     1      -0.360   6.792  -4.141  0.00  0.00    +0.310 C 
ATOM     24  O   UNL     1       0.819   6.500  -4.187  0.00  0.00    -0.252 OA
ATOM     25  C   UNL     1      -3.255   7.308  -5.745  0.00  0.00    +0.047 C 
ATOM     26  H   UNL     1      -0.511   8.186  -5.671  0.00  0.00    +0.152 HD
BRANCH  21  27
ATOM     27  C   UNL     1      -2.730   9.133  -4.125  0.00  0.00    -0.016 A 
ATOM     28  C   UNL     1      -3.710   9.310  -3.166  0.00  0.00    +0.006 A 
ATOM     29  C   UNL     1      -4.043  10.584  -2.745  0.00  0.00    +0.000 A 
ATOM     30  C   UNL     1      -3.404  11.681  -3.291  0.00  0.00    +0.000 A 
ATOM     31  C   UNL     1      -2.428  11.505  -4.254  0.00  0.00    +0.000 A 
ATOM     32  C   UNL     1      -2.091  10.230  -4.671  0.00  0.00    +0.006 A 
ENDBRANCH  21  27
ENDBRANCH  17  18
ENDBRANCH  14  17
TORSDOF 3
