REMARK  Name = ZINC06648326
REMARK  6 active torsions:
REMARK  status: ('A' for Active; 'I' for Inactive)
REMARK    1  A    between atoms: C_1  and  C_2
REMARK    2  A    between atoms: C_2  and  O_3
REMARK    3  A    between atoms: O_3  and  C_4
REMARK    4  A    between atoms: C_9  and  C_10
REMARK    5  A    between atoms: N_11  and  N_12
REMARK    6  A    between atoms: C_13  and  C_15
REMARK                            x       y       z     vdW  Elec       q    Type
REMARK                         _______ _______ _______ _____ _____    ______ ____
ROOT
ATOM      1  N   UNL     1       3.600   5.951  -0.000  0.00  0.00    -0.202 N 
ATOM      2  C   UNL     1       3.579   7.299   0.007  0.00  0.00    +0.284 C 
ATOM      3  O   UNL     1       2.515   7.890   0.019  0.00  0.00    -0.267 OA
ATOM      4  H   UNL     1       4.448   5.480  -0.010  0.00  0.00    +0.178 HD
ENDROOT
BRANCH   2   5
ATOM      5  C   UNL     1       4.844   8.057  -0.001  0.00  0.00    +0.155 A 
ATOM      6  C   UNL     1       4.830   9.529   0.001  0.00  0.00    +0.020 A 
ATOM      7  C   UNL     1       3.655  10.271   0.020  0.00  0.00    +0.011 A 
ATOM      8  C   UNL     1       3.724  11.648   0.026  0.00  0.00    +0.001 A 
ATOM      9  C   UNL     1       4.951  12.299   0.019  0.00  0.00    +0.001 A 
ATOM     10  C   UNL     1       6.128  11.582   0.005  0.00  0.00    +0.014 A 
ATOM     11  C   UNL     1       6.080  10.191  -0.001  0.00  0.00    +0.050 A 
ATOM     12  C   UNL     1       7.285   9.351  -0.016  0.00  0.00    +0.272 A 
ATOM     13  O   UNL     1       8.394   9.852  -0.024  0.00  0.00    -0.266 OA
ATOM     14  N   UNL     1       7.134   8.011  -0.022  0.00  0.00    -0.242 N 
ATOM     15  H   UNL     1       7.956   7.441  -0.032  0.00  0.00    +0.192 HD
ATOM     16  N   UNL     1       5.995   7.428  -0.014  0.00  0.00    -0.166 NA
ENDBRANCH   2   5
BRANCH   1  18
ATOM     17  C   UNL     1       2.420   3.933   0.000  0.00  0.00    +0.142 C 
ATOM     18  N   UNL     1       2.399   5.231   0.007  0.00  0.00    -0.187 NA
BRANCH  17  24
ATOM     19  C   UNL     1      -0.071   3.852   0.022  0.00  0.00    +0.129 A 
ATOM     20  C   UNL     1      -1.254   3.130   0.030  0.00  0.00    +0.046 A 
ATOM     21  C   UNL     1      -1.222   1.749   0.017  0.00  0.00    +0.004 A 
ATOM     22  C   UNL     1      -0.013   1.076   0.008  0.00  0.00    +0.001 A 
ATOM     23  C   UNL     1       1.174   1.779   0.000  0.00  0.00    +0.013 A 
ATOM     24  C   UNL     1       1.156   3.175   0.008  0.00  0.00    +0.036 A 
BRANCH  19  25
ATOM     25  O   UNL     1      -0.101   5.210   0.030  0.00  0.00    -0.492 OA
BRANCH  25  27
ATOM     26  C   UNL     1      -1.221   7.351   0.052  0.00  0.00    +0.048 C 
ATOM     27  C   UNL     1      -1.389   5.830   0.045  0.00  0.00    +0.226 C 
ENDBRANCH  25  27
ENDBRANCH  19  25
ENDBRANCH  17  24
ENDBRANCH   1  18
TORSDOF 5
