REMARK  Name = ZINC38778844
REMARK  5 active torsions:
REMARK  status: ('A' for Active; 'I' for Inactive)
REMARK    1  A    between atoms: C_8  and  C_13
REMARK    2  A    between atoms: C_19  and  C_21
REMARK    3  A    between atoms: C_21  and  C_22
REMARK    4  A    between atoms: C_24  and  C_32
REMARK    5  A    between atoms: C_26  and  C_28
REMARK                            x       y       z     vdW  Elec       q    Type
REMARK                         _______ _______ _______ _____ _____    ______ ____
ROOT
ATOM      1  C   UNL     1       2.858  -3.571   1.172  0.00  0.00    +0.234 C 
ATOM      2  O   UNL     1       1.985  -3.566   2.014  0.00  0.00    -0.274 OA
ATOM      3  N   UNL     1       3.932  -4.372   1.318  0.00  0.00    -0.264 N 
ATOM      4  C   UNL     1       4.040  -5.192   2.435  0.00  0.00    +0.165 A 
ATOM      5  N   UNL     1       3.198  -5.323   3.438  0.00  0.00    -0.233 NA
ATOM      6  C   UNL     1       3.447  -6.153   4.434  0.00  0.00    +0.124 A 
ATOM      7  C   UNL     1       4.603  -6.859   4.373  0.00  0.00    +0.015 A 
ATOM      8  S   UNL     1       5.275  -6.265   2.829  0.00  0.00    -0.057 S 
ATOM      9  H   UNL     1       4.629  -4.376   0.644  0.00  0.00    +0.157 HD
ENDROOT
BRANCH   1  17
ATOM     10  C   UNL     1      -0.016   1.354   0.009  0.00  0.00    +0.001 A 
ATOM     11  C   UNL     1       1.165   2.097   0.002  0.00  0.00    +0.002 A 
ATOM     12  C   UNL     1       2.394   1.518  -0.013  0.00  0.00    +0.024 A 
ATOM     13  C   UNL     1       2.524   0.117  -0.021  0.00  0.00    +0.040 A 
ATOM     14  N   UNL     1       3.736  -0.439  -0.035  0.00  0.00    -0.284 N 
ATOM     15  C   UNL     1       3.929  -1.747  -0.045  0.00  0.00    +0.233 C 
ATOM     16  O   UNL     1       5.060  -2.197  -0.058  0.00  0.00    -0.274 OA
ATOM     17  C   UNL     1       2.741  -2.681  -0.039  0.00  0.00    +0.185 C 
ATOM     18  C   UNL     1       1.361  -2.054  -0.022  0.00  0.00    +0.004 C 
ATOM     19  C   UNL     1       1.294  -0.692  -0.014  0.00  0.00    -0.007 A 
ATOM     20  C   UNL     1       0.002  -0.004   0.002  0.00  0.00    +0.009 A 
ATOM     21  H   UNL     1       4.511   0.143  -0.039  0.00  0.00    +0.155 HD
ENDBRANCH   1  17
BRANCH   7  22
ATOM     22  C   UNL     1       5.163  -7.870   5.340  0.00  0.00    +0.079 C 
BRANCH  22  23
ATOM     23  C   UNL     1       4.679  -9.247   4.964  0.00  0.00    -0.041 A 
ATOM     24  C   UNL     1       3.498  -9.732   5.493  0.00  0.00    +0.016 A 
ATOM     25  C   UNL     1       3.053 -10.995   5.149  0.00  0.00    +0.056 A 
ATOM     26  C   UNL     1       3.790 -11.772   4.275  0.00  0.00    +0.024 A 
ATOM     27  C   UNL     1       4.971 -11.287   3.745  0.00  0.00    +0.056 A 
ATOM     28  C   UNL     1       5.413 -10.022   4.087  0.00  0.00    +0.016 A 
BRANCH  27  29
ATOM     29  C   UNL     1       5.775 -12.135   2.793  0.00  0.00    +0.417 C 
ATOM     30  F   UNL     1       5.128 -13.360   2.601  0.00  0.00    -0.166 F 
ATOM     31  F   UNL     1       5.894 -11.473   1.567  0.00  0.00    -0.166 F 
ATOM     32  F   UNL     1       7.048 -12.358   3.329  0.00  0.00    -0.166 F 
ENDBRANCH  27  29
BRANCH  25  33
ATOM     33  C   UNL     1       1.766 -11.524   5.726  0.00  0.00    +0.417 C 
ATOM     34  F   UNL     1       0.701 -11.176   4.887  0.00  0.00    -0.166 F 
ATOM     35  F   UNL     1       1.839 -12.917   5.831  0.00  0.00    -0.166 F 
ATOM     36  F   UNL     1       1.561 -10.970   6.994  0.00  0.00    -0.166 F 
ENDBRANCH  25  33
ENDBRANCH  22  23
ENDBRANCH   7  22
TORSDOF 5
