REMARK  Name = ZINC00709787
REMARK  10 active torsions:
REMARK  status: ('A' for Active; 'I' for Inactive)
REMARK    1  A    between atoms: C_1  and  C_2
REMARK    2  A    between atoms: C_2  and  C_33
REMARK    3  A    between atoms: C_6  and  C_14
REMARK    4  A    between atoms: C_8  and  C_12
REMARK    5  A    between atoms: C_9  and  N_11
REMARK    6  A    between atoms: C_17  and  O_22
REMARK    7  A    between atoms: C_18  and  O_20
REMARK    8  A    between atoms: O_20  and  C_21
REMARK    9  A    between atoms: O_22  and  C_23
REMARK   10  A    between atoms: C_23  and  C_25
REMARK                            x       y       z     vdW  Elec       q    Type
REMARK                         _______ _______ _______ _____ _____    ______ ____
ROOT
ATOM      1  C   UNL     1     -10.979  -2.983  -2.562  0.00  0.00    +0.012 C 
ATOM      2  C   UNL     1      -9.595  -3.066  -3.208  0.00  0.00    -0.021 C 
ATOM      3  C   UNL     1      -8.591  -3.633  -2.202  0.00  0.00    +0.081 C 
ATOM      4  C   UNL     1      -8.503  -2.720  -1.002  0.00  0.00    +0.115 C 
ATOM      5  C   UNL     1      -8.698  -1.395  -1.131  0.00  0.00    +0.046 C 
ATOM      6  C   UNL     1      -8.604  -0.484   0.068  0.00  0.00    +0.101 C 
ATOM      7  C   UNL     1      -8.737  -1.283   1.335  0.00  0.00    +0.098 C 
ATOM      8  C   UNL     1      -8.541  -2.624   1.322  0.00  0.00    +0.198 C 
ATOM      9  O   UNL     1      -8.220  -3.273   0.192  0.00  0.00    -0.445 OA
ATOM     10  C   UNL     1      -8.997  -0.817  -2.381  0.00  0.00    +0.164 C 
ATOM     11  O   UNL     1      -9.146   0.385  -2.462  0.00  0.00    -0.292 OA
ATOM     12  C   UNL     1      -9.133  -1.664  -3.617  0.00  0.00    +0.086 C 
ATOM     13  C   UNL     1      -9.656  -3.968  -4.443  0.00  0.00    +0.012 C 
ENDROOT
BRANCH   6  14
ATOM     14  C   UNL     1      -7.272   0.220   0.059  0.00  0.00    -0.031 A 
ATOM     15  C   UNL     1      -6.103  -0.516   0.103  0.00  0.00    +0.008 A 
ATOM     16  C   UNL     1      -4.878   0.124   0.087  0.00  0.00    +0.050 A 
ATOM     17  C   UNL     1      -4.820   1.508   0.040  0.00  0.00    +0.173 A 
ATOM     18  C   UNL     1      -5.997   2.249  -0.004  0.00  0.00    +0.163 A 
ATOM     19  C   UNL     1      -7.221   1.601   0.005  0.00  0.00    +0.054 A 
BRANCH  18  20
ATOM     20  O   UNL     1      -5.946   3.607  -0.058  0.00  0.00    -0.491 OA
ATOM     21  C   UNL     1      -7.193   4.302  -0.101  0.00  0.00    +0.277 C 
ENDBRANCH  18  20
BRANCH  17  22
ATOM     22  O   UNL     1      -3.616   2.140   0.031  0.00  0.00    -0.418 OA
BRANCH  22  23
ATOM     23  C   UNL     1      -3.128   2.545   1.221  0.00  0.00    +0.351 C 
ATOM     24  O   UNL     1      -3.800   2.423   2.227  0.00  0.00    -0.244 OA
BRANCH  23  25
ATOM     25  C   UNL     1      -1.789   3.131   1.302  0.00  0.00    +0.097 A 
ATOM     26  C   UNL     1      -1.108   3.606   2.413  0.00  0.00    +0.022 A 
ATOM     27  C   UNL     1       0.153   4.106   2.207  0.00  0.00    +0.008 A 
ATOM     28  C   UNL     1       0.664   4.117   0.947  0.00  0.00    +0.046 A 
ATOM     29  S   UNL     1      -0.609   3.424  -0.004  0.00  0.00    -0.090 S 
ENDBRANCH  23  25
ENDBRANCH  22  23
ENDBRANCH  17  22
ENDBRANCH   6  14
BRANCH   8  30
ATOM     30  N   UNL     1      -8.673  -3.333   2.490  0.00  0.00    -0.328 N 
ATOM     31  H   UNL     1      -8.534  -4.293   2.493  0.00  0.00    +0.145 HD
ATOM     32  H   UNL     1      -8.904  -2.874   3.313  0.00  0.00    +0.145 HD
ENDBRANCH   8  30
BRANCH   7  33
ATOM     33  C   UNL     1      -9.072  -0.624   2.561  0.00  0.00    +0.101 C 
ATOM     34  N   UNL     1      -9.338  -0.101   3.534  0.00  0.00    -0.191 NA
ENDBRANCH   7  33
TORSDOF 7
