REMARK  Name = ZINC50361866
REMARK  7 active torsions:
REMARK  status: ('A' for Active; 'I' for Inactive)
REMARK    1  A    between atoms: C_1  and  N_2
REMARK    2  A    between atoms: N_2  and  C_3
REMARK    3  A    between atoms: N_2  and  C_10
REMARK    4  A    between atoms: C_3  and  C_4
REMARK    5  A    between atoms: C_10  and  C_12
REMARK    6  A    between atoms: C_10  and  C_14
REMARK    7  A    between atoms: C_12  and  N_13
REMARK                            x       y       z     vdW  Elec       q    Type
REMARK                         _______ _______ _______ _____ _____    ______ ____
ROOT
ATOM      1  C   UNL     1       0.665  -0.609  -1.151  0.00  0.00    -0.019 C 
ENDROOT
BRANCH   1   2
ATOM      2  C   UNL     1      -0.152  -0.352  -2.391  0.00  0.00    +0.092 A 
ATOM      3  C   UNL     1       0.328  -0.271  -3.645  0.00  0.00    +0.059 A 
ATOM      4  C   UNL     1      -0.778  -0.022  -4.492  0.00  0.00    +0.070 A 
ATOM      5  C   UNL     1      -1.868   0.034  -3.703  0.00  0.00    +0.184 A 
ATOM      6  O   UNL     1      -1.482  -0.172  -2.432  0.00  0.00    -0.454 OA
ATOM      7 BR   UNL     1      -3.640   0.344  -4.285  0.00  0.00    -0.007 Br
ATOM      8 BR   UNL     1      -0.734   0.192  -6.370  0.00  0.00    -0.046 Br
ENDBRANCH   1   2
BRANCH   1  10
ATOM      9  C   UNL     1       0.502   1.730  -0.645  0.00  0.00    -0.095 C 
ATOM     10  N   UNL     1       0.308   0.373  -0.118  0.00  0.00    +0.386 N 
ATOM     11  H   UNL     1       0.897   0.239   0.691  0.00  0.00    -0.081 HD
BRANCH  10  12
ATOM     12  C   UNL     1      -1.099   0.193   0.264  0.00  0.00    -0.042 C 
BRANCH  12  13
ATOM     13  C   UNL     1      -1.422   1.093   1.428  0.00  0.00    -0.061 A 
ATOM     14  C   UNL     1      -1.252   0.656   2.733  0.00  0.00    +0.021 A 
ATOM     15  C   UNL     1      -1.560   1.510   3.775  0.00  0.00    +0.111 A 
ATOM     16  N   UNL     1      -2.009   2.727   3.540  0.00  0.00    -0.263 NA
ATOM     17  C   UNL     1      -2.182   3.177   2.312  0.00  0.00    +0.111 A 
ATOM     18  C   UNL     1      -1.891   2.382   1.220  0.00  0.00    +0.021 A 
ENDBRANCH  12  13
ENDBRANCH  10  12
ENDBRANCH   1  10
BRANCH   1  19
ATOM     19  C   UNL     1       0.377  -2.020  -0.634  0.00  0.00    -0.094 C 
BRANCH  19  20
ATOM     20  N   UNL     1       1.060  -2.219   0.651  0.00  0.00    +0.377 N 
ATOM     21  H   UNL     1       2.042  -2.011   0.546  0.00  0.00    -0.090 HD
ATOM     22  H   UNL     1       0.658  -1.606   1.344  0.00  0.00    -0.090 HD
ATOM     23  H   UNL     1       0.949  -3.178   0.946  0.00  0.00    -0.090 HD
ENDBRANCH  19  20
ENDBRANCH   1  19
TORSDOF 6
