REMARK  Name = ZINC09251758
REMARK  6 active torsions:
REMARK  status: ('A' for Active; 'I' for Inactive)
REMARK    1  A    between atoms: C_1  and  C_2
REMARK    2  A    between atoms: C_5  and  N_9
REMARK    3  A    between atoms: C_6  and  C_8
REMARK    4  A    between atoms: N_9  and  S_10
REMARK    5  A    between atoms: S_10  and  C_13
REMARK    6  A    between atoms: C_22  and  C_27
REMARK                            x       y       z     vdW  Elec       q    Type
REMARK                         _______ _______ _______ _____ _____    ______ ____
ROOT
ATOM      1  C   UNL     1       2.324   5.114   2.463  0.00  0.00    +0.110 A 
ATOM      2  C   UNL     1       3.473   4.917   3.208  0.00  0.00    +0.031 A 
ATOM      3  C   UNL     1       3.382   4.713   4.568  0.00  0.00    +0.027 A 
ATOM      4  C   UNL     1       2.141   4.702   5.208  0.00  0.00    +0.055 A 
ATOM      5  C   UNL     1       0.990   4.900   4.462  0.00  0.00    +0.057 A 
ATOM      6  C   UNL     1       1.094   5.111   3.085  0.00  0.00    +0.054 A 
ATOM      7  N   UNL     1      -0.291   4.905   5.004  0.00  0.00    -0.283 N 
ATOM      8  C   UNL     1      -0.644   5.475   6.154  0.00  0.00    +0.229 C 
ATOM      9  O   UNL     1      -1.806   5.446   6.501  0.00  0.00    -0.275 OA
ATOM     10  C   UNL     1       0.373   6.155   7.033  0.00  0.00    +0.158 C 
ATOM     11  C   UNL     1       1.384   5.126   7.469  0.00  0.00    +0.229 C 
ATOM     12  O   UNL     1       1.508   4.875   8.649  0.00  0.00    -0.275 OA
ATOM     13  N   UNL     1       2.144   4.487   6.583  0.00  0.00    -0.283 N 
ATOM     14  C   UNL     1       1.073   7.266   6.248  0.00  0.00    +0.027 C 
ATOM     15  H   UNL     1      -0.988   4.455   4.500  0.00  0.00    +0.155 HD
ATOM     16  H   UNL     1       2.752   3.814   6.925  0.00  0.00    +0.155 HD
ENDROOT
BRANCH   1  17
ATOM     17  S   UNL     1       2.433   5.375   0.724  0.00  0.00    +0.072 S 
ATOM     18  O   UNL     1       3.737   5.880   0.471  0.00  0.00    -0.150 OA
ATOM     19  O   UNL     1       1.257   6.076   0.344  0.00  0.00    -0.150 OA
BRANCH  17  20
ATOM     20  N   UNL     1       2.353   3.888   0.000  0.00  0.00    -0.216 N 
ATOM     21  H   UNL     1       3.091   3.574  -0.547  0.00  0.00    +0.174 HD
BRANCH  20  26
ATOM     22  C   UNL     1      -2.233   0.628   0.702  0.00  0.00    +0.044 C 
ATOM     23  C   UNL     1      -1.014   1.494   0.519  0.00  0.00    -0.050 A 
ATOM     24  C   UNL     1      -1.150   2.868   0.440  0.00  0.00    +0.005 A 
ATOM     25  C   UNL     1      -0.035   3.665   0.266  0.00  0.00    +0.025 A 
ATOM     26  C   UNL     1       1.224   3.085   0.176  0.00  0.00    +0.051 A 
ATOM     27  C   UNL     1       1.357   1.705   0.261  0.00  0.00    -0.028 A 
ATOM     28  C   UNL     1       0.238   0.914   0.435  0.00  0.00    +0.008 A 
ATOM     29  C   UNL     1       2.721   1.072   0.164  0.00  0.00    +0.046 C 
ENDBRANCH  20  26
ENDBRANCH  17  20
ENDBRANCH   1  17
TORSDOF 3
