REMARK  Name = ZINC12635596
REMARK  13 active torsions:
REMARK  status: ('A' for Active; 'I' for Inactive)
REMARK    1  A    between atoms: C_1  and  C_2
REMARK    2  A    between atoms: C_2  and  C_3
REMARK    3  A    between atoms: C_6  and  N_9
REMARK    4  A    between atoms: N_9  and  C_10
REMARK    5  A    between atoms: C_10  and  N_12
REMARK    6  A    between atoms: N_12  and  C_13
REMARK    7  A    between atoms: N_12  and  C_28
REMARK    8  A    between atoms: C_13  and  C_14
REMARK    9  A    between atoms: C_19  and  C_27
REMARK   10  A    between atoms: C_20  and  C_26
REMARK   11  A    between atoms: C_28  and  C_29
REMARK   12  A    between atoms: C_34  and  C_35
REMARK   13  A    between atoms: C_34  and  N_70
REMARK                            x       y       z     vdW  Elec       q    Type
REMARK                         _______ _______ _______ _____ _____    ______ ____
ROOT
ATOM      1  N   UNL     1      -2.678  -3.288  -1.243  0.00  0.00    -0.309 N 
ENDROOT
BRANCH   1   2
ATOM      2  C   UNL     1      -2.109  -4.452  -1.613  0.00  0.00    +0.137 C 
ATOM      3  S   UNL     1      -1.020  -5.246  -0.558  0.00  0.00    -0.018 S 
BRANCH   2   4
ATOM      4  N   UNL     1      -2.398  -4.992  -2.814  0.00  0.00    -0.297 N 
ATOM      5  H   UNL     1      -2.968  -4.513  -3.436  0.00  0.00    +0.154 HD
BRANCH   4   9
ATOM      6  C   UNL     1      -0.843  -8.714  -3.854  0.00  0.00    -0.048 A 
ATOM      7  C   UNL     1      -2.170  -8.423  -4.114  0.00  0.00    +0.005 A 
ATOM      8  C   UNL     1      -2.688  -7.190  -3.771  0.00  0.00    +0.023 A 
ATOM      9  C   UNL     1      -1.876  -6.242  -3.163  0.00  0.00    +0.033 A 
ATOM     10  C   UNL     1      -0.543  -6.535  -2.907  0.00  0.00    +0.023 A 
ATOM     11  C   UNL     1      -0.032  -7.772  -3.249  0.00  0.00    +0.005 A 
BRANCH   6  13
ATOM     12  C   UNL     1       0.277 -10.001  -5.653  0.00  0.00    +0.009 C 
ATOM     13  C   UNL     1      -0.281 -10.060  -4.230  0.00  0.00    +0.032 C 
ENDBRANCH   6  13
ENDBRANCH   4   9
ENDBRANCH   2   4
ENDBRANCH   1   2
BRANCH   1  14
ATOM     14  C   UNL     1      -2.286  -2.648   0.015  0.00  0.00    +0.147 C 
BRANCH  14  15
ATOM     15  C   UNL     1      -3.161  -3.157   1.132  0.00  0.00    +0.035 A 
ATOM     16  C   UNL     1      -2.725  -4.168   1.925  0.00  0.00    +0.020 A 
ATOM     17  C   UNL     1      -3.599  -4.639   3.000  0.00  0.00    -0.001 A 
ATOM     18  C   UNL     1      -3.204  -5.677   3.850  0.00  0.00    +0.010 A 
ATOM     19  C   UNL     1      -4.043  -6.094   4.845  0.00  0.00    +0.004 A 
ATOM     20  C   UNL     1      -5.284  -5.497   5.019  0.00  0.00    -0.046 A 
ATOM     21  C   UNL     1      -5.694  -4.473   4.193  0.00  0.00    -0.024 A 
ATOM     22  C   UNL     1      -4.856  -4.031   3.174  0.00  0.00    +0.052 A 
ATOM     23  N   UNL     1      -5.241  -3.008   2.333  0.00  0.00    -0.322 N 
ATOM     24  H   UNL     1      -6.108  -2.590   2.454  0.00  0.00    +0.169 HD
ATOM     25  C   UNL     1      -4.431  -2.582   1.348  0.00  0.00    +0.254 A 
ATOM     26  O   UNL     1      -4.803  -1.675   0.624  0.00  0.00    -0.268 OA
ATOM     27  C   UNL     1      -7.043  -3.833   4.394  0.00  0.00    +0.046 C 
ATOM     28  C   UNL     1      -6.193  -5.974   6.122  0.00  0.00    +0.044 C 
ENDBRANCH  14  15
ENDBRANCH   1  14
BRANCH   1  29
ATOM     29  C   UNL     1      -3.688  -2.661  -2.099  0.00  0.00    +0.092 C 
BRANCH  29  30
ATOM     30  C   UNL     1      -2.996  -1.837  -3.186  0.00  0.00    -0.051 C 
ATOM     31  C   UNL     1      -4.049  -1.144  -4.070  0.00  0.00    -0.016 C 
ATOM     32  C   UNL     1      -3.756   0.368  -3.936  0.00  0.00    -0.020 C 
ATOM     33  C   UNL     1      -2.276   0.396  -3.481  0.00  0.00    -0.078 C 
ATOM     34  N   UNL     1      -2.200  -0.769  -2.582  0.00  0.00    +0.382 N 
ATOM     35  H   UNL     1      -2.589  -0.524  -1.664  0.00  0.00    -0.081 HD
BRANCH  34  36
ATOM     36  C   UNL     1      -0.780  -1.208  -2.412  0.00  0.00    -0.082 C 
ATOM     37  C   UNL     1       0.057  -0.050  -1.866  0.00  0.00    -0.017 C 
ENDBRANCH  34  36
ENDBRANCH  29  30
ENDBRANCH   1  29
TORSDOF 9
