REMARK  Name = ZINC38556193
REMARK  7 active torsions:
REMARK  status: ('A' for Active; 'I' for Inactive)
REMARK    1  A    between atoms: C_4  and  C_7
REMARK    2  A    between atoms: C_9  and  C_13
REMARK    3  A    between atoms: C_17  and  S_21
REMARK    4  A    between atoms: N_19  and  N_20
REMARK    5  A    between atoms: S_21  and  C_22
REMARK    6  A    between atoms: C_22  and  C_23
REMARK    7  A    between atoms: C_23  and  C_25
REMARK                            x       y       z     vdW  Elec       q    Type
REMARK                         _______ _______ _______ _____ _____    ______ ____
ROOT
ATOM      1  C   UNL     1       5.782  -3.012   1.181  0.00  0.00    +0.185 C 
ATOM      2  N   UNL     1       5.180  -4.371   1.200  0.00  0.00    -0.234 NA
ATOM      3  N   UNL     1       6.106  -5.133   2.051  0.00  0.00    -0.228 NA
ATOM      4  C   UNL     1       7.447  -4.615   1.695  0.00  0.00    +0.214 C 
ATOM      5  N   UNL     1       7.242  -3.258   1.143  0.00  0.00    -0.197 NA
ATOM      6  H   UNL     1       4.254  -4.351   1.600  0.00  0.00    +0.143 HD
ATOM      7  H   UNL     1       5.908  -4.981   3.029  0.00  0.00    +0.143 HD
ENDROOT
BRANCH   1  10
ATOM      8  C   UNL     1       3.699  -0.689  -0.037  0.00  0.00    +0.091 C 
ATOM      9  C   UNL     1       3.832  -2.029  -0.051  0.00  0.00    +0.034 C 
ATOM     10  C   UNL     1       5.335  -2.245  -0.065  0.00  0.00    +0.187 C 
ATOM     11  N   UNL     1       5.871  -0.874  -0.056  0.00  0.00    -0.176 NA
ATOM     12  N   UNL     1       4.919  -0.090  -0.047  0.00  0.00    -0.154 NA
BRANCH   8  16
ATOM     13  C   UNL     1      -0.017   1.379   0.010  0.00  0.00    +0.000 A 
ATOM     14  C   UNL     1       1.169   2.092   0.002  0.00  0.00    +0.001 A 
ATOM     15  C   UNL     1       2.377   1.426  -0.013  0.00  0.00    +0.010 A 
ATOM     16  C   UNL     1       2.402   0.033  -0.021  0.00  0.00    +0.002 A 
ATOM     17  C   UNL     1       1.205  -0.680  -0.013  0.00  0.00    +0.010 A 
ATOM     18  C   UNL     1       0.002  -0.004   0.002  0.00  0.00    +0.001 A 
ENDBRANCH   8  16
ENDBRANCH   1  10
BRANCH   5  19
ATOM     19  N   UNL     1       7.960  -2.262   1.921  0.00  0.00    -0.264 NA
ATOM     20  H   UNL     1       8.954  -2.429   1.895  0.00  0.00    +0.137 HD
ATOM     21  H   UNL     1       7.742  -1.329   1.603  0.00  0.00    +0.137 HD
ENDBRANCH   5  19
BRANCH   4  22
ATOM     22  S   UNL     1       8.494  -4.531   3.174  0.00  0.00    -0.116 S 
BRANCH  22  23
ATOM     23  C   UNL     1       7.582  -3.435   4.295  0.00  0.00    +0.151 C 
BRANCH  23  24
ATOM     24  C   UNL     1       8.353  -3.278   5.581  0.00  0.00    +0.174 C 
ATOM     25  O   UNL     1       9.413  -3.849   5.726  0.00  0.00    -0.291 OA
BRANCH  24  26
ATOM     26  C   UNL     1       7.820  -2.432   6.659  0.00  0.00    +0.037 A 
ATOM     27  C   UNL     1       6.594  -1.776   6.498  0.00  0.00    +0.013 A 
ATOM     28  C   UNL     1       6.101  -0.985   7.513  0.00  0.00    +0.001 A 
ATOM     29  C   UNL     1       6.814  -0.838   8.691  0.00  0.00    +0.001 A 
ATOM     30  C   UNL     1       8.027  -1.482   8.859  0.00  0.00    +0.021 A 
ATOM     31  C   UNL     1       8.532  -2.283   7.855  0.00  0.00    +0.051 A 
ATOM     32 CL   UNL     1      10.050  -3.097   8.071  0.00  0.00    -0.083 Cl
ENDBRANCH  24  26
ENDBRANCH  23  24
ENDBRANCH  22  23
ENDBRANCH   4  22
TORSDOF 7
