REMARK  Name = ZINC12403980
REMARK  8 active torsions:
REMARK  status: ('A' for Active; 'I' for Inactive)
REMARK    1  A    between atoms: C_1  and  C_2
REMARK    2  A    between atoms: C_7  and  O_8
REMARK    3  A    between atoms: O_8  and  C_9
REMARK    4  A    between atoms: C_9  and  C_10
REMARK    5  A    between atoms: N_12  and  N_13
REMARK    6  A    between atoms: C_16  and  C_22
REMARK    7  A    between atoms: C_20  and  C_21
REMARK    8  A    between atoms: C_22  and  C_24
REMARK                            x       y       z     vdW  Elec       q    Type
REMARK                         _______ _______ _______ _____ _____    ______ ____
ROOT
ATOM      1  C   UNL     1      -5.627  -2.145   2.566  0.00  0.00    +0.270 C 
ATOM      2  O   UNL     1      -6.815  -1.900   2.584  0.00  0.00    -0.270 OA
ATOM      3  N   UNL     1      -4.766  -1.269   2.011  0.00  0.00    -0.204 N 
ATOM      4  H   UNL     1      -3.817  -1.465   1.997  0.00  0.00    +0.177 HD
ENDROOT
BRANCH   3   5
ATOM      5  N   UNL     1      -5.244  -0.075   1.454  0.00  0.00    -0.185 NA
ATOM      6  C   UNL     1      -4.414   0.770   0.919  0.00  0.00    +0.062 C 
ATOM      7  C   UNL     1      -2.926   0.490   0.882  0.00  0.00    +0.065 C 
ATOM      8  C   UNL     1      -2.207   1.803   1.226  0.00  0.00    +0.024 C 
ATOM      9  C   UNL     1      -2.546   2.849   0.165  0.00  0.00    +0.035 C 
ATOM     10  C   UNL     1      -4.030   2.980  -0.011  0.00  0.00    -0.021 C 
ATOM     11  C   UNL     1      -4.888   2.031   0.327  0.00  0.00    -0.032 C 
ATOM     12  C   UNL     1      -6.363   2.244   0.106  0.00  0.00    +0.045 C 
BRANCH   8  13
ATOM     13  C   UNL     1      -0.718   1.572   1.248  0.00  0.00    -0.076 C 
ATOM     14  C   UNL     1      -0.037   1.793   2.345  0.00  0.00    +0.007 C 
ATOM     15  C   UNL     1      -0.013   1.086   0.008  0.00  0.00    +0.039 C 
ENDBRANCH   8  13
ENDBRANCH   3   5
BRANCH   1  16
ATOM     16  C   UNL     1      -5.113  -3.429   3.165  0.00  0.00    +0.326 C 
BRANCH  16  17
ATOM     17  O   UNL     1      -6.209  -4.184   3.686  0.00  0.00    -0.482 OA
BRANCH  17  24
ATOM     18  C   UNL     1      -8.360  -5.685   4.734  0.00  0.00    +0.047 C 
ATOM     19  C   UNL     1      -6.931  -6.159   4.798  0.00  0.00    -0.007 A 
ATOM     20  C   UNL     1      -6.632  -7.374   5.383  0.00  0.00    +0.027 A 
ATOM     21  C   UNL     1      -5.320  -7.808   5.446  0.00  0.00    +0.041 A 
ATOM     22  C   UNL     1      -4.305  -7.027   4.921  0.00  0.00    +0.023 A 
ATOM     23  C   UNL     1      -4.601  -5.814   4.331  0.00  0.00    +0.047 A 
ATOM     24  C   UNL     1      -5.916  -5.378   4.266  0.00  0.00    +0.124 A 
ATOM     25 CL   UNL     1      -4.945  -9.332   6.187  0.00  0.00    -0.084 Cl
ENDBRANCH  17  24
ENDBRANCH  16  17
ENDBRANCH   1  16
TORSDOF 5
