REMARK  Name = ZINC35004545
REMARK  12 active torsions:
REMARK  status: ('A' for Active; 'I' for Inactive)
REMARK    1  A    between atoms: C_1  and  C_2
REMARK    2  A    between atoms: C_2  and  C_3
REMARK    3  A    between atoms: C_3  and  C_4
REMARK    4  A    between atoms: C_4  and  N_5
REMARK    5  A    between atoms: C_13  and  C_15
REMARK    6  A    between atoms: C_16  and  C_18
REMARK    7  A    between atoms: C_18  and  C_20
REMARK    8  A    between atoms: C_18  and  N_25
REMARK    9  A    between atoms: C_20  and  C_22
REMARK   10  A    between atoms: C_20  and  C_23
REMARK   11  A    between atoms: C_23  and  C_24
REMARK   12  A    between atoms: N_28  and  C_29
REMARK                            x       y       z     vdW  Elec       q    Type
REMARK                         _______ _______ _______ _____ _____    ______ ____
ROOT
ATOM      1  C   UNL     1       6.102  -4.546   7.432  0.00  0.00    +0.163 C 
ENDROOT
BRANCH   1  12
ATOM      2  N   UNL     1       0.335  -5.515   4.264  0.00  0.00    -0.299 N 
ATOM      3  C   UNL     1       1.226  -6.526   4.255  0.00  0.00    +0.303 C 
ATOM      4  O   UNL     1       1.035  -7.499   3.551  0.00  0.00    -0.253 OA
ATOM      5  N   UNL     1       2.329  -6.459   5.027  0.00  0.00    -0.280 N 
ATOM      6  C   UNL     1       2.498  -5.368   5.997  0.00  0.00    +0.128 C 
ATOM      7  C   UNL     1       3.830  -4.662   5.714  0.00  0.00    +0.127 C 
ATOM      8  N   UNL     1       4.885  -5.679   5.601  0.00  0.00    -0.297 N 
ATOM      9  C   UNL     1       4.716  -6.770   4.631  0.00  0.00    +0.130 C 
ATOM     10  C   UNL     1       3.381  -7.479   4.918  0.00  0.00    +0.092 C 
ATOM     11  C   UNL     1       3.050  -8.438   3.772  0.00  0.00    +0.030 C 
ATOM     12  C   UNL     1       5.988  -5.612   6.372  0.00  0.00    +0.236 C 
ATOM     13  O   UNL     1       6.888  -6.409   6.214  0.00  0.00    -0.274 OA
ATOM     14  H   UNL     1       0.447  -4.775   4.880  0.00  0.00    +0.150 HD
BRANCH   2  15
ATOM     15  C   UNL     1      -0.804  -5.534   3.342  0.00  0.00    +0.106 C 
BRANCH  15  16
ATOM     16  C   UNL     1      -1.655  -4.281   3.556  0.00  0.00    +0.018 C 
BRANCH  16  18
ATOM     17  C   UNL     1      -3.694  -3.047   2.807  0.00  0.00    +0.004 C 
ATOM     18  C   UNL     1      -2.844  -4.301   2.594  0.00  0.00    -0.002 C 
ENDBRANCH  16  18
ENDBRANCH  15  16
ENDBRANCH   2  15
ENDBRANCH   1  12
BRANCH   1  19
ATOM     19  N   UNL     1       7.502  -4.134   7.560  0.00  0.00    -0.288 N 
ATOM     20  C   UNL     1       7.803  -2.908   8.033  0.00  0.00    +0.305 C 
ATOM     21  O   UNL     1       6.913  -2.144   8.352  0.00  0.00    -0.252 OA
ATOM     22  N   UNL     1       9.091  -2.529   8.151  0.00  0.00    -0.268 N 
ATOM     23  H   UNL     1       8.213  -4.743   7.305  0.00  0.00    +0.151 HD
ATOM     24  H   UNL     1       9.801  -3.133   7.883  0.00  0.00    +0.156 HD
BRANCH  22  25
ATOM     25  C   UNL     1       9.404  -1.262   8.659  0.00  0.00    +0.049 A 
ATOM     26  C   UNL     1       8.541  -0.195   8.448  0.00  0.00    +0.024 A 
ATOM     27  C   UNL     1       8.853   1.053   8.952  0.00  0.00    +0.002 A 
ATOM     28  C   UNL     1      10.022   1.240   9.666  0.00  0.00    +0.001 A 
ATOM     29  C   UNL     1      10.883   0.180   9.879  0.00  0.00    +0.017 A 
ATOM     30  C   UNL     1      10.575  -1.073   9.382  0.00  0.00    +0.039 A 
ATOM     31 BR   UNL     1      11.750  -2.524   9.679  0.00  0.00    -0.048 Br
ENDBRANCH  22  25
ENDBRANCH   1  19
BRANCH   1  32
ATOM     32  C   UNL     1       5.609  -5.101   8.769  0.00  0.00    +0.015 C 
ATOM     33  C   UNL     1       4.112  -5.400   8.677  0.00  0.00    +0.010 C 
BRANCH  32  34
ATOM     34  C   UNL     1       6.367  -6.390   9.097  0.00  0.00    +0.002 C 
ATOM     35  C   UNL     1       5.965  -6.878  10.490  0.00  0.00    +0.004 C 
ENDBRANCH  32  34
ENDBRANCH   1  32
TORSDOF 8
