REMARK  Name = ZINC06472746
REMARK  8 active torsions:
REMARK  status: ('A' for Active; 'I' for Inactive)
REMARK    1  A    between atoms: C_1  and  C_2
REMARK    2  A    between atoms: C_5  and  N_9
REMARK    3  A    between atoms: C_6  and  C_8
REMARK    4  A    between atoms: C_10  and  C_12
REMARK    5  A    between atoms: C_12  and  S_13
REMARK    6  A    between atoms: S_13  and  C_14
REMARK    7  A    between atoms: C_17  and  C_20
REMARK    8  A    between atoms: N_18  and  C_19
REMARK                            x       y       z     vdW  Elec       q    Type
REMARK                         _______ _______ _______ _____ _____    ______ ____
ROOT
ATOM      1  C   UNL     1      -6.428   2.048  -0.410  0.00  0.00    +0.192 A 
ATOM      2  N   UNL     1      -6.369   3.362  -0.391  0.00  0.00    -0.122 NA
ATOM      3  N   UNL     1      -7.550   3.859  -0.490  0.00  0.00    -0.125 NA
ATOM      4  C   UNL     1      -8.438   2.892  -0.570  0.00  0.00    +0.200 A 
ATOM      5  N   UNL     1      -7.744   1.703  -0.521  0.00  0.00    -0.303 N 
ATOM      6  C   UNL     1      -8.303   0.349  -0.576  0.00  0.00    +0.153 C 
ENDROOT
BRANCH   4   7
ATOM      7  C   UNL     1      -9.896   3.051  -0.689  0.00  0.00    +0.173 A 
ATOM      8  C   UNL     1     -10.579   4.198  -0.444  0.00  0.00    +0.061 A 
ATOM      9  C   UNL     1     -11.989   3.892  -0.692  0.00  0.00    +0.021 A 
ATOM     10  C   UNL     1     -13.172   4.629  -0.621  0.00  0.00    +0.011 A 
ATOM     11  C   UNL     1     -14.363   4.028  -0.920  0.00  0.00    +0.001 A 
ATOM     12  C   UNL     1     -14.403   2.692  -1.291  0.00  0.00    +0.004 A 
ATOM     13  C   UNL     1     -13.245   1.947  -1.366  0.00  0.00    +0.047 A 
ATOM     14  C   UNL     1     -12.023   2.536  -1.067  0.00  0.00    +0.136 A 
ATOM     15  O   UNL     1     -10.755   2.077  -1.052  0.00  0.00    -0.452 OA
ENDBRANCH   4   7
BRANCH   1  16
ATOM     16  S   UNL     1      -5.062   0.940  -0.304  0.00  0.00    -0.077 S 
BRANCH  16  17
ATOM     17  C   UNL     1      -3.702   2.128  -0.184  0.00  0.00    +0.173 C 
BRANCH  17  19
ATOM     18  N   UNL     1      -1.237   2.069   0.019  0.00  0.00    -0.285 N 
ATOM     19  C   UNL     1      -2.394   1.385  -0.081  0.00  0.00    +0.227 C 
ATOM     20  O   UNL     1      -2.383   0.173  -0.088  0.00  0.00    -0.275 OA
ATOM     21  H   UNL     1      -1.250   3.037   0.090  0.00  0.00    +0.155 HD
BRANCH  18  26
ATOM     22  C   UNL     1       3.704  -0.717   0.009  0.00  0.00    +0.044 C 
ATOM     23  C   UNL     1       2.392   0.024   0.013  0.00  0.00    -0.050 A 
ATOM     24  C   UNL     1       1.282  -0.542   0.613  0.00  0.00    +0.005 A 
ATOM     25  C   UNL     1       0.078   0.134   0.619  0.00  0.00    +0.024 A 
ATOM     26  C   UNL     1      -0.017   1.384   0.021  0.00  0.00    +0.036 A 
ATOM     27  C   UNL     1       1.099   1.949  -0.581  0.00  0.00    -0.029 A 
ATOM     28  C   UNL     1       2.300   1.267  -0.584  0.00  0.00    +0.008 A 
ATOM     29  C   UNL     1       1.000   3.305  -1.231  0.00  0.00    +0.045 C 
ENDBRANCH  18  26
ENDBRANCH  17  19
ENDBRANCH  16  17
ENDBRANCH   1  16
TORSDOF 5
