REMARK  Name = ZINC13637119
REMARK  7 active torsions:
REMARK  status: ('A' for Active; 'I' for Inactive)
REMARK    1  A    between atoms: C_1  and  C_2
REMARK    2  A    between atoms: C_4  and  C_35
REMARK    3  A    between atoms: C_6  and  N_8
REMARK    4  A    between atoms: N_8  and  S_9
REMARK    5  A    between atoms: S_9  and  C_12
REMARK    6  A    between atoms: C_25  and  C_28
REMARK    7  A    between atoms: C_31  and  O_34
REMARK                            x       y       z     vdW  Elec       q    Type
REMARK                         _______ _______ _______ _____ _____    ______ ____
ROOT
ATOM      1  C   UNL     1       2.292   2.702   2.313  0.00  0.00    +0.109 A 
ATOM      2  C   UNL     1       3.272   2.757   1.340  0.00  0.00    +0.030 A 
ATOM      3  C   UNL     1       2.985   2.377   0.045  0.00  0.00    +0.025 A 
ATOM      4  C   UNL     1       1.711   1.937  -0.291  0.00  0.00    +0.031 A 
ATOM      5  C   UNL     1       0.727   1.872   0.702  0.00  0.00    -0.018 A 
ATOM      6  C   UNL     1       1.022   2.259   1.991  0.00  0.00    +0.034 A 
ATOM      7  C   UNL     1      -0.610   1.378   0.307  0.00  0.00    +0.049 C 
ATOM      8  C   UNL     1      -1.843   1.785   1.028  0.00  0.00    -0.023 C 
ATOM      9  C   UNL     1      -2.851   1.817   0.196  0.00  0.00    -0.030 C 
ATOM     10  C   UNL     1      -2.369   1.457  -1.211  0.00  0.00    +0.033 C 
ATOM     11  C   UNL     1      -0.891   1.866  -1.145  0.00  0.00    +0.029 C 
ATOM     12  C   UNL     1       0.093   1.113  -2.023  0.00  0.00    +0.105 C 
ATOM     13  N   UNL     1       1.433   1.591  -1.619  0.00  0.00    -0.336 N 
ATOM     14  H   UNL     1       2.133   1.667  -2.287  0.00  0.00    +0.147 HD
ENDROOT
BRANCH  12  15
ATOM     15  C   UNL     1      -0.023  -0.371  -1.786  0.00  0.00    -0.027 A 
ATOM     16  C   UNL     1       0.735  -0.974  -0.800  0.00  0.00    +0.009 A 
ATOM     17  C   UNL     1       0.626  -2.333  -0.578  0.00  0.00    +0.046 A 
ATOM     18  C   UNL     1      -0.236  -3.094  -1.353  0.00  0.00    +0.117 A 
ATOM     19  C   UNL     1      -0.992  -2.488  -2.345  0.00  0.00    +0.046 A 
ATOM     20  C   UNL     1      -0.884  -1.127  -2.560  0.00  0.00    +0.009 A 
BRANCH  18  21
ATOM     21  O   UNL     1      -0.342  -4.433  -1.139  0.00  0.00    -0.507 OA
ATOM     22  H   UNL     1       0.277  -4.963  -1.659  0.00  0.00    +0.292 HD
ENDBRANCH  18  21
ENDBRANCH  12  15
BRANCH   1  23
ATOM     23  S   UNL     1       2.660   3.197   3.964  0.00  0.00    +0.072 S 
ATOM     24  O   UNL     1       3.827   4.004   3.895  0.00  0.00    -0.150 OA
ATOM     25  O   UNL     1       1.443   3.665   4.529  0.00  0.00    -0.150 OA
BRANCH  23  26
ATOM     26  N   UNL     1       3.078   1.832   4.803  0.00  0.00    -0.216 N 
ATOM     27  H   UNL     1       3.966   1.750   5.184  0.00  0.00    +0.174 HD
BRANCH  26  33
ATOM     28  C   UNL     1      -1.481   0.371   5.917  0.00  0.00    +0.044 C 
ATOM     29  C   UNL     1      -0.066   0.061   5.500  0.00  0.00    -0.048 A 
ATOM     30  C   UNL     1       0.316  -1.248   5.275  0.00  0.00    +0.006 A 
ATOM     31  C   UNL     1       1.613  -1.537   4.893  0.00  0.00    -0.048 A 
ATOM     32  C   UNL     1       2.532  -0.518   4.735  0.00  0.00    +0.028 A 
ATOM     33  C   UNL     1       2.151   0.799   4.961  0.00  0.00    +0.049 A 
ATOM     34  C   UNL     1       0.849   1.085   5.350  0.00  0.00    +0.028 A 
ATOM     35  C   UNL     1       2.025  -2.966   4.649  0.00  0.00    +0.044 C 
ENDBRANCH  26  33
ENDBRANCH  23  26
ENDBRANCH   1  23
TORSDOF 5
