REMARK  Name = ZINC63617071
REMARK  10 active torsions:
REMARK  status: ('A' for Active; 'I' for Inactive)
REMARK    1  A    between atoms: C_1  and  C_2
REMARK    2  A    between atoms: C_2  and  C_3
REMARK    3  A    between atoms: C_3  and  C_4
REMARK    4  A    between atoms: C_3  and  C_5
REMARK    5  A    between atoms: C_3  and  N_14
REMARK    6  A    between atoms: N_7  and  C_8
REMARK    7  A    between atoms: N_14  and  C_15
REMARK    8  A    between atoms: C_15  and  C_16
REMARK    9  A    between atoms: C_21  and  C_23
REMARK   10  A    between atoms: C_23  and  C_24
REMARK                            x       y       z     vdW  Elec       q    Type
REMARK                         _______ _______ _______ _____ _____    ______ ____
ROOT
ATOM      1  N   UNL     1       1.853   0.216  -1.323  0.00  0.00    -0.282 N 
ATOM      2  C   UNL     1       2.924   0.176  -0.507  0.00  0.00    +0.221 C 
ATOM      3  O   UNL     1       2.908  -0.528   0.481  0.00  0.00    -0.275 OA
ENDROOT
BRANCH   1   4
ATOM      4  C   UNL     1       0.668  -0.590  -1.018  0.00  0.00    +0.111 C 
ATOM      5  C   UNL     1       1.061  -2.067  -0.947  0.00  0.00    +0.042 C 
BRANCH   4   6
ATOM      6  C   UNL     1      -0.364  -0.396  -2.099  0.00  0.00    +0.237 C 
ATOM      7  O   UNL     1      -1.453   0.060  -1.822  0.00  0.00    -0.273 OA
ATOM      8  N   UNL     1      -0.076  -0.730  -3.373  0.00  0.00    -0.311 N 
ATOM      9  H   UNL     1       0.769  -1.156  -3.583  0.00  0.00    +0.149 HD
BRANCH   8  10
ATOM     10  C   UNL     1      -1.040  -0.448  -4.439  0.00  0.00    +0.073 C 
ATOM     11  C   UNL     1      -0.899   1.009  -4.883  0.00  0.00    +0.022 C 
ATOM     12  C   UNL     1      -1.906   1.304  -5.997  0.00  0.00    +0.002 C 
ATOM     13  C   UNL     1      -1.635   0.380  -7.186  0.00  0.00    +0.000 C 
ATOM     14  C   UNL     1      -1.777  -1.078  -6.742  0.00  0.00    +0.002 C 
ATOM     15  C   UNL     1      -0.770  -1.372  -5.628  0.00  0.00    +0.022 C 
ENDBRANCH   8  10
ENDBRANCH   4   6
BRANCH   4  17
ATOM     16  C   UNL     1      -0.307   1.325   0.256  0.00  0.00    +0.006 C 
ATOM     17  C   UNL     1       0.086  -0.151   0.328  0.00  0.00    +0.032 C 
ENDBRANCH   4  17
ENDBRANCH   1   4
BRANCH   1  18
ATOM     18  C   UNL     1       1.872   1.066  -2.516  0.00  0.00    +0.151 C 
BRANCH  18  19
ATOM     19  C   UNL     1       1.383   2.446  -2.158  0.00  0.00    +0.007 A 
ATOM     20  C   UNL     1       2.094   3.522  -1.739  0.00  0.00    +0.013 A 
ATOM     21  C   UNL     1       1.426   4.701  -1.466  0.00  0.00    +0.008 A 
ATOM     22  C   UNL     1       0.081   4.747  -1.625  0.00  0.00    +0.045 A 
ATOM     23  S   UNL     1      -0.282   3.090  -2.183  0.00  0.00    -0.100 S 
ENDBRANCH  18  19
ENDBRANCH   1  18
BRANCH   2  24
ATOM     24  C   UNL     1       4.143   1.005  -0.821  0.00  0.00    +0.129 C 
BRANCH  24  25
ATOM     25  C   UNL     1       5.190   0.781   0.239  0.00  0.00    -0.033 C 
ATOM     26  C   UNL     1       6.223  -0.091   0.191  0.00  0.00    -0.001 A 
ATOM     27  C   UNL     1       6.662  -1.056  -0.825  0.00  0.00    +0.010 A 
ATOM     28  C   UNL     1       7.759  -1.809  -0.582  0.00  0.00    +0.001 A 
ATOM     29  C   UNL     1       8.485  -1.691   0.611  0.00  0.00    +0.002 A 
ATOM     30  C   UNL     1       8.143  -0.827   1.590  0.00  0.00    +0.026 A 
ATOM     31  C   UNL     1       7.006   0.014   1.442  0.00  0.00    +0.043 A 
ATOM     32  N   UNL     1       6.479   0.917   2.233  0.00  0.00    -0.380 N 
ATOM     33  C   UNL     1       5.303   1.490   1.570  0.00  0.00    +0.145 C 
ATOM     34  H   UNL     1       6.813   1.166   3.109  0.00  0.00    +0.160 HD
ENDBRANCH  24  25
ENDBRANCH   2  24
TORSDOF 8
