REMARK  Name = ZINC21181761
REMARK  7 active torsions:
REMARK  status: ('A' for Active; 'I' for Inactive)
REMARK    1  A    between atoms: C_1  and  C_2
REMARK    2  A    between atoms: C_2  and  C_4
REMARK    3  A    between atoms: C_2  and  S_14
REMARK    4  A    between atoms: N_6  and  C_7
REMARK    5  A    between atoms: S_14  and  C_15
REMARK    6  A    between atoms: C_18  and  C_21
REMARK    7  A    between atoms: N_19  and  C_20
REMARK                            x       y       z     vdW  Elec       q    Type
REMARK                         _______ _______ _______ _____ _____    ______ ____
ROOT
ATOM      1  C   UNL     1       1.250  -0.435   0.000  0.00  0.00    +0.192 A 
ATOM      2  N   UNL     1       0.010  -0.003   0.023  0.00  0.00    -0.122 NA
ATOM      3  N   UNL     1      -0.004   1.282   0.036  0.00  0.00    -0.130 NA
ATOM      4  C   UNL     1       1.214   1.744   0.023  0.00  0.00    +0.178 A 
ATOM      5  N   UNL     1       2.057   0.667  -0.000  0.00  0.00    -0.306 N 
ATOM      6  C   UNL     1       3.522   0.690  -0.022  0.00  0.00    +0.153 C 
ENDROOT
BRANCH   4   7
ATOM      7  C   UNL     1       1.619   3.195   0.031  0.00  0.00    +0.278 C 
ATOM      8  C   UNL     1       1.406   3.784   1.432  0.00  0.00    +0.281 C 
ATOM      9  O   UNL     1       1.787   5.164   1.401  0.00  0.00    -0.484 OA
ATOM     10  C   UNL     1       1.326   5.902   0.355  0.00  0.00    +0.162 A 
ATOM     11  C   UNL     1       1.343   7.287   0.439  0.00  0.00    +0.049 A 
ATOM     12  C   UNL     1       0.880   8.050  -0.617  0.00  0.00    +0.004 A 
ATOM     13  C   UNL     1       0.399   7.436  -1.758  0.00  0.00    +0.004 A 
ATOM     14  C   UNL     1       0.379   6.057  -1.848  0.00  0.00    +0.049 A 
ATOM     15  C   UNL     1       0.840   5.285  -0.792  0.00  0.00    +0.163 A 
ATOM     16  O   UNL     1       0.808   3.928  -0.893  0.00  0.00    -0.474 OA
ENDBRANCH   4   7
BRANCH   1  17
ATOM     17  S   UNL     1       1.773  -2.117  -0.024  0.00  0.00    -0.074 S 
BRANCH  17  19
ATOM     18  C   UNL     1      -0.587  -2.626  -1.302  0.00  0.00    +0.029 C 
ATOM     19  C   UNL     1       0.165  -2.947  -0.009  0.00  0.00    +0.137 C 
BRANCH  19  20
ATOM     20  C   UNL     1       0.369  -4.436   0.098  0.00  0.00    +0.230 C 
ATOM     21  O   UNL     1       1.438  -4.925  -0.202  0.00  0.00    -0.274 OA
ATOM     22  N   UNL     1      -0.636  -5.225   0.526  0.00  0.00    -0.285 N 
ATOM     23  H   UNL     1      -1.580  -4.776   0.870  0.00  0.00    +0.155 HD
BRANCH  22  24
ATOM     24  C   UNL     1      -0.480  -6.616   0.532  0.00  0.00    +0.033 A 
ATOM     25  C   UNL     1      -1.563  -7.439   0.256  0.00  0.00    +0.024 A 
ATOM     26  C   UNL     1      -1.405  -8.811   0.259  0.00  0.00    +0.017 A 
ATOM     27  C   UNL     1      -0.171  -9.366   0.546  0.00  0.00    +0.018 A 
ATOM     28  C   UNL     1       0.910  -8.548   0.827  0.00  0.00    +0.017 A 
ATOM     29  C   UNL     1       0.758  -7.175   0.821  0.00  0.00    +0.024 A 
ATOM     30 BR   UNL     1       0.041 -11.245   0.556  0.00  0.00    -0.050 Br
ENDBRANCH  22  24
ENDBRANCH  19  20
ENDBRANCH  17  19
ENDBRANCH   1  17
TORSDOF 5
