REMARK  Name = ZINC39663173
REMARK  8 active torsions:
REMARK  status: ('A' for Active; 'I' for Inactive)
REMARK    1  A    between atoms: C_1  and  C_2
REMARK    2  A    between atoms: C_2  and  C_3
REMARK    3  A    between atoms: C_3  and  C_4
REMARK    4  A    between atoms: C_4  and  C_5
REMARK    5  A    between atoms: C_5  and  C_6
REMARK    6  A    between atoms: C_6  and  C_7
REMARK    7  A    between atoms: C_11  and  C_20
REMARK    8  A    between atoms: N_22  and  C_23
REMARK                            x       y       z     vdW  Elec       q    Type
REMARK                         _______ _______ _______ _____ _____    ______ ____
ROOT
ATOM      1  C   UNL     1       2.292  -4.591   3.806  0.00  0.00    +0.216 C 
ATOM      2  O   UNL     1       2.794  -3.820   4.596  0.00  0.00    -0.276 OA
ATOM      3  N   UNL     1       2.444  -5.920   3.973  0.00  0.00    -0.300 N 
ATOM      4  C   UNL     1       1.916  -7.009   3.118  0.00  0.00    +0.121 C 
ATOM      5  C   UNL     1       3.053  -8.055   3.071  0.00  0.00    +0.100 C 
ATOM      6  C   UNL     1       3.877  -7.796   4.344  0.00  0.00    -0.004 C 
ATOM      7  C   UNL     1       3.184  -6.622   5.050  0.00  0.00    +0.115 C 
ATOM      8  C   UNL     1       5.308  -7.414   3.979  0.00  0.00    -0.010 C 
ATOM      9  C   UNL     1       6.122  -7.218   5.262  0.00  0.00    -0.082 C 
ATOM     10  N   UNL     1       6.110  -8.460   6.045  0.00  0.00    +0.379 N 
ATOM     11  C   UNL     1       4.740  -8.770   6.471  0.00  0.00    -0.082 C 
ATOM     12  C   UNL     1       3.867  -9.031   5.240  0.00  0.00    -0.010 C 
ATOM     13  H   UNL     1       6.464  -9.216   5.480  0.00  0.00    -0.086 HD
ATOM     14  H   UNL     1       6.696  -8.348   6.859  0.00  0.00    -0.086 HD
ENDROOT
BRANCH   5  15
ATOM     15  C   UNL     1       2.484  -9.450   3.086  0.00  0.00    +0.218 C 
ATOM     16  O   UNL     1       1.448  -9.676   3.673  0.00  0.00    -0.275 OA
ATOM     17  N   UNL     1       3.127 -10.446   2.445  0.00  0.00    -0.314 N 
ATOM     18  H   UNL     1       3.956 -10.265   1.975  0.00  0.00    +0.149 HD
BRANCH  17  19
ATOM     19  C   UNL     1       2.574 -11.803   2.459  0.00  0.00    +0.059 C 
ATOM     20  C   UNL     1       3.031 -12.530   3.726  0.00  0.00    -0.056 C 
ATOM     21  N   UNL     1       3.800 -13.724   3.369  0.00  0.00    +0.381 N 
ATOM     22  C   UNL     1       2.974 -14.659   2.600  0.00  0.00    -0.078 C 
ATOM     23  C   UNL     1       2.516 -14.002   1.296  0.00  0.00    -0.014 C 
ATOM     24  C   UNL     1       3.077 -12.576   1.233  0.00  0.00    +0.004 C 
ATOM     25  C   UNL     1       4.608 -12.658   1.307  0.00  0.00    -0.014 C 
ATOM     26  C   UNL     1       5.002 -13.358   2.616  0.00  0.00    -0.078 C 
ATOM     27  H   UNL     1       4.085 -14.187   4.220  0.00  0.00    -0.082 HD
ENDBRANCH  17  19
ENDBRANCH   5  15
BRANCH   1  28
ATOM     28  C   UNL     1       1.497  -4.065   2.639  0.00  0.00    +0.096 C 
BRANCH  28  29
ATOM     29  C   UNL     1       1.479  -2.536   2.683  0.00  0.00    +0.009 C 
BRANCH  29  30
ATOM     30  C   UNL     1       0.672  -2.001   1.498  0.00  0.00    +0.000 C 
BRANCH  30  31
ATOM     31  C   UNL     1       0.654  -0.472   1.542  0.00  0.00    -0.000 C 
BRANCH  31  33
ATOM     32  C   UNL     1      -0.171   1.592   0.401  0.00  0.00    +0.004 C 
ATOM     33  C   UNL     1      -0.153   0.063   0.356  0.00  0.00    -0.003 C 
ENDBRANCH  31  33
ENDBRANCH  30  31
ENDBRANCH  29  30
ENDBRANCH  28  29
ENDBRANCH   1  28
TORSDOF 7
