REMARK  Name = ZINC39756132
REMARK  13 active torsions:
REMARK  status: ('A' for Active; 'I' for Inactive)
REMARK    1  A    between atoms: C_1  and  C_2
REMARK    2  A    between atoms: C_2  and  C_4
REMARK    3  A    between atoms: C_2  and  N_25
REMARK    4  A    between atoms: C_7  and  S_13
REMARK    5  A    between atoms: N_8  and  C_9
REMARK    6  A    between atoms: C_9  and  C_10
REMARK    7  A    between atoms: C_10  and  C_11
REMARK    8  A    between atoms: C_10  and  C_12
REMARK    9  A    between atoms: S_13  and  C_14
REMARK   10  A    between atoms: C_14  and  C_16
REMARK   11  A    between atoms: C_14  and  C_17
REMARK   12  A    between atoms: C_17  and  N_19
REMARK   13  A    between atoms: C_26  and  C_28
REMARK                            x       y       z     vdW  Elec       q    Type
REMARK                         _______ _______ _______ _____ _____    ______ ____
ROOT
ATOM      1  C   UNL     1       0.690  -0.594  -1.430  0.00  0.00    +0.154 A 
ATOM      2  N   UNL     1       1.933  -0.690  -1.809  0.00  0.00    -0.132 NA
ATOM      3  N   UNL     1       1.994  -1.112  -3.021  0.00  0.00    -0.122 NA
ATOM      4  C   UNL     1       0.782  -1.310  -3.486  0.00  0.00    +0.192 A 
ATOM      5  N   UNL     1      -0.088  -0.990  -2.483  0.00  0.00    -0.304 N 
ENDROOT
BRANCH   1   7
ATOM      6  C   UNL     1       0.238   1.391  -0.015  0.00  0.00    +0.036 C 
ATOM      7  C   UNL     1       0.201  -0.137  -0.080  0.00  0.00    +0.138 C 
BRANCH   7   8
ATOM      8  N   UNL     1       1.064  -0.691   0.966  0.00  0.00    -0.302 N 
ATOM      9  C   UNL     1       0.586  -0.862   2.214  0.00  0.00    +0.245 C 
ATOM     10  O   UNL     1      -0.562  -0.556   2.472  0.00  0.00    -0.270 OA
ATOM     11  H   UNL     1       1.980  -0.935   0.760  0.00  0.00    +0.150 HD
BRANCH   9  12
ATOM     12  C   UNL     1       1.456  -1.421   3.269  0.00  0.00    +0.037 A 
ATOM     13  C   UNL     1       2.777  -1.768   2.977  0.00  0.00    +0.014 A 
ATOM     14  C   UNL     1       3.585  -2.289   3.966  0.00  0.00    +0.021 A 
ATOM     15  C   UNL     1       3.088  -2.469   5.246  0.00  0.00    +0.041 A 
ATOM     16  C   UNL     1       1.779  -2.127   5.542  0.00  0.00    +0.021 A 
ATOM     17  C   UNL     1       0.964  -1.599   4.563  0.00  0.00    +0.014 A 
ATOM     18 CL   UNL     1       4.111  -3.127   6.485  0.00  0.00    -0.084 Cl
ENDBRANCH   9  12
ENDBRANCH   7   8
ENDBRANCH   1   7
BRANCH   5  19
ATOM     19  C   UNL     1      -1.551  -1.054  -2.526  0.00  0.00    +0.128 C 
BRANCH  19  20
ATOM     20  C   UNL     1      -2.020  -2.384  -1.932  0.00  0.00    +0.003 C 
ATOM     21  C   UNL     1      -3.548  -2.394  -1.851  0.00  0.00    +0.009 C 
ATOM     22  C   UNL     1      -1.549  -3.535  -2.823  0.00  0.00    +0.009 C 
ENDBRANCH  19  20
ENDBRANCH   5  19
BRANCH   4  23
ATOM     23  S   UNL     1       0.358  -1.885  -5.096  0.00  0.00    -0.073 S 
BRANCH  23  24
ATOM     24  C   UNL     1       1.960  -2.125  -5.912  0.00  0.00    +0.139 C 
ATOM     25  C   UNL     1       2.661  -0.773  -6.067  0.00  0.00    +0.029 C 
BRANCH  24  26
ATOM     26  C   UNL     1       1.745  -2.737  -7.272  0.00  0.00    +0.251 C 
ATOM     27  O   UNL     1       0.685  -2.582  -7.848  0.00  0.00    -0.272 OA
BRANCH  26  28
ATOM     28  N   UNL     1       2.714  -3.449  -7.842  0.00  0.00    -0.158 NA
ATOM     29  C   UNL     1       2.524  -3.989  -9.041  0.00  0.00    +0.146 C 
ATOM     30  N   UNL     1       3.417  -4.736  -9.729  0.00  0.00    -0.325 N 
ATOM     31  C   UNL     1       3.069  -5.262 -11.033  0.00  0.00    +0.114 C 
ATOM     32  C   UNL     1       1.637  -4.849 -11.437  0.00  0.00    +0.095 C 
ATOM     33  S   UNL     1       1.132  -3.873  -9.967  0.00  0.00    -0.092 S 
ATOM     34  H   UNL     1       4.290  -4.919  -9.350  0.00  0.00    +0.148 HD
ENDBRANCH  26  28
ENDBRANCH  24  26
ENDBRANCH  23  24
ENDBRANCH   4  23
TORSDOF 9
