REMARK  Name = ZINC12644020
REMARK  7 active torsions:
REMARK  status: ('A' for Active; 'I' for Inactive)
REMARK    1  A    between atoms: C_1  and  C_2
REMARK    2  A    between atoms: C_4  and  N_36
REMARK    3  A    between atoms: C_7  and  N_8
REMARK    4  A    between atoms: C_9  and  C_11
REMARK    5  A    between atoms: C_11  and  N_12
REMARK    6  A    between atoms: C_20  and  N_22
REMARK    7  A    between atoms: N_25  and  C_26
REMARK                            x       y       z     vdW  Elec       q    Type
REMARK                         _______ _______ _______ _____ _____    ______ ____
ROOT
ATOM      1  N   UNL     1      -0.377  -1.057   5.867  0.00  0.00    +0.389 N 
ATOM      2  C   UNL     1      -1.668  -1.788   5.970  0.00  0.00    -0.066 C 
ATOM      3  C   UNL     1      -2.657  -0.737   6.526  0.00  0.00    -0.017 C 
ATOM      4  C   UNL     1      -1.773   0.274   7.286  0.00  0.00    -0.017 C 
ATOM      5  C   UNL     1      -0.331  -0.259   7.120  0.00  0.00    -0.066 C 
ATOM      6  C   UNL     1      -0.056  -1.237   8.274  0.00  0.00    +0.007 C 
ATOM      7  C   UNL     1      -1.234  -2.207   8.392  0.00  0.00    +0.071 C 
ATOM      8  C   UNL     1      -1.486  -2.888   7.028  0.00  0.00    +0.007 C 
ATOM      9  H   UNL     1       0.397  -1.703   5.828  0.00  0.00    -0.080 HD
ENDROOT
BRANCH   7  10
ATOM     10  N   UNL     1      -2.432  -1.471   8.806  0.00  0.00    -0.297 N 
ATOM     11  C   UNL     1      -3.056  -1.791   9.957  0.00  0.00    +0.300 C 
ATOM     12  O   UNL     1      -2.625  -2.691  10.652  0.00  0.00    -0.253 OA
ATOM     13  N   UNL     1      -4.157  -1.114  10.337  0.00  0.00    -0.294 N 
ATOM     14  H   UNL     1      -2.775  -0.753   8.251  0.00  0.00    +0.151 HD
ATOM     15  H   UNL     1      -4.501  -0.396   9.783  0.00  0.00    +0.151 HD
BRANCH  13  16
ATOM     16  C   UNL     1      -4.835  -1.462  11.588  0.00  0.00    +0.037 C 
ATOM     17  C   UNL     1      -3.868  -1.283  12.760  0.00  0.00    +0.029 C 
ATOM     18  C   UNL     1      -4.576  -1.646  14.066  0.00  0.00    -0.008 C 
ATOM     19  C   UNL     1      -5.788  -0.733  14.261  0.00  0.00    +0.007 C 
ATOM     20  C   UNL     1      -6.755  -0.912  13.089  0.00  0.00    -0.008 C 
ATOM     21  C   UNL     1      -6.047  -0.548  11.783  0.00  0.00    +0.029 C 
ATOM     22  C   UNL     1      -7.220  -2.369  13.029  0.00  0.00    +0.007 C 
ATOM     23  C   UNL     1      -6.008  -3.282  12.835  0.00  0.00    -0.008 C 
ATOM     24  C   UNL     1      -5.040  -3.103  14.007  0.00  0.00    +0.007 C 
ATOM     25  C   UNL     1      -5.299  -2.919  11.528  0.00  0.00    +0.029 C 
ENDBRANCH  13  16
ENDBRANCH   7  10
BRANCH   1  26
ATOM     26  C   UNL     1      -0.375  -0.175   4.692  0.00  0.00    +0.020 C 
BRANCH  26  28
ATOM     27  N   UNL     1      -0.283  -0.410   2.231  0.00  0.00    -0.287 N 
ATOM     28  C   UNL     1      -0.298  -1.009   3.438  0.00  0.00    +0.201 C 
ATOM     29  O   UNL     1      -0.251  -2.218   3.516  0.00  0.00    -0.278 OA
ATOM     30  H   UNL     1      -0.256   0.557   2.170  0.00  0.00    +0.155 HD
BRANCH  27  37
ATOM     31  C   UNL     1      -1.688   0.600  -0.028  0.00  0.00    +0.046 C 
ATOM     32  C   UNL     1      -0.980  -0.730  -0.059  0.00  0.00    -0.027 A 
ATOM     33  C   UNL     1      -0.996  -1.494  -1.210  0.00  0.00    +0.038 A 
ATOM     34  C   UNL     1      -0.346  -2.714  -1.240  0.00  0.00    +0.127 A 
ATOM     35  C   UNL     1       0.321  -3.173  -0.119  0.00  0.00    +0.034 A 
ATOM     36  C   UNL     1       0.342  -2.414   1.034  0.00  0.00    +0.026 A 
ATOM     37  C   UNL     1      -0.306  -1.185   1.066  0.00  0.00    +0.036 A 
BRANCH  34  38
ATOM     38  N   UNL     1      -0.366  -3.531  -2.474  0.00  0.00    +0.056 N 
ATOM     39  O   UNL     1      -0.949  -3.131  -3.454  0.00  0.00    -0.126 OA
ATOM     40  O   UNL     1       0.202  -4.598  -2.501  0.00  0.00    -0.126 OA
ENDBRANCH  34  38
ENDBRANCH  27  37
ENDBRANCH  26  28
ENDBRANCH   1  26
TORSDOF 6
