REMARK  Name = ZINC39540255
REMARK  11 active torsions:
REMARK  status: ('A' for Active; 'I' for Inactive)
REMARK    1  A    between atoms: C_1  and  C_2
REMARK    2  A    between atoms: C_2  and  C_3
REMARK    3  A    between atoms: C_2  and  S_4
REMARK    4  A    between atoms: S_4  and  C_7
REMARK    5  A    between atoms: C_10  and  C_13
REMARK    6  A    between atoms: C_13  and  C_15
REMARK    7  A    between atoms: C_13  and  N_18
REMARK    8  A    between atoms: C_15  and  N_16
REMARK    9  A    between atoms: C_22  and  S_25
REMARK   10  A    between atoms: S_25  and  O_28
REMARK   11  A    between atoms: O_28  and  C_29
REMARK                            x       y       z     vdW  Elec       q    Type
REMARK                         _______ _______ _______ _____ _____    ______ ____
ROOT
ATOM      1  N   UNL     1      -3.431   1.316  -6.211  0.00  0.00    -0.296 NA
ATOM      2  C   UNL     1      -2.024   1.690  -6.010  0.00  0.00    +0.066 C 
ATOM      3  C   UNL     1      -1.223   1.347  -7.268  0.00  0.00    -0.064 C 
ATOM      4  N   UNL     1      -1.781   2.074  -8.417  0.00  0.00    +0.398 N 
ATOM      5  C   UNL     1      -3.179   1.671  -8.620  0.00  0.00    +0.130 C 
ATOM      6  C   UNL     1      -3.996   2.017  -7.373  0.00  0.00    +0.095 C 
ATOM      7  H   UNL     1      -1.740   3.066  -8.239  0.00  0.00    -0.083 HD
ATOM      8  H   UNL     1      -1.246   1.857  -9.244  0.00  0.00    -0.083 HD
ENDROOT
BRANCH   5   9
ATOM      9  S   UNL     1      -3.860   2.553 -10.051  0.00  0.00    +0.109 S 
ATOM     10  O   UNL     1      -5.149   2.047 -10.371  0.00  0.00    -0.138 OA
ATOM     11  O   UNL     1      -3.645   3.951  -9.913  0.00  0.00    -0.138 OA
BRANCH   9  12
ATOM     12  O   UNL     1      -2.979   2.139 -11.221  0.00  0.00    -0.347 OA
BRANCH  12  13
ATOM     13  C   UNL     1      -3.216   0.879 -11.672  0.00  0.00    +0.156 A 
ATOM     14  C   UNL     1      -2.522  -0.194 -11.130  0.00  0.00    +0.048 A 
ATOM     15  C   UNL     1      -2.764  -1.474 -11.590  0.00  0.00    +0.004 A 
ATOM     16  C   UNL     1      -3.697  -1.687 -12.588  0.00  0.00    +0.000 A 
ATOM     17  C   UNL     1      -4.389  -0.619 -13.130  0.00  0.00    +0.004 A 
ATOM     18  C   UNL     1      -4.155   0.662 -12.670  0.00  0.00    +0.048 A 
ENDBRANCH  12  13
ENDBRANCH   9  12
ENDBRANCH   5   9
BRANCH   1  19
ATOM     19  C   UNL     1      -4.223   1.577  -5.002  0.00  0.00    +0.102 C 
BRANCH  19  23
ATOM     20  C   UNL     1      -2.645  -0.694  -1.746  0.00  0.00    +0.088 A 
ATOM     21  C   UNL     1      -3.076   0.603  -1.539  0.00  0.00    +0.027 A 
ATOM     22  C   UNL     1      -3.587   1.338  -2.593  0.00  0.00    +0.007 A 
ATOM     23  C   UNL     1      -3.666   0.776  -3.853  0.00  0.00    -0.029 A 
ATOM     24  C   UNL     1      -3.234  -0.521  -4.060  0.00  0.00    +0.007 A 
ATOM     25  C   UNL     1      -2.719  -1.254  -3.008  0.00  0.00    +0.027 A 
BRANCH  20  26
ATOM     26  S   UNL     1      -1.995  -1.631  -0.403  0.00  0.00    -0.001 S 
ATOM     27  O   UNL     1      -2.227  -2.987  -0.761  0.00  0.00    -0.169 OA
ATOM     28  O   UNL     1      -2.600  -1.074   0.755  0.00  0.00    -0.169 OA
BRANCH  26  30
ATOM     29  C   UNL     1       0.009   0.221  -0.212  0.00  0.00    +0.032 C 
ATOM     30  C   UNL     1      -0.215  -1.280  -0.408  0.00  0.00    +0.130 C 
ATOM     31  C   UNL     1       0.460  -2.049   0.729  0.00  0.00    +0.032 C 
ENDBRANCH  26  30
ENDBRANCH  20  26
ENDBRANCH  19  23
BRANCH  19  32
ATOM     32  C   UNL     1      -5.678   1.172  -5.248  0.00  0.00    +0.122 C 
BRANCH  32  33
ATOM     33  N   UNL     1      -6.486   1.510  -4.069  0.00  0.00    -0.231 NA
ATOM     34 CL   UNL     1      -8.089   0.941  -4.241  0.00  0.00    -0.024 Cl
ATOM     35  H   UNL     1      -6.472   2.504  -3.893  0.00  0.00    +0.141 HD
ENDBRANCH  32  33
ENDBRANCH  19  32
ENDBRANCH   1  19
TORSDOF 9
