REMARK  Name = ZINC20528181
REMARK  7 active torsions:
REMARK  status: ('A' for Active; 'I' for Inactive)
REMARK    1  A    between atoms: C_4  and  N_7
REMARK    2  A    between atoms: C_8  and  C_10
REMARK    3  A    between atoms: C_10  and  S_11
REMARK    4  A    between atoms: S_11  and  C_12
REMARK    5  A    between atoms: N_16  and  N_17
REMARK    6  A    between atoms: N_18  and  N_19
REMARK    7  A    between atoms: C_20  and  C_21
REMARK                            x       y       z     vdW  Elec       q    Type
REMARK                         _______ _______ _______ _____ _____    ______ ____
ROOT
ATOM      1  C   UNL     1      -4.468   9.339   0.106  0.00  0.00    +0.210 A 
ATOM      2  N   UNL     1      -3.157   9.352   0.102  0.00  0.00    -0.119 NA
ATOM      3  N   UNL     1      -2.711   8.024   0.104  0.00  0.00    -0.109 NA
ATOM      4  C   UNL     1      -3.764   7.243   0.099  0.00  0.00    +0.254 A 
ATOM      5  N   UNL     1      -4.878   8.036   0.104  0.00  0.00    -0.211 N 
ATOM      6  N   UNL     1      -3.750   5.856   0.095  0.00  0.00    -0.204 N 
ATOM      7  H   UNL     1      -4.697   5.296   0.096  0.00  0.00    +0.177 HD
ENDROOT
BRANCH   5   8
ATOM      8  N   UNL     1      -6.173   7.601   0.106  0.00  0.00    -0.294 N 
ATOM      9  H   UNL     1      -6.391   6.523   0.104  0.00  0.00    +0.163 HD
ATOM     10  H   UNL     1      -6.997   8.329   0.110  0.00  0.00    +0.163 HD
ENDBRANCH   5   8
BRANCH   6  11
ATOM     11  N   UNL     1      -2.530   5.167   0.090  0.00  0.00    -0.187 NA
ATOM     12  C   UNL     1      -2.517   3.869   0.086  0.00  0.00    +0.139 C 
BRANCH  12  13
ATOM     13  C   UNL     1      -1.233   3.144   0.081  0.00  0.00    +0.013 A 
ATOM     14  C   UNL     1      -1.215   1.747   0.071  0.00  0.00    +0.011 A 
ATOM     15  C   UNL     1      -0.011   1.076   0.072  0.00  0.00    +0.001 A 
ATOM     16  C   UNL     1       1.179   1.782   0.071  0.00  0.00    +0.001 A 
ATOM     17  C   UNL     1       1.171   3.166   0.075  0.00  0.00    +0.020 A 
ATOM     18  C   UNL     1      -0.027   3.852   0.080  0.00  0.00    +0.050 A 
ATOM     19 CL   UNL     1      -0.036   5.588   0.084  0.00  0.00    -0.083 Cl
ENDBRANCH  12  13
ENDBRANCH   6  11
BRANCH   1  20
ATOM     20  S   UNL     1      -5.518  10.754   0.113  0.00  0.00    -0.075 S 
BRANCH  20  21
ATOM     21  C   UNL     1      -4.366  12.155   0.113  0.00  0.00    +0.173 C 
BRANCH  21  23
ATOM     22  N   UNL     1      -4.493  14.626   0.120  0.00  0.00    -0.285 N 
ATOM     23  C   UNL     1      -5.144  13.446   0.118  0.00  0.00    +0.227 C 
ATOM     24  O   UNL     1      -6.357  13.422   0.122  0.00  0.00    -0.275 OA
ATOM     25  H   UNL     1      -3.396  14.648   0.194  0.00  0.00    +0.155 HD
BRANCH  22  29
ATOM     26  C   UNL     1      -6.636  18.188  -0.156  0.00  0.00    +0.000 A 
ATOM     27  C   UNL     1      -7.166  17.116   0.538  0.00  0.00    +0.002 A 
ATOM     28  C   UNL     1      -6.458  15.934   0.631  0.00  0.00    +0.023 A 
ATOM     29  C   UNL     1      -5.213  15.822   0.027  0.00  0.00    +0.033 A 
ATOM     30  C   UNL     1      -4.680  16.903  -0.664  0.00  0.00    +0.023 A 
ATOM     31  C   UNL     1      -5.396  18.081  -0.758  0.00  0.00    +0.002 A 
ENDBRANCH  22  29
ENDBRANCH  21  23
ENDBRANCH  20  21
ENDBRANCH   1  20
TORSDOF 7
