REMARK  Name = ZINC05754251
REMARK  11 active torsions:
REMARK  status: ('A' for Active; 'I' for Inactive)
REMARK    1  A    between atoms: C_1  and  O_2
REMARK    2  A    between atoms: O_2  and  C_3
REMARK    3  A    between atoms: C_5  and  C_13
REMARK    4  A    between atoms: C_7  and  O_11
REMARK    5  A    between atoms: C_8  and  O_9
REMARK    6  A    between atoms: O_9  and  C_10
REMARK    7  A    between atoms: O_11  and  C_12
REMARK    8  A    between atoms: N_14  and  N_15
REMARK    9  A    between atoms: N_15  and  C_16
REMARK   10  A    between atoms: C_19  and  S_22
REMARK   11  A    between atoms: S_22  and  N_25
REMARK                            x       y       z     vdW  Elec       q    Type
REMARK                         _______ _______ _______ _____ _____    ______ ____
ROOT
ATOM      1  C   UNL     1       2.395   0.354  -4.217  0.00  0.00    +0.138 C 
ATOM      2  N   UNL     1       2.971  -0.224  -5.226  0.00  0.00    -0.190 NA
ENDROOT
BRANCH   1   5
ATOM      3  C   UNL     1       0.606  -0.608  -1.056  0.00  0.00    +0.166 A 
ATOM      4  C   UNL     1       1.171   0.160  -2.059  0.00  0.00    +0.059 A 
ATOM      5  C   UNL     1       1.792  -0.461  -3.146  0.00  0.00    +0.002 A 
ATOM      6  C   UNL     1       1.840  -1.855  -3.216  0.00  0.00    +0.059 A 
ATOM      7  C   UNL     1       1.273  -2.617  -2.210  0.00  0.00    +0.166 A 
ATOM      8  C   UNL     1       0.660  -1.996  -1.127  0.00  0.00    +0.204 A 
BRANCH   3  10
ATOM      9  C   UNL     1      -0.017   1.425   0.010  0.00  0.00    +0.277 C 
ATOM     10  O   UNL     1       0.002  -0.004   0.002  0.00  0.00    -0.491 OA
ENDBRANCH   3  10
BRANCH   8  11
ATOM     11  O   UNL     1       0.108  -2.748  -0.136  0.00  0.00    -0.488 OA
ATOM     12  C   UNL     1      -1.263  -3.118  -0.291  0.00  0.00    +0.277 C 
ENDBRANCH   8  11
BRANCH   7  13
ATOM     13  O   UNL     1       1.320  -3.975  -2.278  0.00  0.00    -0.491 OA
ATOM     14  C   UNL     1       1.969  -4.545  -3.416  0.00  0.00    +0.277 C 
ENDBRANCH   7  13
ENDBRANCH   1   5
BRANCH   2  15
ATOM     15  N   UNL     1       3.544   0.550  -6.244  0.00  0.00    -0.238 N 
ATOM     16  H   UNL     1       3.510   1.518  -6.194  0.00  0.00    +0.174 HD
BRANCH  15  17
ATOM     17  C   UNL     1       4.164  -0.071  -7.328  0.00  0.00    +0.048 A 
ATOM     18  C   UNL     1       4.209  -1.458  -7.404  0.00  0.00    +0.026 A 
ATOM     19  C   UNL     1       4.823  -2.070  -8.479  0.00  0.00    +0.030 A 
ATOM     20  C   UNL     1       5.393  -1.304  -9.479  0.00  0.00    +0.105 A 
ATOM     21  C   UNL     1       5.350   0.077  -9.407  0.00  0.00    +0.030 A 
ATOM     22  C   UNL     1       4.733   0.695  -8.339  0.00  0.00    +0.026 A 
BRANCH  20  23
ATOM     23  S   UNL     1       6.177  -2.088 -10.848  0.00  0.00    +0.056 S 
ATOM     24  O   UNL     1       7.109  -1.153 -11.373  0.00  0.00    -0.153 OA
ATOM     25  O   UNL     1       6.562  -3.383 -10.409  0.00  0.00    -0.153 OA
BRANCH  23  26
ATOM     26  N   UNL     1       5.021  -2.309 -12.014  0.00  0.00    -0.204 NA
ATOM     27  H   UNL     1       4.110  -2.016 -11.855  0.00  0.00    +0.144 HD
ATOM     28  H   UNL     1       5.255  -2.730 -12.855  0.00  0.00    +0.144 HD
ENDBRANCH  23  26
ENDBRANCH  20  23
ENDBRANCH  15  17
ENDBRANCH   2  15
TORSDOF 8
