REMARK  Name = ZINC36570947
REMARK  19 active torsions:
REMARK  status: ('A' for Active; 'I' for Inactive)
REMARK    1  A    between atoms: C_1  and  C_2
REMARK    2  A    between atoms: C_2  and  C_3
REMARK    3  A    between atoms: C_3  and  N_4
REMARK    4  A    between atoms: N_4  and  C_5
REMARK    5  A    between atoms: C_5  and  C_7
REMARK    6  A    between atoms: C_5  and  C_15
REMARK    7  A    between atoms: C_10  and  C_14
REMARK    8  A    between atoms: C_12  and  C_13
REMARK    9  A    between atoms: N_17  and  C_18
REMARK   10  A    between atoms: C_18  and  C_19
REMARK   11  A    between atoms: C_18  and  C_20
REMARK   12  A    between atoms: C_18  and  C_21
REMARK   13  A    between atoms: C_21  and  C_22
REMARK   14  A    between atoms: C_22  and  C_23
REMARK   15  A    between atoms: C_22  and  C_24
REMARK   16  A    between atoms: C_22  and  C_25
REMARK   17  A    between atoms: C_26  and  C_28
REMARK   18  A    between atoms: C_29  and  O_35
REMARK   19  A    between atoms: C_33  and  O_34
REMARK                            x       y       z     vdW  Elec       q    Type
REMARK                         _______ _______ _______ _____ _____    ______ ____
ROOT
ATOM      1  C   UNL     1       0.468  -5.104   1.666  0.00  0.00    +0.193 C 
ENDROOT
BRANCH   1   2
ATOM      2  C   UNL     1      -0.787  -4.520   2.264  0.00  0.00    -0.015 A 
ATOM      3  C   UNL     1      -0.725  -3.345   2.990  0.00  0.00    +0.006 A 
ATOM      4  C   UNL     1      -1.875  -2.810   3.538  0.00  0.00    +0.004 A 
ATOM      5  C   UNL     1      -3.088  -3.450   3.360  0.00  0.00    -0.050 A 
ATOM      6  C   UNL     1      -3.150  -4.624   2.633  0.00  0.00    +0.007 A 
ATOM      7  C   UNL     1      -2.000  -5.157   2.081  0.00  0.00    -0.045 A 
ATOM      8  C   UNL     1      -2.068  -6.434   1.284  0.00  0.00    +0.044 C 
ATOM      9  C   UNL     1      -4.343  -2.867   3.958  0.00  0.00    +0.044 C 
ENDBRANCH   1   2
BRANCH   1  10
ATOM     10  C   UNL     1       1.672  -4.520   2.359  0.00  0.00    +0.239 C 
ATOM     11  O   UNL     1       2.352  -3.689   1.795  0.00  0.00    -0.273 OA
ATOM     12  N   UNL     1       1.994  -4.922   3.604  0.00  0.00    -0.308 N 
ATOM     13  H   UNL     1       1.499  -5.643   4.024  0.00  0.00    +0.149 HD
BRANCH  12  14
ATOM     14  C   UNL     1       3.091  -4.271   4.324  0.00  0.00    +0.030 C 
ATOM     15  C   UNL     1       4.425  -4.663   3.685  0.00  0.00    +0.031 C 
ATOM     16  C   UNL     1       2.918  -2.752   4.250  0.00  0.00    +0.031 C 
BRANCH  14  17
ATOM     17  C   UNL     1       3.076  -4.715   5.788  0.00  0.00    +0.031 C 
BRANCH  17  18
ATOM     18  C   UNL     1       1.807  -4.194   6.466  0.00  0.00    -0.036 C 
ATOM     19  C   UNL     1       0.635  -4.275   5.486  0.00  0.00    +0.010 C 
ATOM     20  C   UNL     1       1.501  -5.047   7.699  0.00  0.00    +0.010 C 
ATOM     21  C   UNL     1       2.017  -2.740   6.892  0.00  0.00    +0.010 C 
ENDBRANCH  17  18
ENDBRANCH  14  17
ENDBRANCH  12  14
ENDBRANCH   1  10
BRANCH   1  22
ATOM     22  N   UNL     1       0.523  -4.783   0.238  0.00  0.00    -0.282 N 
ATOM     23  C   UNL     1       1.517  -5.278  -0.526  0.00  0.00    +0.255 C 
ATOM     24  O   UNL     1       2.368  -5.991  -0.029  0.00  0.00    -0.270 OA
BRANCH  23  25
ATOM     25  C   UNL     1       1.572  -4.956  -1.962  0.00  0.00    +0.119 A 
ATOM     26  C   UNL     1       2.278  -3.829  -2.406  0.00  0.00    +0.133 A 
ATOM     27  C   UNL     1       2.324  -3.535  -3.759  0.00  0.00    +0.046 A 
ATOM     28  C   UNL     1       1.677  -4.349  -4.670  0.00  0.00    +0.007 A 
ATOM     29  C   UNL     1       0.978  -5.463  -4.243  0.00  0.00    +0.046 A 
ATOM     30  C   UNL     1       0.924  -5.778  -2.895  0.00  0.00    +0.133 A 
BRANCH  30  31
ATOM     31  O   UNL     1       0.242  -6.875  -2.479  0.00  0.00    -0.506 OA
ATOM     32  H   UNL     1      -0.688  -6.707  -2.278  0.00  0.00    +0.292 HD
ENDBRANCH  30  31
BRANCH  26  33
ATOM     33  O   UNL     1       2.913  -3.028  -1.514  0.00  0.00    -0.506 OA
ATOM     34  H   UNL     1       3.828  -3.286  -1.336  0.00  0.00    +0.292 HD
ENDBRANCH  26  33
ENDBRANCH  23  25
BRANCH  22  35
ATOM     35  C   UNL     1      -0.503  -3.925  -0.360  0.00  0.00    +0.109 C 
BRANCH  35  37
ATOM     36  C   UNL     1      -1.055  -1.585  -1.040  0.00  0.00    +0.005 C 
ATOM     37  C   UNL     1      -0.040  -2.467  -0.310  0.00  0.00    +0.016 C 
ENDBRANCH  35  37
ENDBRANCH  22  35
ENDBRANCH   1  22
TORSDOF 11
