REMARK  Name = ZINC58088253
REMARK  8 active torsions:
REMARK  status: ('A' for Active; 'I' for Inactive)
REMARK    1  A    between atoms: C_1  and  C_2
REMARK    2  A    between atoms: C_2  and  C_3
REMARK    3  A    between atoms: C_7  and  C_15
REMARK    4  A    between atoms: N_11  and  C_14
REMARK    5  A    between atoms: C_15  and  C_17
REMARK    6  A    between atoms: C_15  and  N_25
REMARK    7  A    between atoms: C_20  and  O_23
REMARK    8  A    between atoms: O_23  and  C_24
REMARK                            x       y       z     vdW  Elec       q    Type
REMARK                         _______ _______ _______ _____ _____    ______ ____
ROOT
ATOM      1  C   UNL     1       0.718  -0.497  -1.257  0.00  0.00    +0.107 C 
ATOM      2  C   UNL     1       0.819  -2.006  -1.252  0.00  0.00    -0.014 A 
ATOM      3  C   UNL     1       1.429  -2.900  -0.402  0.00  0.00    +0.008 A 
ATOM      4  C   UNL     1       1.351  -4.258  -0.658  0.00  0.00    -0.057 A 
ATOM      5  C   UNL     1       0.660  -4.711  -1.767  0.00  0.00    +0.004 A 
ATOM      6  C   UNL     1       0.048  -3.816  -2.620  0.00  0.00    +0.024 A 
ATOM      7  C   UNL     1       0.122  -2.447  -2.369  0.00  0.00    +0.040 A 
ATOM      8  N   UNL     1      -0.404  -1.362  -3.070  0.00  0.00    -0.274 N 
ATOM      9  C   UNL     1      -0.101  -0.184  -2.490  0.00  0.00    +0.227 C 
ATOM     10  O   UNL     1      -0.425   0.918  -2.880  0.00  0.00    -0.275 OA
ATOM     11  C   UNL     1      -1.193  -1.488  -4.298  0.00  0.00    +0.138 C 
ENDROOT
BRANCH   1  13
ATOM     12  C   UNL     1      -0.019   1.526   0.010  0.00  0.00    +0.005 C 
ATOM     13  C   UNL     1       0.002  -0.004   0.002  0.00  0.00    +0.014 C 
ENDBRANCH   1  13
BRANCH   4  14
ATOM     14  C   UNL     1       2.018  -5.241   0.270  0.00  0.00    -0.013 C 
BRANCH  14  15
ATOM     15  C   UNL     1       0.990  -5.831   1.200  0.00  0.00    -0.057 A 
ATOM     16  C   UNL     1       0.172  -6.858   0.763  0.00  0.00    +0.006 A 
ATOM     17  C   UNL     1      -0.771  -7.400   1.614  0.00  0.00    +0.046 A 
ATOM     18  C   UNL     1      -0.899  -6.915   2.907  0.00  0.00    +0.120 A 
ATOM     19  C   UNL     1      -0.077  -5.885   3.343  0.00  0.00    +0.046 A 
ATOM     20  C   UNL     1       0.869  -5.349   2.490  0.00  0.00    +0.006 A 
BRANCH  18  21
ATOM     21  O   UNL     1      -1.827  -7.446   3.745  0.00  0.00    -0.495 OA
ATOM     22  C   UNL     1      -1.902  -6.897   5.062  0.00  0.00    +0.277 C 
ENDBRANCH  18  21
ENDBRANCH  14  15
BRANCH  14  23
ATOM     23  N   UNL     1       2.639  -6.314  -0.518  0.00  0.00    +0.385 N 
ATOM     24  H   UNL     1       3.327  -5.919  -1.141  0.00  0.00    -0.089 HD
ATOM     25  H   UNL     1       3.085  -6.973   0.103  0.00  0.00    -0.089 HD
ATOM     26  H   UNL     1       1.930  -6.788  -1.058  0.00  0.00    -0.089 HD
ENDBRANCH  14  23
ENDBRANCH   4  14
TORSDOF 5
