REMARK  Name = ZINC04452837
REMARK  10 active torsions:
REMARK  status: ('A' for Active; 'I' for Inactive)
REMARK    1  A    between atoms: C_1  and  C_2
REMARK    2  A    between atoms: C_3  and  C_9
REMARK    3  A    between atoms: C_4  and  O_8
REMARK    4  A    between atoms: C_9  and  C_10
REMARK    5  A    between atoms: C_9  and  C_24
REMARK    6  A    between atoms: C_13  and  C_15
REMARK    7  A    between atoms: C_20  and  O_21
REMARK    8  A    between atoms: O_21  and  C_22
REMARK    9  A    between atoms: C_25  and  C_31
REMARK   10  A    between atoms: C_29  and  O_30
REMARK                            x       y       z     vdW  Elec       q    Type
REMARK                         _______ _______ _______ _____ _____    ______ ____
ROOT
ATOM      1  C   UNL     1      -0.035  -0.331  -2.561  0.00  0.00    +0.129 C 
ENDROOT
BRANCH   1   4
ATOM      2  C   UNL     1       2.382  -0.930  -0.602  0.00  0.00    +0.068 C 
ATOM      3  C   UNL     1       0.941  -1.302  -0.367  0.00  0.00    +0.068 A 
ATOM      4  C   UNL     1      -0.125  -1.036  -1.233  0.00  0.00    +0.051 A 
ATOM      5  C   UNL     1      -1.257  -1.528  -0.663  0.00  0.00    +0.213 A 
ATOM      6  N   UNL     1      -0.911  -2.082   0.520  0.00  0.00    -0.247 N 
ATOM      7  H   UNL     1      -1.515  -2.512   1.147  0.00  0.00    +0.192 HD
ATOM      8  N   UNL     1       0.472  -1.932   0.679  0.00  0.00    -0.176 NA
BRANCH   5   9
ATOM      9  O   UNL     1      -2.508  -1.472  -1.187  0.00  0.00    -0.492 OA
ATOM     10  H   UNL     1      -2.767  -2.266  -1.674  0.00  0.00    +0.294 HD
ENDBRANCH   5   9
ENDBRANCH   1   4
BRANCH   1  11
ATOM     11  C   UNL     1       1.252  -0.712  -3.246  0.00  0.00    +0.051 A 
ATOM     12  C   UNL     1       2.188   0.144  -3.717  0.00  0.00    +0.041 A 
ATOM     13  N   UNL     1       3.184  -0.590  -4.258  0.00  0.00    -0.278 N 
ATOM     14  N   UNL     1       2.852  -1.943  -4.115  0.00  0.00    -0.136 NA
ATOM     15  H   UNL     1       3.989  -0.240  -4.672  0.00  0.00    +0.189 HD
ATOM     16  C   UNL     1       1.695  -2.018  -3.503  0.00  0.00    +0.236 A 
ATOM     17  C   UNL     1       2.129   1.648  -3.651  0.00  0.00    +0.065 C 
BRANCH  16  18
ATOM     18  O   UNL     1       1.037  -3.163  -3.178  0.00  0.00    -0.491 OA
ATOM     19  H   UNL     1       0.435  -3.480  -3.865  0.00  0.00    +0.294 HD
ENDBRANCH  16  18
ENDBRANCH   1  11
BRANCH   1  20
ATOM     20  C   UNL     1      -1.202  -0.734  -3.425  0.00  0.00    +0.118 A 
ATOM     21  C   UNL     1      -2.130   0.102  -3.931  0.00  0.00    +0.046 A 
ATOM     22  C   UNL     1      -3.033  -0.685  -4.674  0.00  0.00    +0.050 A 
ATOM     23  C   UNL     1      -2.602  -1.971  -4.578  0.00  0.00    +0.139 A 
ATOM     24  O   UNL     1      -1.488  -1.985  -3.822  0.00  0.00    -0.459 OA
BRANCH  23  25
ATOM     25  C   UNL     1      -3.241  -3.149  -5.200  0.00  0.00    +0.060 A 
ATOM     26  C   UNL     1      -4.612  -3.364  -5.049  0.00  0.00    +0.035 A 
ATOM     27  C   UNL     1      -5.204  -4.466  -5.632  0.00  0.00    +0.042 A 
ATOM     28  C   UNL     1      -4.442  -5.359  -6.368  0.00  0.00    +0.023 A 
ATOM     29  C   UNL     1      -3.084  -5.155  -6.524  0.00  0.00    +0.048 A 
ATOM     30  C   UNL     1      -2.477  -4.051  -5.950  0.00  0.00    +0.131 A 
ATOM     31 CL   UNL     1      -6.909  -4.734  -5.443  0.00  0.00    -0.084 Cl
BRANCH  30  32
ATOM     32  O   UNL     1      -1.143  -3.847  -6.109  0.00  0.00    -0.494 OA
ATOM     33  C   UNL     1      -0.427  -4.809  -6.886  0.00  0.00    +0.277 C 
ENDBRANCH  30  32
ENDBRANCH  23  25
ENDBRANCH   1  20
TORSDOF 7
