REMARK  Name = ZINC39439799
REMARK  7 active torsions:
REMARK  status: ('A' for Active; 'I' for Inactive)
REMARK    1  A    between atoms: C_6  and  C_7
REMARK    2  A    between atoms: N_8  and  N_9
REMARK    3  A    between atoms: C_12  and  S_16
REMARK    4  A    between atoms: S_16  and  C_17
REMARK    5  A    between atoms: C_17  and  C_18
REMARK    6  A    between atoms: N_20  and  C_21
REMARK    7  A    between atoms: C_23  and  C_32
REMARK                            x       y       z     vdW  Elec       q    Type
REMARK                         _______ _______ _______ _____ _____    ______ ____
ROOT
ATOM      1  N   UNL     1      -2.444  -2.780   0.011  0.00  0.00    -0.206 N 
ATOM      2  C   UNL     1      -2.422  -4.158   0.004  0.00  0.00    +0.231 C 
ATOM      3  N   UNL     1      -3.484  -4.913   0.005  0.00  0.00    -0.324 N 
ATOM      4  C   UNL     1      -2.974  -6.295  -0.006  0.00  0.00    +0.283 C 
ATOM      5  N   UNL     1      -1.511  -6.127  -0.012  0.00  0.00    -0.148 NA
ATOM      6  N   UNL     1      -1.284  -4.912  -0.012  0.00  0.00    -0.116 NA
ATOM      7  H   UNL     1      -3.291  -2.308   0.022  0.00  0.00    +0.177 HD
ATOM      8  H   UNL     1      -4.411  -4.627   0.012  0.00  0.00    +0.165 HD
ENDROOT
BRANCH   1  10
ATOM      9  C   UNL     1      -1.263  -0.762   0.011  0.00  0.00    +0.138 C 
ATOM     10  N   UNL     1      -1.242  -2.060   0.003  0.00  0.00    -0.188 NA
BRANCH   9  16
ATOM     11  C   UNL     1      -0.017   1.393   0.010  0.00  0.00    +0.011 A 
ATOM     12  C   UNL     1       1.170   2.095   0.002  0.00  0.00    +0.020 A 
ATOM     13  C   UNL     1       2.378   1.419  -0.013  0.00  0.00    +0.041 A 
ATOM     14  C   UNL     1       2.404   0.035  -0.021  0.00  0.00    +0.020 A 
ATOM     15  C   UNL     1       1.225  -0.680  -0.014  0.00  0.00    +0.011 A 
ATOM     16  C   UNL     1       0.002  -0.004   0.002  0.00  0.00    -0.005 A 
ATOM     17 CL   UNL     1       3.868   2.312  -0.023  0.00  0.00    -0.084 Cl
ENDBRANCH   9  16
ENDBRANCH   1  10
BRANCH   4  18
ATOM     18  S   UNL     1      -3.526  -7.168  -1.497  0.00  0.00    -0.102 S 
BRANCH  18  19
ATOM     19  C   UNL     1      -2.835  -6.188  -2.859  0.00  0.00    +0.168 C 
BRANCH  19  20
ATOM     20  C   UNL     1      -3.224  -6.812  -4.174  0.00  0.00    +0.224 C 
ATOM     21  O   UNL     1      -3.901  -7.819  -4.191  0.00  0.00    -0.275 OA
ATOM     22  N   UNL     1      -2.821  -6.252  -5.332  0.00  0.00    -0.301 N 
ATOM     23  H   UNL     1      -2.280  -5.447  -5.318  0.00  0.00    +0.150 HD
BRANCH  22  24
ATOM     24  C   UNL     1      -3.199  -6.859  -6.611  0.00  0.00    +0.156 C 
ATOM     25  C   UNL     1      -3.577  -5.785  -7.659  0.00  0.00    +0.149 C 
ATOM     26  C   UNL     1      -2.391  -5.388  -8.501  0.00  0.00    -0.041 C 
ATOM     27  C   UNL     1      -1.352  -6.214  -8.528  0.00  0.00    -0.012 C 
ATOM     28  S   UNL     1      -1.743  -7.590  -7.469  0.00  0.00    -0.106 S 
ATOM     29  C   UNL     1      -0.075  -6.036  -9.300  0.00  0.00    +0.042 C 
ATOM     30  C   UNL     1      -0.281  -4.935 -10.348  0.00  0.00    +0.005 C 
ATOM     31  C   UNL     1      -0.941  -3.733  -9.666  0.00  0.00    +0.005 C 
ATOM     32  C   UNL     1      -2.381  -4.085  -9.297  0.00  0.00    +0.033 C 
BRANCH  25  33
ATOM     33  C   UNL     1      -4.630  -6.321  -8.538  0.00  0.00    +0.073 C 
ATOM     34  N   UNL     1      -5.442  -6.735  -9.216  0.00  0.00    -0.196 NA
ENDBRANCH  25  33
ENDBRANCH  22  24
ENDBRANCH  19  20
ENDBRANCH  18  19
ENDBRANCH   4  18
TORSDOF 7
