REMARK  Name = ZINC09216576
REMARK  3 active torsions:
REMARK  status: ('A' for Active; 'I' for Inactive)
REMARK    1  A    between atoms: N_14  and  N_15
REMARK    2  A    between atoms: C_16  and  C_17
REMARK    3  A    between atoms: C_20  and  O_24
REMARK                            x       y       z     vdW  Elec       q    Type
REMARK                         _______ _______ _______ _____ _____    ______ ____
ROOT
ATOM      1  C   UNL     1       1.161   3.174   0.008  0.00  0.00    +0.001 A 
ATOM      2  C   UNL     1       1.168   1.785   0.001  0.00  0.00    +0.001 A 
ATOM      3  C   UNL     1      -0.013   1.076   0.008  0.00  0.00    +0.012 A 
ATOM      4  C   UNL     1      -1.227   1.761   0.017  0.00  0.00    +0.031 A 
ATOM      5  C   UNL     1      -1.236   3.173   0.030  0.00  0.00    +0.029 A 
ATOM      6  C   UNL     1      -0.028   3.870   0.023  0.00  0.00    +0.012 A 
ATOM      7  C   UNL     1      -2.528   3.870   0.047  0.00  0.00    +0.167 A 
ATOM      8  N   UNL     1      -3.643   3.190   0.054  0.00  0.00    -0.146 NA
ATOM      9  N   UNL     1      -3.671   1.796   0.047  0.00  0.00    -0.198 N 
ATOM     10  C   UNL     1      -2.515   1.060   0.032  0.00  0.00    +0.185 A 
ATOM     11  N   UNL     1      -2.863  -0.210   0.029  0.00  0.00    -0.128 NA
ATOM     12  N   UNL     1      -4.147  -0.301   0.041  0.00  0.00    -0.136 NA
ATOM     13  C   UNL     1      -4.681   0.894   0.052  0.00  0.00    +0.249 A 
ATOM     14  N   UNL     1      -2.564   5.256   0.053  0.00  0.00    -0.219 N 
ATOM     15  H   UNL     1      -1.737   5.763   0.048  0.00  0.00    +0.176 HD
ENDROOT
BRANCH  14  16
ATOM     16  N   UNL     1      -3.795   5.925   0.069  0.00  0.00    -0.189 NA
ATOM     17  C   UNL     1      -3.830   7.222   0.075  0.00  0.00    +0.138 C 
BRANCH  17  18
ATOM     18  C   UNL     1      -5.125   7.926   0.091  0.00  0.00    -0.003 A 
ATOM     19  C   UNL     1      -6.318   7.197   0.094  0.00  0.00    +0.028 A 
ATOM     20  C   UNL     1      -7.527   7.859   0.115  0.00  0.00    +0.061 A 
ATOM     21  C   UNL     1      -7.562   9.248   0.122  0.00  0.00    +0.145 A 
ATOM     22  C   UNL     1      -6.378   9.976   0.114  0.00  0.00    +0.061 A 
ATOM     23  C   UNL     1      -5.164   9.322   0.099  0.00  0.00    +0.028 A 
ATOM     24 BR   UNL     1      -6.433  11.866   0.122  0.00  0.00    -0.046 Br
ATOM     25 BR   UNL     1      -9.142   6.875   0.127  0.00  0.00    -0.046 Br
BRANCH  21  26
ATOM     26  O   UNL     1      -8.756   9.896   0.137  0.00  0.00    -0.505 OA
ATOM     27  H   UNL     1      -9.110  10.088  -0.743  0.00  0.00    +0.292 HD
ENDBRANCH  21  26
ENDBRANCH  17  18
ENDBRANCH  14  16
TORSDOF 3
