REMARK  Name = ZINC41586524
REMARK  8 active torsions:
REMARK  status: ('A' for Active; 'I' for Inactive)
REMARK    1  A    between atoms: C_1  and  C_2
REMARK    2  A    between atoms: C_2  and  O_3
REMARK    3  A    between atoms: O_3  and  C_4
REMARK    4  A    between atoms: C_4  and  C_6
REMARK    5  A    between atoms: N_11  and  C_13
REMARK    6  A    between atoms: C_13  and  C_14
REMARK    7  A    between atoms: C_15  and  O_34
REMARK    8  A    between atoms: C_22  and  C_23
REMARK                            x       y       z     vdW  Elec       q    Type
REMARK                         _______ _______ _______ _____ _____    ______ ____
ROOT
ATOM      1  C   UNL     1      -5.676  -6.115   0.198  0.00  0.00    +0.020 A 
ATOM      2  C   UNL     1      -6.177  -6.392   1.460  0.00  0.00    +0.122 A 
ATOM      3  C   UNL     1      -7.297  -7.204   1.616  0.00  0.00    +0.046 A 
ATOM      4  C   UNL     1      -7.915  -7.738   0.520  0.00  0.00    +0.019 A 
ATOM      5  C   UNL     1      -7.421  -7.469  -0.757  0.00  0.00    +0.068 A 
ATOM      6  C   UNL     1      -6.296  -6.646  -0.926  0.00  0.00    +0.144 A 
ATOM      7  O   UNL     1      -6.013  -6.527  -2.242  0.00  0.00    -0.451 OA
ATOM      8  C   UNL     1      -6.886  -7.220  -3.009  0.00  0.00    +0.176 C 
ATOM      9  C   UNL     1      -6.874  -7.302  -4.364  0.00  0.00    +0.058 C 
ATOM     10  C   UNL     1      -7.844  -7.878  -2.108  0.00  0.00    +0.231 C 
ATOM     11  O   UNL     1      -8.784  -8.592  -2.412  0.00  0.00    -0.283 OA
ENDROOT
BRANCH   9  12
ATOM     12  C   UNL     1      -5.764  -6.715  -5.125  0.00  0.00    -0.018 A 
ATOM     13  C   UNL     1      -4.636  -6.223  -4.456  0.00  0.00    +0.012 A 
ATOM     14  C   UNL     1      -3.597  -5.673  -5.172  0.00  0.00    +0.050 A 
ATOM     15  C   UNL     1      -3.661  -5.604  -6.558  0.00  0.00    +0.166 A 
ATOM     16  C   UNL     1      -4.782  -6.093  -7.232  0.00  0.00    +0.167 A 
ATOM     17  C   UNL     1      -5.826  -6.650  -6.522  0.00  0.00    +0.057 A 
ATOM     18  O   UNL     1      -4.598  -5.907  -8.573  0.00  0.00    -0.453 OA
ATOM     19  C   UNL     1      -3.543  -4.934  -8.684  0.00  0.00    +0.466 C 
ATOM     20  O   UNL     1      -2.780  -5.116  -7.477  0.00  0.00    -0.453 OA
ENDBRANCH   9  12
BRANCH   2  21
ATOM     21  O   UNL     1      -5.570  -5.867   2.555  0.00  0.00    -0.506 OA
ATOM     22  H   UNL     1      -5.917  -5.004   2.821  0.00  0.00    +0.292 HD
ENDBRANCH   2  21
BRANCH   1  23
ATOM     23  C   UNL     1      -4.463  -5.234   0.045  0.00  0.00    -0.036 C 
BRANCH  23  28
ATOM     24  C   UNL     1      -4.145  -1.500  -0.146  0.00  0.00    +0.081 C 
ATOM     25  C   UNL     1      -4.976  -1.262  -1.411  0.00  0.00    +0.011 C 
ATOM     26  C   UNL     1      -6.166  -2.226  -1.416  0.00  0.00    -0.018 C 
ATOM     27  C   UNL     1      -5.652  -3.664  -1.321  0.00  0.00    -0.078 C 
ATOM     28  N   UNL     1      -4.888  -3.833  -0.079  0.00  0.00    +0.383 N 
ATOM     29  C   UNL     1      -3.706  -2.965  -0.098  0.00  0.00    -0.064 C 
ATOM     30  H   UNL     1      -5.471  -3.590   0.708  0.00  0.00    -0.081 HD
BRANCH  24  31
ATOM     31  C   UNL     1      -2.929  -0.610  -0.169  0.00  0.00    +0.308 C 
ATOM     32  O   UNL     1      -1.823  -1.098  -0.147  0.00  0.00    -0.251 OA
BRANCH  31  33
ATOM     33  O   UNL     1      -3.073   0.724  -0.214  0.00  0.00    -0.465 OA
BRANCH  33  35
ATOM     34  C   UNL     1      -2.240   2.991  -0.285  0.00  0.00    +0.048 C 
ATOM     35  C   UNL     1      -1.877   1.506  -0.233  0.00  0.00    +0.229 C 
ENDBRANCH  33  35
ENDBRANCH  31  33
ENDBRANCH  24  31
ENDBRANCH  23  28
ENDBRANCH   1  23
TORSDOF 7
