REMARK  Name = ZINC23648075
REMARK  13 active torsions:
REMARK  status: ('A' for Active; 'I' for Inactive)
REMARK    1  A    between atoms: C_1  and  C_2
REMARK    2  A    between atoms: C_2  and  C_3
REMARK    3  A    between atoms: C_6  and  C_9
REMARK    4  A    between atoms: C_11  and  S_14
REMARK    5  A    between atoms: S_14  and  C_15
REMARK    6  A    between atoms: C_15  and  C_16
REMARK    7  A    between atoms: C_17  and  C_32
REMARK    8  A    between atoms: C_18  and  C_24
REMARK    9  A    between atoms: C_27  and  O_30
REMARK   10  A    between atoms: O_30  and  C_31
REMARK   11  A    between atoms: C_32  and  O_34
REMARK   12  A    between atoms: O_34  and  C_35
REMARK   13  A    between atoms: C_35  and  C_36
REMARK                            x       y       z     vdW  Elec       q    Type
REMARK                         _______ _______ _______ _____ _____    ______ ____
ROOT
ATOM      1  C   UNL     1      -0.723   7.779   0.021  0.00  0.00    +0.034 C 
ATOM      2  C   UNL     1      -1.021   8.334   1.216  0.00  0.00    +0.079 C 
ATOM      3  C   UNL     1      -1.898   9.570   1.220  0.00  0.00    +0.144 C 
ATOM      4  N   UNL     1      -2.356  10.067  -0.088  0.00  0.00    -0.288 N 
ATOM      5  C   UNL     1      -1.974   9.403  -1.197  0.00  0.00    +0.304 C 
ATOM      6  O   UNL     1      -2.347   9.806  -2.281  0.00  0.00    -0.252 OA
ATOM      7  N   UNL     1      -1.192   8.317  -1.143  0.00  0.00    -0.272 N 
ATOM      8  H   UNL     1      -2.995  10.961  -0.144  0.00  0.00    +0.151 HD
ATOM      9  H   UNL     1      -0.931   7.856  -2.107  0.00  0.00    +0.156 HD
ENDROOT
BRANCH   3  10
ATOM     10  C   UNL     1      -3.116   9.272   2.056  0.00  0.00    -0.022 A 
ATOM     11  C   UNL     1      -4.166   8.554   1.514  0.00  0.00    +0.009 A 
ATOM     12  C   UNL     1      -5.282   8.275   2.280  0.00  0.00    +0.046 A 
ATOM     13  C   UNL     1      -5.353   8.726   3.590  0.00  0.00    +0.120 A 
ATOM     14  C   UNL     1      -4.300   9.452   4.129  0.00  0.00    +0.046 A 
ATOM     15  C   UNL     1      -3.184   9.723   3.361  0.00  0.00    +0.009 A 
BRANCH  13  16
ATOM     16  O   UNL     1      -6.452   8.459   4.343  0.00  0.00    -0.495 OA
ATOM     17  C   UNL     1      -7.496   7.707   3.722  0.00  0.00    +0.277 C 
ENDBRANCH  13  16
ENDBRANCH   3  10
BRANCH   2  18
ATOM     18  C   UNL     1      -0.532   7.780   2.422  0.00  0.00    +0.339 C 
ATOM     19  O   UNL     1       0.048   6.711   2.409  0.00  0.00    -0.245 OA
BRANCH  18  20
ATOM     20  O   UNL     1      -0.708   8.439   3.587  0.00  0.00    -0.462 OA
BRANCH  20  21
ATOM     21  C   UNL     1      -0.188   7.821   4.766  0.00  0.00    +0.229 C 
ATOM     22  C   UNL     1      -0.481   8.708   5.978  0.00  0.00    +0.048 C 
ENDBRANCH  20  21
ENDBRANCH  18  20
ENDBRANCH   2  18
BRANCH   1  23
ATOM     23  C   UNL     1       0.146   6.549  -0.028  0.00  0.00    +0.128 C 
BRANCH  23  24
ATOM     24  S   UNL     1      -0.895   5.081  -0.220  0.00  0.00    -0.081 S 
BRANCH  24  27
ATOM     25  C   UNL     1       1.384   1.910  -0.345  0.00  0.00    +0.182 A 
ATOM     26  N   UNL     1       0.135   2.486  -0.381  0.00  0.00    -0.201 NA
ATOM     27  C   UNL     1       0.344   3.829  -0.248  0.00  0.00    +0.185 A 
ATOM     28  N   UNL     1       1.641   4.013  -0.144  0.00  0.00    -0.253 N 
ATOM     29  N   UNL     1       2.253   2.884  -0.198  0.00  0.00    -0.152 NA
ATOM     30  H   UNL     1       2.215   4.944  -0.027  0.00  0.00    +0.191 HD
BRANCH  25  34
ATOM     31  C   UNL     1       2.265  -2.234  -0.651  0.00  0.00    -0.048 A 
ATOM     32  C   UNL     1       3.294  -1.320  -0.508  0.00  0.00    +0.004 A 
ATOM     33  C   UNL     1       3.015   0.028  -0.408  0.00  0.00    +0.012 A 
ATOM     34  C   UNL     1       1.691   0.468  -0.451  0.00  0.00    +0.021 A 
ATOM     35  C   UNL     1       0.657  -0.460  -0.590  0.00  0.00    +0.012 A 
ATOM     36  C   UNL     1       0.951  -1.804  -0.695  0.00  0.00    +0.004 A 
BRANCH  31  38
ATOM     37  C   UNL     1       2.595  -4.326   0.638  0.00  0.00    +0.009 C 
ATOM     38  C   UNL     1       2.578  -3.704  -0.760  0.00  0.00    +0.032 C 
ENDBRANCH  31  38
ENDBRANCH  25  34
ENDBRANCH  24  27
ENDBRANCH  23  24
ENDBRANCH   1  23
TORSDOF 10
