REMARK  Name = ZINC01866878
REMARK  9 active torsions:
REMARK  status: ('A' for Active; 'I' for Inactive)
REMARK    1  A    between atoms: C_1  and  C_2
REMARK    2  A    between atoms: C_7  and  C_37
REMARK    3  A    between atoms: C_20  and  C_22
REMARK    4  A    between atoms: C_22  and  N_65
REMARK    5  A    between atoms: C_23  and  C_24
REMARK    6  A    between atoms: C_23  and  N_65
REMARK    7  A    between atoms: C_24  and  C_25
REMARK    8  A    between atoms: C_32  and  O_35
REMARK    9  A    between atoms: O_35  and  C_36
REMARK                            x       y       z     vdW  Elec       q    Type
REMARK                         _______ _______ _______ _____ _____    ______ ____
ROOT
ATOM      1  C   UNL     1       3.010   3.092   2.550  0.00  0.00    -0.067 C 
ENDROOT
BRANCH   1  17
ATOM      2  C   UNL     1       4.165  -1.030   2.820  0.00  0.00    +0.010 C 
ATOM      3  C   UNL     1       2.642  -1.157   2.753  0.00  0.00    +0.021 C 
ATOM      4  C   UNL     1       2.254  -2.628   2.560  0.00  0.00    +0.006 C 
ATOM      5  C   UNL     1       0.740  -2.749   2.393  0.00  0.00    +0.001 C 
ATOM      6  C   UNL     1       0.283  -1.991   1.143  0.00  0.00    +0.010 C 
ATOM      7  C   UNL     1       0.604  -0.506   1.315  0.00  0.00    +0.003 C 
ATOM      8  C   UNL     1       2.110  -0.359   1.561  0.00  0.00    +0.104 C 
ATOM      9  C   UNL     1       2.792   0.922   1.133  0.00  0.00    +0.159 C 
ATOM     10  O   UNL     1       2.951  -0.298   0.403  0.00  0.00    -0.363 OA
ATOM     11  C   UNL     1       2.026   2.050   0.466  0.00  0.00    +0.073 C 
ATOM     12  C   UNL     1       0.537   1.749   0.271  0.00  0.00    +0.183 C 
ATOM     13  C   UNL     1       0.261   0.271   0.044  0.00  0.00    +0.054 C 
ATOM     14  O   UNL     1      -0.100   2.207   1.500  0.00  0.00    -0.461 OA
ATOM     15  C   UNL     1       0.579   3.256   1.990  0.00  0.00    +0.309 C 
ATOM     16  O   UNL     1       0.135   4.071   2.764  0.00  0.00    -0.251 OA
ATOM     17  C   UNL     1       1.985   3.264   1.427  0.00  0.00    +0.090 C 
ATOM     18  C   UNL     1      -0.188   0.060   2.495  0.00  0.00    +0.014 C 
ENDBRANCH   1  17
BRANCH   1  19
ATOM     19  N   UNL     1       3.032   4.313   3.376  0.00  0.00    +0.380 N 
ATOM     20  H   UNL     1       2.099   4.468   3.777  0.00  0.00    -0.086 HD
ATOM     21  H   UNL     1       3.289   5.115   2.789  0.00  0.00    -0.086 HD
BRANCH  19  22
ATOM     22  C   UNL     1       4.014   4.175   4.468  0.00  0.00    -0.078 C 
BRANCH  22  23
ATOM     23  C   UNL     1       4.014   5.455   5.307  0.00  0.00    +0.018 C 
BRANCH  23  24
ATOM     24  C   UNL     1       5.015   5.322   6.426  0.00  0.00    -0.024 A 
ATOM     25  C   UNL     1       4.760   4.922   7.682  0.00  0.00    +0.087 A 
ATOM     26  N   UNL     1       5.915   4.925   8.416  0.00  0.00    -0.360 N 
ATOM     27  H   UNL     1       5.981   4.675   9.350  0.00  0.00    +0.165 HD
ATOM     28  C   UNL     1       6.969   5.338   7.628  0.00  0.00    +0.047 A 
ATOM     29  C   UNL     1       6.452   5.598   6.347  0.00  0.00    +0.006 A 
ATOM     30  C   UNL     1       7.298   6.044   5.330  0.00  0.00    +0.056 A 
ATOM     31  C   UNL     1       8.643   6.216   5.588  0.00  0.00    +0.121 A 
ATOM     32  C   UNL     1       9.154   5.952   6.856  0.00  0.00    +0.047 A 
ATOM     33  C   UNL     1       8.327   5.517   7.869  0.00  0.00    +0.030 A 
BRANCH  31  34
ATOM     34  O   UNL     1       9.473   6.645   4.600  0.00  0.00    -0.495 OA
ATOM     35  C   UNL     1      10.854   6.801   4.935  0.00  0.00    +0.277 C 
ENDBRANCH  31  34
ENDBRANCH  23  24
ENDBRANCH  22  23
ENDBRANCH  19  22
ENDBRANCH   1  19
TORSDOF 6
