REMARK  Name = ZINC39939408
REMARK  11 active torsions:
REMARK  status: ('A' for Active; 'I' for Inactive)
REMARK    1  A    between atoms: C_1  and  C_2
REMARK    2  A    between atoms: C_2  and  C_3
REMARK    3  A    between atoms: C_2  and  C_4
REMARK    4  A    between atoms: C_2  and  N_5
REMARK    5  A    between atoms: C_6  and  C_8
REMARK    6  A    between atoms: C_8  and  N_9
REMARK    7  A    between atoms: C_15  and  C_17
REMARK    8  A    between atoms: C_17  and  S_18
REMARK    9  A    between atoms: S_18  and  C_19
REMARK   10  A    between atoms: C_23  and  C_28
REMARK   11  A    between atoms: N_24  and  C_25
REMARK                            x       y       z     vdW  Elec       q    Type
REMARK                         _______ _______ _______ _____ _____    ______ ____
ROOT
ATOM      1  S   UNL     1      10.486  -1.596  -4.239  0.00  0.00    -0.109 S 
ENDROOT
BRANCH   1   2
ATOM      2  C   UNL     1      11.076  -1.338  -5.935  0.00  0.00    +0.237 C 
ATOM      3  N   UNL     1      10.322  -2.183  -6.876  0.00  0.00    -0.237 N 
ATOM      4  N   UNL     1       9.677  -1.313  -7.763  0.00  0.00    -0.169 NA
ATOM      5  C   UNL     1       9.942  -0.065  -7.480  0.00  0.00    +0.147 C 
ATOM      6  N   UNL     1      10.795   0.038  -6.374  0.00  0.00    -0.282 N 
ATOM      7  H   UNL     1      10.281  -3.152  -6.882  0.00  0.00    +0.171 HD
BRANCH   5   8
ATOM      8  C   UNL     1       9.438   1.033  -8.195  0.00  0.00    +0.022 C 
ATOM      9  C   UNL     1       8.512   1.007  -9.238  0.00  0.00    +0.006 A 
ATOM     10  C   UNL     1       7.824  -0.047  -9.876  0.00  0.00    +0.010 A 
ATOM     11  C   UNL     1       6.960   0.227 -10.887  0.00  0.00    +0.001 A 
ATOM     12  C   UNL     1       6.731   1.535 -11.319  0.00  0.00    +0.002 A 
ATOM     13  C   UNL     1       7.358   2.595 -10.752  0.00  0.00    +0.026 A 
ATOM     14  C   UNL     1       8.274   2.388  -9.689  0.00  0.00    +0.043 A 
ATOM     15  N   UNL     1       8.998   3.235  -8.984  0.00  0.00    -0.380 N 
ATOM     16  C   UNL     1       9.780   2.492  -7.991  0.00  0.00    +0.152 C 
ATOM     17  H   UNL     1       9.008   4.197  -9.100  0.00  0.00    +0.160 HD
ENDBRANCH   5   8
BRANCH   6  18
ATOM     18  C   UNL     1      11.307   1.271  -5.771  0.00  0.00    +0.078 C 
ATOM     19  C   UNL     1      12.305   1.133  -4.620  0.00  0.00    +0.024 C 
ATOM     20  C   UNL     1      10.872   1.592  -4.340  0.00  0.00    +0.024 C 
ENDBRANCH   6  18
ENDBRANCH   1   2
BRANCH   1  21
ATOM     21  C   UNL     1       8.713  -1.221  -4.329  0.00  0.00    +0.168 C 
BRANCH  21  28
ATOM     22  N   UNL     1       4.040  -1.688  -2.666  0.00  0.00    -0.291 NA
ATOM     23  C   UNL     1       4.920  -2.240  -1.627  0.00  0.00    +0.104 C 
ATOM     24  C   UNL     1       6.150  -1.340  -1.472  0.00  0.00    +0.123 C 
ATOM     25  N   UNL     1       6.776  -1.173  -2.792  0.00  0.00    -0.298 N 
ATOM     26  C   UNL     1       5.926  -0.753  -3.917  0.00  0.00    +0.123 C 
ATOM     27  C   UNL     1       4.704  -1.676  -3.976  0.00  0.00    +0.104 C 
ATOM     28  C   UNL     1       8.093  -1.398  -2.967  0.00  0.00    +0.226 C 
ATOM     29  O   UNL     1       8.779  -1.744  -2.029  0.00  0.00    -0.275 OA
BRANCH  22  30
ATOM     30  C   UNL     1       2.770  -2.423  -2.726  0.00  0.00    +0.180 C 
BRANCH  30  32
ATOM     31  N   UNL     1       0.801  -2.792  -1.275  0.00  0.00    -0.310 N 
ATOM     32  C   UNL     1       2.004  -2.209  -1.446  0.00  0.00    +0.227 C 
ATOM     33  O   UNL     1       2.470  -1.512  -0.570  0.00  0.00    -0.274 OA
ATOM     34  H   UNL     1       0.428  -3.349  -1.976  0.00  0.00    +0.149 HD
BRANCH  31  36
ATOM     35  C   UNL     1      -0.227  -1.091   0.151  0.00  0.00    +0.031 C 
ATOM     36  C   UNL     1       0.056  -2.583  -0.030  0.00  0.00    +0.026 C 
ATOM     37  C   UNL     1       0.885  -3.092   1.151  0.00  0.00    +0.031 C 
ATOM     38  C   UNL     1      -1.267  -3.350  -0.093  0.00  0.00    +0.031 C 
ENDBRANCH  31  36
ENDBRANCH  30  32
ENDBRANCH  22  30
ENDBRANCH  21  28
ENDBRANCH   1  21
TORSDOF 8
