REMARK  Name = ZINC21225498
REMARK  3 active torsions:
REMARK  status: ('A' for Active; 'I' for Inactive)
REMARK    1  A    between atoms: C_4  and  C_30
REMARK    2  A    between atoms: C_5  and  C_7
REMARK    3  A    between atoms: C_12  and  C_17
REMARK                            x       y       z     vdW  Elec       q    Type
REMARK                         _______ _______ _______ _____ _____    ______ ____
ROOT
ATOM      1  C   UNL     1       2.874   7.581   0.064  0.00  0.00    +0.136 C 
ATOM      2  C   UNL     1       2.596   6.110  -0.143  0.00  0.00    +0.036 C 
ATOM      3  C   UNL     1       2.426   5.499  -1.326  0.00  0.00    +0.017 C 
ATOM      4  C   UNL     1       2.148   4.006  -1.388  0.00  0.00    +0.060 C 
ATOM      5  C   UNL     1       1.352   3.572  -0.158  0.00  0.00    +0.039 C 
ATOM      6  C   UNL     1       2.190   3.907   1.082  0.00  0.00    +0.088 C 
ATOM      7  C   UNL     1       2.506   5.372   1.061  0.00  0.00    +0.163 C 
ATOM      8  O   UNL     1       2.691   5.947   2.116  0.00  0.00    -0.292 OA
ATOM      9  N   UNL     1       2.497   6.110  -2.537  0.00  0.00    -0.316 N 
ATOM     10  C   UNL     1       1.872   7.309  -2.861  0.00  0.00    +0.052 A 
ATOM     11  C   UNL     1       0.902   7.398  -3.843  0.00  0.00    +0.025 A 
ATOM     12  C   UNL     1       0.381   8.638  -4.171  0.00  0.00    +0.002 A 
ATOM     13  C   UNL     1       0.826   9.775  -3.521  0.00  0.00    +0.002 A 
ATOM     14  C   UNL     1       1.779   9.684  -2.522  0.00  0.00    +0.025 A 
ATOM     15  C   UNL     1       2.290   8.442  -2.178  0.00  0.00    +0.049 A 
ATOM     16  N   UNL     1       3.214   8.300  -1.146  0.00  0.00    -0.331 N 
ATOM     17  H   UNL     1       3.083   5.655  -3.349  0.00  0.00    +0.152 HD
ATOM     18  H   UNL     1       4.214   8.743  -1.259  0.00  0.00    +0.147 HD
ENDROOT
BRANCH   1  23
ATOM     19  C   UNL     1      -0.692   8.161   1.159  0.00  0.00    +0.000 A 
ATOM     20  C   UNL     1      -0.592   9.388   1.786  0.00  0.00    +0.001 A 
ATOM     21  C   UNL     1       0.630  10.031   1.857  0.00  0.00    +0.013 A 
ATOM     22  C   UNL     1       1.752   9.445   1.299  0.00  0.00    +0.060 A 
ATOM     23  C   UNL     1       1.652   8.218   0.672  0.00  0.00    -0.011 A 
ATOM     24  C   UNL     1       0.428   7.578   0.597  0.00  0.00    +0.006 A 
BRANCH  22  25
ATOM     25  C   UNL     1       3.084  10.146   1.375  0.00  0.00    +0.418 C 
ATOM     26  F   UNL     1       2.955  11.312   2.139  0.00  0.00    -0.166 F 
ATOM     27  F   UNL     1       4.023   9.299   1.973  0.00  0.00    -0.166 F 
ATOM     28  F   UNL     1       3.510  10.479   0.085  0.00  0.00    -0.166 F 
ENDBRANCH  22  25
ENDBRANCH   1  23
BRANCH   5  29
ATOM     29  C   UNL     1       1.093   2.088  -0.214  0.00  0.00    -0.006 A 
ATOM     30  C   UNL     1      -0.091   1.429  -0.238  0.00  0.00    +0.011 A 
ATOM     31  C   UNL     1      -0.088   0.048  -0.291  0.00  0.00    +0.008 A 
ATOM     32  C   UNL     1       1.099  -0.607  -0.318  0.00  0.00    +0.045 A 
ATOM     33  S   UNL     1       2.266   0.744  -0.267  0.00  0.00    -0.101 S 
ENDBRANCH   5  29
TORSDOF 3
