REMARK  Name = ZINC09415763
REMARK  7 active torsions:
REMARK  status: ('A' for Active; 'I' for Inactive)
REMARK    1  A    between atoms: C_1  and  C_2
REMARK    2  A    between atoms: C_5  and  C_9
REMARK    3  A    between atoms: C_7  and  C_8
REMARK    4  A    between atoms: C_9  and  C_29
REMARK    5  A    between atoms: N_12  and  C_16
REMARK    6  A    between atoms: C_16  and  C_17
REMARK    7  A    between atoms: C_17  and  C_19
REMARK                            x       y       z     vdW  Elec       q    Type
REMARK                         _______ _______ _______ _____ _____    ______ ____
ROOT
ATOM      1  C   UNL     1      -5.242  -3.849  -0.630  0.00  0.00    +0.164 C 
ATOM      2  C   UNL     1      -4.377  -3.086  -1.614  0.00  0.00    +0.256 C 
ATOM      3  O   UNL     1      -3.920  -3.497  -2.659  0.00  0.00    -0.272 OA
ATOM      4  N   UNL     1      -4.221  -1.857  -1.084  0.00  0.00    -0.216 N 
ATOM      5  C   UNL     1      -4.867  -1.736   0.081  0.00  0.00    +0.310 C 
ATOM      6  O   UNL     1      -4.877  -0.718   0.746  0.00  0.00    -0.252 OA
ATOM      7  N   UNL     1      -5.503  -2.867   0.436  0.00  0.00    -0.278 N 
ATOM      8  H   UNL     1      -6.032  -3.007   1.237  0.00  0.00    +0.152 HD
ENDROOT
BRANCH   1  13
ATOM      9  C   UNL     1     -10.183  -5.502  -3.128  0.00  0.00    +0.044 C 
ATOM     10  C   UNL     1      -8.895  -5.071  -2.477  0.00  0.00    -0.048 A 
ATOM     11  C   UNL     1      -7.683  -5.396  -3.058  0.00  0.00    +0.004 A 
ATOM     12  C   UNL     1      -6.502  -5.001  -2.461  0.00  0.00    +0.007 A 
ATOM     13  C   UNL     1      -6.530  -4.280  -1.282  0.00  0.00    -0.010 A 
ATOM     14  C   UNL     1      -7.741  -3.960  -0.697  0.00  0.00    +0.010 A 
ATOM     15  C   UNL     1      -8.924  -4.351  -1.297  0.00  0.00    -0.047 A 
ATOM     16  C   UNL     1     -10.244  -3.996  -0.663  0.00  0.00    +0.044 C 
ENDBRANCH   1  13
BRANCH   1  17
ATOM     17  C   UNL     1      -4.502  -5.042  -0.082  0.00  0.00    -0.011 A 
ATOM     18  C   UNL     1      -4.474  -5.271   1.281  0.00  0.00    +0.006 A 
ATOM     19  C   UNL     1      -3.800  -6.369   1.784  0.00  0.00    +0.000 A 
ATOM     20  C   UNL     1      -3.144  -7.230   0.925  0.00  0.00    +0.000 A 
ATOM     21  C   UNL     1      -3.167  -6.998  -0.438  0.00  0.00    +0.000 A 
ATOM     22  C   UNL     1      -3.846  -5.904  -0.941  0.00  0.00    +0.006 A 
ENDBRANCH   1  17
BRANCH   4  23
ATOM     23  C   UNL     1      -3.446  -0.783  -1.711  0.00  0.00    +0.197 C 
BRANCH  23  24
ATOM     24  C   UNL     1      -2.017  -0.853  -1.237  0.00  0.00    +0.183 C 
ATOM     25  O   UNL     1      -1.679  -1.715  -0.452  0.00  0.00    -0.290 OA
BRANCH  24  26
ATOM     26  C   UNL     1      -1.068   0.089  -1.707  0.00  0.00    +0.044 A 
ATOM     27  C   UNL     1      -1.294   1.120  -2.594  0.00  0.00    +0.095 A 
ATOM     28  N   UNL     1      -0.151   1.806  -2.790  0.00  0.00    -0.360 N 
ATOM     29  H   UNL     1      -0.064   2.575  -3.374  0.00  0.00    +0.165 HD
ATOM     30  C   UNL     1       0.880   1.256  -2.057  0.00  0.00    +0.047 A 
ATOM     31  C   UNL     1       0.362   0.162  -1.347  0.00  0.00    +0.010 A 
ATOM     32  C   UNL     1       1.188  -0.585  -0.512  0.00  0.00    +0.011 A 
ATOM     33  C   UNL     1       2.520  -0.252  -0.394  0.00  0.00    +0.001 A 
ATOM     34  C   UNL     1       3.036   0.826  -1.099  0.00  0.00    +0.002 A 
ATOM     35  C   UNL     1       2.228   1.576  -1.925  0.00  0.00    +0.026 A 
ENDBRANCH  24  26
ENDBRANCH  23  24
ENDBRANCH   4  23
TORSDOF 5
