REMARK  Name = ZINC16857277
REMARK  9 active torsions:
REMARK  status: ('A' for Active; 'I' for Inactive)
REMARK    1  A    between atoms: C_1  and  C_2
REMARK    2  A    between atoms: C_3  and  C_16
REMARK    3  A    between atoms: C_4  and  O_15
REMARK    4  A    between atoms: C_6  and  C_8
REMARK    5  A    between atoms: C_8  and  C_9
REMARK    6  A    between atoms: C_16  and  C_17
REMARK    7  A    between atoms: C_17  and  S_18
REMARK    8  A    between atoms: S_18  and  C_19
REMARK    9  A    between atoms: C_19  and  C_20
REMARK                            x       y       z     vdW  Elec       q    Type
REMARK                         _______ _______ _______ _____ _____    ______ ____
ROOT
ATOM      1  C   UNL     1       2.392   6.799  -3.938  0.00  0.00    +0.066 C 
ATOM      2  C   UNL     1       1.078   6.537  -3.248  0.00  0.00    +0.049 A 
ATOM      3  C   UNL     1      -0.116   6.762  -3.908  0.00  0.00    +0.036 A 
ATOM      4  C   UNL     1      -1.306   6.506  -3.229  0.00  0.00    +0.219 A 
ATOM      5  N   UNL     1      -1.250   6.058  -1.980  0.00  0.00    -0.198 NA
ATOM      6  C   UNL     1      -0.091   5.857  -1.388  0.00  0.00    +0.137 A 
ATOM      7  N   UNL     1       1.052   6.094  -2.000  0.00  0.00    -0.236 NA
ENDROOT
BRANCH   4   8
ATOM      8  O   UNL     1      -2.501   6.711  -3.834  0.00  0.00    -0.492 OA
ATOM      9  H   UNL     1      -2.856   7.602  -3.711  0.00  0.00    +0.294 HD
ENDBRANCH   4   8
BRANCH   6  10
ATOM     10  C   UNL     1      -0.070   5.347   0.030  0.00  0.00    +0.111 C 
BRANCH  10  11
ATOM     11  C   UNL     1      -0.050   3.840   0.022  0.00  0.00    -0.040 A 
ATOM     12  C   UNL     1       1.156   3.165   0.008  0.00  0.00    +0.004 A 
ATOM     13  C   UNL     1       1.175   1.783   0.000  0.00  0.00    +0.000 A 
ATOM     14  C   UNL     1      -0.013   1.076   0.008  0.00  0.00    +0.000 A 
ATOM     15  C   UNL     1      -1.219   1.751   0.017  0.00  0.00    +0.000 A 
ATOM     16  C   UNL     1      -1.238   3.133   0.030  0.00  0.00    +0.004 A 
ENDBRANCH  10  11
ENDBRANCH   6  10
BRANCH   3  17
ATOM     17  C   UNL     1      -0.130   7.272  -5.326  0.00  0.00    +0.053 C 
BRANCH  17  18
ATOM     18  C   UNL     1      -0.149   8.802  -5.318  0.00  0.00    +0.074 C 
BRANCH  18  19
ATOM     19  S   UNL     1      -0.166   9.416  -7.024  0.00  0.00    -0.156 S 
BRANCH  19  20
ATOM     20  C   UNL     1      -0.187  11.220  -6.841  0.00  0.00    +0.105 C 
BRANCH  20  21
ATOM     21  C   UNL     1      -0.202  11.863  -8.204  0.00  0.00    -0.019 A 
ATOM     22  C   UNL     1       0.988  12.178  -8.834  0.00  0.00    +0.006 A 
ATOM     23  C   UNL     1       0.973  12.764 -10.086  0.00  0.00    +0.000 A 
ATOM     24  C   UNL     1      -0.231  13.044 -10.705  0.00  0.00    +0.001 A 
ATOM     25  C   UNL     1      -1.421  12.735 -10.074  0.00  0.00    +0.020 A 
ATOM     26  C   UNL     1      -1.407  12.144  -8.823  0.00  0.00    +0.045 A 
ATOM     27 CL   UNL     1      -2.902  11.756  -8.030  0.00  0.00    -0.083 Cl
ENDBRANCH  20  21
ENDBRANCH  19  20
ENDBRANCH  18  19
ENDBRANCH  17  18
ENDBRANCH   3  17
TORSDOF 8
