REMARK  Name = ZINC16778786
REMARK  5 active torsions:
REMARK  status: ('A' for Active; 'I' for Inactive)
REMARK    1  A    between atoms: C_1  and  C_2
REMARK    2  A    between atoms: N_16  and  C_25
REMARK    3  A    between atoms: C_17  and  C_19
REMARK    4  A    between atoms: C_25  and  C_26
REMARK    5  A    between atoms: C_26  and  O_27
REMARK                            x       y       z     vdW  Elec       q    Type
REMARK                         _______ _______ _______ _____ _____    ______ ____
ROOT
ATOM      1  C   UNL     1       2.481   1.035  -0.016  0.00  0.00    +0.045 C 
ATOM      2  C   UNL     1       1.171   1.780   0.000  0.00  0.00    -0.029 A 
ATOM      3  C   UNL     1      -0.013   1.076   0.008  0.00  0.00    +0.051 A 
ATOM      4  C   UNL     1      -1.227   1.755   0.017  0.00  0.00    +0.140 A 
ATOM      5  C   UNL     1      -1.222   3.160   0.031  0.00  0.00    +0.066 A 
ATOM      6  C   UNL     1      -0.019   3.863   0.023  0.00  0.00    +0.035 A 
ATOM      7  C   UNL     1       1.172   3.169   0.008  0.00  0.00    +0.045 A 
ATOM      8 CL   UNL     1       2.678   4.034  -0.000  0.00  0.00    -0.083 Cl
ATOM      9  C   UNL     1      -2.522   3.860   0.046  0.00  0.00    +0.199 A 
ATOM     10  O   UNL     1      -2.594   5.076   0.054  0.00  0.00    -0.287 OA
ATOM     11  C   UNL     1      -3.722   3.019   0.036  0.00  0.00    +0.072 A 
ATOM     12  C   UNL     1      -3.600   1.669   0.028  0.00  0.00    +0.199 A 
ATOM     13  O   UNL     1      -2.390   1.077   0.019  0.00  0.00    -0.450 OA
ATOM     14  C   UNL     1      -4.961   1.077   0.031  0.00  0.00    +0.283 C 
ATOM     15  O   UNL     1      -5.201  -0.114   0.026  0.00  0.00    -0.267 OA
ATOM     16  N   UNL     1      -5.891   2.048   0.041  0.00  0.00    -0.282 N 
ATOM     17  C   UNL     1      -5.194   3.340   0.045  0.00  0.00    +0.145 C 
ENDROOT
BRANCH  17  18
ATOM     18  C   UNL     1      -5.561   4.131  -1.184  0.00  0.00    -0.022 A 
ATOM     19  C   UNL     1      -5.680   3.495  -2.406  0.00  0.00    +0.006 A 
ATOM     20  C   UNL     1      -6.021   4.220  -3.532  0.00  0.00    +0.000 A 
ATOM     21  C   UNL     1      -6.235   5.582  -3.439  0.00  0.00    +0.000 A 
ATOM     22  C   UNL     1      -6.111   6.220  -2.218  0.00  0.00    +0.000 A 
ATOM     23  C   UNL     1      -5.774   5.494  -1.091  0.00  0.00    +0.006 A 
ENDBRANCH  17  18
BRANCH  16  24
ATOM     24  C   UNL     1      -7.342   1.851   0.047  0.00  0.00    +0.137 C 
BRANCH  24  25
ATOM     25  C   UNL     1      -7.840   1.775   1.492  0.00  0.00    +0.175 C 
BRANCH  25  26
ATOM     26  O   UNL     1      -7.626   3.032   2.137  0.00  0.00    -0.393 OA
ATOM     27  H   UNL     1      -7.919   3.056   3.058  0.00  0.00    +0.209 HD
ENDBRANCH  25  26
ENDBRANCH  24  25
ENDBRANCH  16  24
TORSDOF 4
