REMARK  Name = ZINC16444280
REMARK  8 active torsions:
REMARK  status: ('A' for Active; 'I' for Inactive)
REMARK    1  A    between atoms: C_1  and  C_2
REMARK    2  A    between atoms: C_3  and  C_30
REMARK    3  A    between atoms: C_11  and  C_13
REMARK    4  A    between atoms: C_13  and  C_15
REMARK    5  A    between atoms: C_13  and  N_16
REMARK    6  A    between atoms: N_19  and  C_22
REMARK    7  A    between atoms: C_27  and  O_28
REMARK    8  A    between atoms: O_28  and  C_29
REMARK                            x       y       z     vdW  Elec       q    Type
REMARK                         _______ _______ _______ _____ _____    ______ ____
ROOT
ATOM      1  C   UNL     1       0.090  -3.432   4.547  0.00  0.00    +0.120 C 
ATOM      2  C   UNL     1      -1.125  -3.447   5.477  0.00  0.00    +0.032 C 
ENDROOT
BRANCH   1  13
ATOM      3  C   UNL     1       5.081  -1.037   8.329  0.00  0.00    +0.045 C 
ATOM      4  C   UNL     1       4.838  -2.241   7.455  0.00  0.00    -0.026 A 
ATOM      5  C   UNL     1       5.791  -3.174   7.303  0.00  0.00    -0.008 A 
ATOM      6  S   UNL     1       5.037  -4.360   6.207  0.00  0.00    -0.073 S 
ATOM      7  C   UNL     1       3.464  -3.569   5.986  0.00  0.00    +0.116 A 
ATOM      8  C   UNL     1       3.568  -2.409   6.774  0.00  0.00    +0.075 A 
ATOM      9  C   UNL     1       2.411  -1.562   6.785  0.00  0.00    +0.260 A 
ATOM     10  O   UNL     1       2.405  -0.531   7.435  0.00  0.00    -0.267 OA
ATOM     11  N   UNL     1       1.332  -1.924   6.067  0.00  0.00    -0.309 N 
ATOM     12  H   UNL     1       0.546  -1.356   6.070  0.00  0.00    +0.170 HD
ATOM     13  C   UNL     1       1.321  -3.069   5.336  0.00  0.00    +0.128 A 
ATOM     14  N   UNL     1       2.363  -3.856   5.298  0.00  0.00    -0.225 NA
ATOM     15  C   UNL     1       7.169  -3.209   7.913  0.00  0.00    +0.052 C 
ENDBRANCH   1  13
BRANCH   1  16
ATOM     16  N   UNL     1       0.266  -4.763   3.950  0.00  0.00    -0.290 NA
ATOM     17  C   UNL     1      -0.743  -5.011   2.911  0.00  0.00    +0.104 C 
ATOM     18  C   UNL     1      -0.417  -6.323   2.191  0.00  0.00    +0.120 C 
ATOM     19  N   UNL     1      -0.286  -7.388   3.197  0.00  0.00    -0.325 N 
ATOM     20  C   UNL     1       0.605  -7.156   4.344  0.00  0.00    +0.120 C 
ATOM     21  C   UNL     1       0.239  -5.810   4.979  0.00  0.00    +0.104 C 
BRANCH  19  22
ATOM     22  C   UNL     1      -0.990  -8.591   3.066  0.00  0.00    +0.072 A 
ATOM     23  C   UNL     1      -0.421  -9.660   2.390  0.00  0.00    +0.027 A 
ATOM     24  C   UNL     1      -1.118 -10.847   2.263  0.00  0.00    +0.002 A 
ATOM     25  C   UNL     1      -2.382 -10.972   2.808  0.00  0.00    +0.004 A 
ATOM     26  C   UNL     1      -2.956  -9.910   3.483  0.00  0.00    +0.047 A 
ATOM     27  C   UNL     1      -2.262  -8.719   3.620  0.00  0.00    +0.141 A 
BRANCH  27  28
ATOM     28  O   UNL     1      -2.823  -7.676   4.288  0.00  0.00    -0.493 OA
ATOM     29  C   UNL     1      -4.130  -7.880   4.829  0.00  0.00    +0.277 C 
ENDBRANCH  27  28
ENDBRANCH  19  22
ENDBRANCH   1  16
TORSDOF 4
