REMARK  Name = ZINC12378356
REMARK  7 active torsions:
REMARK  status: ('A' for Active; 'I' for Inactive)
REMARK    1  A    between atoms: C_4  and  C_7
REMARK    2  A    between atoms: C_7  and  N_19
REMARK    3  A    between atoms: N_8  and  S_9
REMARK    4  A    between atoms: S_9  and  C_12
REMARK    5  A    between atoms: N_19  and  C_20
REMARK    6  A    between atoms: C_23  and  S_26
REMARK    7  A    between atoms: S_26  and  N_29
REMARK                            x       y       z     vdW  Elec       q    Type
REMARK                         _______ _______ _______ _____ _____    ______ ____
ROOT
ATOM      1  C   UNL     1       3.812  -0.933   0.591  0.00  0.00    +0.172 C 
ATOM      2  N   UNL     1       4.035  -2.188   0.323  0.00  0.00    -0.111 NA
ENDROOT
BRANCH   1   6
ATOM      3  C   UNL     1      -0.032   0.310   1.908  0.00  0.00    +0.000 A 
ATOM      4  C   UNL     1       1.083   0.589   2.677  0.00  0.00    +0.001 A 
ATOM      5  C   UNL     1       2.334   0.188   2.255  0.00  0.00    +0.011 A 
ATOM      6  C   UNL     1       2.473  -0.500   1.050  0.00  0.00    +0.018 A 
ATOM      7  C   UNL     1       1.345  -0.778   0.279  0.00  0.00    +0.011 A 
ATOM      8  C   UNL     1       0.099  -0.372   0.712  0.00  0.00    +0.001 A 
ENDBRANCH   1   6
BRANCH   2   9
ATOM      9  S   UNL     1       2.873  -3.323   0.647  0.00  0.00    +0.100 S 
ATOM     10  O   UNL     1       2.518  -3.160   2.013  0.00  0.00    -0.146 OA
ATOM     11  O   UNL     1       1.920  -3.240  -0.403  0.00  0.00    -0.146 OA
BRANCH   9  12
ATOM     12  C   UNL     1       3.637  -4.904   0.510  0.00  0.00    +0.113 A 
ATOM     13  C   UNL     1       3.654  -5.561  -0.706  0.00  0.00    +0.030 A 
ATOM     14  C   UNL     1       4.254  -6.801  -0.814  0.00  0.00    +0.022 A 
ATOM     15  C   UNL     1       4.836  -7.387   0.296  0.00  0.00    +0.041 A 
ATOM     16  C   UNL     1       4.819  -6.730   1.513  0.00  0.00    +0.022 A 
ATOM     17  C   UNL     1       4.224  -5.486   1.619  0.00  0.00    +0.030 A 
ATOM     18 CL   UNL     1       5.588  -8.946   0.161  0.00  0.00    -0.084 Cl
ENDBRANCH   9  12
ENDBRANCH   2   9
BRANCH   1  19
ATOM     19  N   UNL     1       4.824  -0.007   0.447  0.00  0.00    -0.194 NA
BRANCH  19  20
ATOM     20  C   UNL     1       5.949  -0.316  -0.324  0.00  0.00    +0.056 A 
ATOM     21  C   UNL     1       5.870  -1.286  -1.314  0.00  0.00    +0.027 A 
ATOM     22  C   UNL     1       6.983  -1.588  -2.075  0.00  0.00    +0.030 A 
ATOM     23  C   UNL     1       8.175  -0.925  -1.850  0.00  0.00    +0.105 A 
ATOM     24  C   UNL     1       8.258   0.042  -0.865  0.00  0.00    +0.030 A 
ATOM     25  C   UNL     1       7.147   0.353  -0.105  0.00  0.00    +0.027 A 
BRANCH  23  26
ATOM     26  S   UNL     1       9.593  -1.314  -2.821  0.00  0.00    +0.056 S 
ATOM     27  O   UNL     1      10.728  -0.942  -2.051  0.00  0.00    -0.153 OA
ATOM     28  O   UNL     1       9.403  -2.635  -3.307  0.00  0.00    -0.153 OA
BRANCH  26  29
ATOM     29  N   UNL     1       9.570  -0.316  -4.143  0.00  0.00    -0.204 NA
ATOM     30  H   UNL     1       8.852   0.327  -4.253  0.00  0.00    +0.144 HD
ATOM     31  H   UNL     1      10.275  -0.374  -4.807  0.00  0.00    +0.144 HD
ENDBRANCH  26  29
ENDBRANCH  23  26
ENDBRANCH  19  20
ENDBRANCH   1  19
TORSDOF 7
