REMARK  Name = ZINC06078371
REMARK  15 active torsions:
REMARK  status: ('A' for Active; 'I' for Inactive)
REMARK    1  A    between atoms: C_1  and  C_2
REMARK    2  A    between atoms: C_2  and  N_66
REMARK    3  A    between atoms: C_3  and  C_4
REMARK    4  A    between atoms: C_3  and  N_66
REMARK    5  A    between atoms: C_5  and  C_6
REMARK    6  A    between atoms: C_5  and  N_66
REMARK    7  A    between atoms: C_6  and  N_7
REMARK    8  A    between atoms: N_7  and  C_8
REMARK    9  A    between atoms: N_7  and  C_23
REMARK   10  A    between atoms: C_8  and  C_9
REMARK   11  A    between atoms: C_14  and  C_22
REMARK   12  A    between atoms: C_15  and  C_21
REMARK   13  A    between atoms: C_23  and  N_25
REMARK   14  A    between atoms: N_25  and  C_26
REMARK   15  A    between atoms: C_29  and  C_32
REMARK                            x       y       z     vdW  Elec       q    Type
REMARK                         _______ _______ _______ _____ _____    ______ ____
ROOT
ATOM      1  N   UNL     1       3.598   4.233   2.127  0.00  0.00    -0.310 N 
ENDROOT
BRANCH   1   2
ATOM      2  C   UNL     1       3.709   5.400   2.791  0.00  0.00    +0.137 C 
ATOM      3  S   UNL     1       2.882   6.789   2.226  0.00  0.00    -0.018 S 
BRANCH   2   4
ATOM      4  N   UNL     1       4.470   5.474   3.901  0.00  0.00    -0.297 N 
ATOM      5  H   UNL     1       4.988   4.705   4.186  0.00  0.00    +0.154 HD
BRANCH   4   6
ATOM      6  C   UNL     1       4.513   6.660   4.642  0.00  0.00    +0.033 A 
ATOM      7  C   UNL     1       4.641   7.881   3.994  0.00  0.00    +0.023 A 
ATOM      8  C   UNL     1       4.678   9.050   4.728  0.00  0.00    +0.005 A 
ATOM      9  C   UNL     1       4.598   9.005   6.108  0.00  0.00    -0.050 A 
ATOM     10  C   UNL     1       4.476   7.790   6.756  0.00  0.00    +0.005 A 
ATOM     11  C   UNL     1       4.433   6.618   6.028  0.00  0.00    +0.023 A 
ATOM     12  C   UNL     1       4.644  10.282   6.906  0.00  0.00    +0.044 C 
ENDBRANCH   4   6
ENDBRANCH   2   4
ENDBRANCH   1   2
BRANCH   1  13
ATOM     13  C   UNL     1       4.305   3.044   2.611  0.00  0.00    +0.088 C 
BRANCH  13  14
ATOM     14  C   UNL     1       5.694   2.982   1.972  0.00  0.00    -0.060 C 
BRANCH  14  15
ATOM     15  N   UNL     1       6.402   1.790   2.485  0.00  0.00    +0.380 N 
ATOM     16  H   UNL     1       6.365   1.797   3.511  0.00  0.00    -0.082 HD
BRANCH  15  18
ATOM     17  C   UNL     1       5.735   0.539   0.460  0.00  0.00    -0.017 C 
ATOM     18  C   UNL     1       5.748   0.561   1.990  0.00  0.00    -0.082 C 
ENDBRANCH  15  18
BRANCH  15  19
ATOM     19  C   UNL     1       7.816   1.819   2.055  0.00  0.00    -0.082 C 
ATOM     20  C   UNL     1       8.575   0.708   2.784  0.00  0.00    -0.017 C 
ENDBRANCH  15  19
ENDBRANCH  14  15
ENDBRANCH  13  14
ENDBRANCH   1  13
BRANCH   1  21
ATOM     21  C   UNL     1       2.770   4.152   0.920  0.00  0.00    +0.147 C 
BRANCH  21  22
ATOM     22  C   UNL     1       1.361   3.779   1.302  0.00  0.00    +0.035 A 
ATOM     23  C   UNL     1       0.431   4.748   1.484  0.00  0.00    +0.020 A 
ATOM     24  C   UNL     1      -0.929   4.352   1.854  0.00  0.00    -0.001 A 
ATOM     25  C   UNL     1      -1.932   5.307   2.055  0.00  0.00    +0.010 A 
ATOM     26  C   UNL     1      -3.191   4.904   2.399  0.00  0.00    +0.004 A 
ATOM     27  C   UNL     1      -3.485   3.556   2.552  0.00  0.00    -0.046 A 
ATOM     28  C   UNL     1      -2.513   2.598   2.359  0.00  0.00    -0.024 A 
ATOM     29  C   UNL     1      -1.225   2.984   2.002  0.00  0.00    +0.052 A 
ATOM     30  N   UNL     1      -0.232   2.047   1.808  0.00  0.00    -0.322 N 
ATOM     31  H   UNL     1      -0.442   1.076   1.921  0.00  0.00    +0.169 HD
ATOM     32  C   UNL     1       1.014   2.421   1.468  0.00  0.00    +0.254 A 
ATOM     33  O   UNL     1       1.865   1.565   1.300  0.00  0.00    -0.268 OA
ATOM     34  C   UNL     1      -2.846   1.138   2.529  0.00  0.00    +0.046 C 
ATOM     35  C   UNL     1      -4.881   3.136   2.933  0.00  0.00    +0.044 C 
ENDBRANCH  21  22
ENDBRANCH   1  21
TORSDOF 10
