REMARK  Name = ZINC13856582
REMARK  8 active torsions:
REMARK  status: ('A' for Active; 'I' for Inactive)
REMARK    1  A    between atoms: C_1  and  C_2
REMARK    2  A    between atoms: C_2  and  C_4
REMARK    3  A    between atoms: C_2  and  O_12
REMARK    4  A    between atoms: C_4  and  C_6
REMARK    5  A    between atoms: O_12  and  C_13
REMARK    6  A    between atoms: C_13  and  C_15
REMARK    7  A    between atoms: C_18  and  N_21
REMARK    8  A    between atoms: C_29  and  C_38
REMARK                            x       y       z     vdW  Elec       q    Type
REMARK                         _______ _______ _______ _____ _____    ______ ____
ROOT
ATOM      1  C   UNL     1      -3.493   3.688   0.067  0.00  0.00    +0.059 A 
ATOM      2  C   UNL     1      -2.237   4.297   0.000  0.00  0.00    +0.017 A 
ATOM      3  C   UNL     1      -1.099   3.523  -0.018  0.00  0.00    +0.025 A 
ATOM      4  C   UNL     1      -1.197   2.137   0.031  0.00  0.00    +0.044 A 
ATOM      5  C   UNL     1      -2.446   1.527   0.092  0.00  0.00    +0.025 A 
ATOM      6  C   UNL     1      -3.588   2.294   0.116  0.00  0.00    +0.017 A 
ENDROOT
BRANCH   4   7
ATOM      7  N   UNL     1      -0.039   1.354   0.013  0.00  0.00    -0.210 N 
ATOM      8  C   UNL     1       1.227   1.874  -0.058  0.00  0.00    +0.230 C 
ATOM      9  O   UNL     1       1.562   3.019   0.158  0.00  0.00    -0.274 OA
ATOM     10  C   UNL     1       2.115   0.725  -0.460  0.00  0.00    +0.091 C 
ATOM     11  C   UNL     1       3.473   0.533   0.244  0.00  0.00    +0.002 C 
ATOM     12  C   UNL     1       3.356   0.502   1.783  0.00  0.00    +0.012 C 
ATOM     13  C   UNL     1       2.755  -0.888   2.155  0.00  0.00    +0.023 C 
ATOM     14  C   UNL     1       2.268  -1.419   0.746  0.00  0.00    +0.009 C 
ATOM     15  C   UNL     1       3.580  -1.024  -0.050  0.00  0.00    +0.009 C 
ATOM     16  C   UNL     1       1.315  -0.336   0.392  0.00  0.00    +0.092 C 
ATOM     17  C   UNL     1      -0.049  -0.028   0.059  0.00  0.00    +0.230 C 
ATOM     18  O   UNL     1      -0.973  -0.788  -0.134  0.00  0.00    -0.274 OA
BRANCH  13  19
ATOM     19  C   UNL     1       3.821  -1.785   2.731  0.00  0.00    -0.044 A 
ATOM     20  C   UNL     1       3.469  -2.826   3.570  0.00  0.00    +0.004 A 
ATOM     21  C   UNL     1       4.446  -3.651   4.095  0.00  0.00    +0.000 A 
ATOM     22  C   UNL     1       5.776  -3.430   3.788  0.00  0.00    +0.000 A 
ATOM     23  C   UNL     1       6.128  -2.386   2.953  0.00  0.00    +0.000 A 
ATOM     24  C   UNL     1       5.150  -1.563   2.425  0.00  0.00    +0.004 A 
ENDBRANCH  13  19
ENDBRANCH   4   7
BRANCH   1  25
ATOM     25  C   UNL     1      -4.715   4.514   0.086  0.00  0.00    +0.340 C 
ATOM     26  O   UNL     1      -4.631   5.725   0.043  0.00  0.00    -0.245 OA
BRANCH  25  27
ATOM     27  O   UNL     1      -5.926   3.925   0.151  0.00  0.00    -0.450 OA
BRANCH  27  29
ATOM     28  C   UNL     1      -7.546   5.060  -1.269  0.00  0.00    +0.061 C 
ATOM     29  C   UNL     1      -7.084   4.800   0.166  0.00  0.00    +0.244 C 
BRANCH  29  30
ATOM     30  C   UNL     1      -8.198   4.144   0.941  0.00  0.00    +0.203 C 
ATOM     31  O   UNL     1      -8.144   2.960   1.197  0.00  0.00    -0.288 OA
BRANCH  30  32
ATOM     32  C   UNL     1      -9.353   4.941   1.386  0.00  0.00    +0.021 A 
ATOM     33  C   UNL     1      -9.417   6.308   1.097  0.00  0.00    +0.011 A 
ATOM     34  C   UNL     1     -10.505   7.046   1.513  0.00  0.00    +0.001 A 
ATOM     35  C   UNL     1     -11.526   6.441   2.224  0.00  0.00    +0.000 A 
ATOM     36  C   UNL     1     -11.467   5.089   2.519  0.00  0.00    +0.001 A 
ATOM     37  C   UNL     1     -10.389   4.336   2.105  0.00  0.00    +0.011 A 
ENDBRANCH  30  32
ENDBRANCH  29  30
ENDBRANCH  27  29
ENDBRANCH  25  27
ENDBRANCH   1  25
TORSDOF 7
