REMARK  Name = ZINC39652666
REMARK  8 active torsions:
REMARK  status: ('A' for Active; 'I' for Inactive)
REMARK    1  A    between atoms: C_1  and  C_2
REMARK    2  A    between atoms: C_2  and  O_3
REMARK    3  A    between atoms: O_3  and  C_4
REMARK    4  A    between atoms: C_9  and  C_10
REMARK    5  A    between atoms: C_10  and  C_11
REMARK    6  A    between atoms: C_11  and  N_12
REMARK    7  A    between atoms: C_13  and  C_15
REMARK    8  A    between atoms: C_26  and  C_28
REMARK                            x       y       z     vdW  Elec       q    Type
REMARK                         _______ _______ _______ _____ _____    ______ ____
ROOT
ATOM      1  C   UNL     1       5.984   0.699  -4.926  0.00  0.00    +0.100 C 
ATOM      2  C   UNL     1       6.135   0.250  -6.397  0.00  0.00    +0.121 C 
ATOM      3  N   UNL     1       7.375   0.912  -6.865  0.00  0.00    -0.296 N 
ATOM      4  C   UNL     1       8.300   0.821  -5.710  0.00  0.00    +0.115 C 
ATOM      5  C   UNL     1       7.408   1.072  -4.479  0.00  0.00    -0.004 C 
ATOM      6  C   UNL     1       7.847   0.183  -3.319  0.00  0.00    -0.010 C 
ATOM      7  C   UNL     1       9.242   0.611  -2.854  0.00  0.00    -0.082 C 
ATOM      8  N   UNL     1       9.210   2.017  -2.435  0.00  0.00    +0.379 N 
ATOM      9  C   UNL     1       8.877   2.874  -3.579  0.00  0.00    -0.082 C 
ATOM     10  C   UNL     1       7.467   2.542  -4.075  0.00  0.00    -0.010 C 
ATOM     11  C   UNL     1       7.609   1.472  -8.069  0.00  0.00    +0.247 C 
ATOM     12  O   UNL     1       6.704   1.584  -8.873  0.00  0.00    -0.270 OA
ATOM     13  H   UNL     1       8.514   2.136  -1.714  0.00  0.00    -0.086 HD
ATOM     14  H   UNL     1      10.114   2.279  -2.072  0.00  0.00    -0.086 HD
ENDROOT
BRANCH  11  15
ATOM     15  C   UNL     1       8.966   1.949  -8.411  0.00  0.00    +0.037 A 
ATOM     16  C   UNL     1      10.075   1.461  -7.720  0.00  0.00    +0.013 A 
ATOM     17  C   UNL     1      11.339   1.910  -8.044  0.00  0.00    +0.001 A 
ATOM     18  C   UNL     1      11.507   2.842  -9.053  0.00  0.00    +0.000 A 
ATOM     19  C   UNL     1      10.411   3.330  -9.742  0.00  0.00    +0.001 A 
ATOM     20  C   UNL     1       9.143   2.885  -9.431  0.00  0.00    +0.013 A 
ENDBRANCH  11  15
BRANCH   1  22
ATOM     21  N   UNL     1       4.692  -0.165  -3.001  0.00  0.00    -0.315 N 
ATOM     22  C   UNL     1       5.449  -0.431  -4.085  0.00  0.00    +0.218 C 
ATOM     23  O   UNL     1       5.699  -1.580  -4.382  0.00  0.00    -0.275 OA
ATOM     24  H   UNL     1       4.492   0.754  -2.763  0.00  0.00    +0.149 HD
BRANCH  21  25
ATOM     25  C   UNL     1       4.172  -1.263  -2.183  0.00  0.00    +0.109 C 
BRANCH  25  26
ATOM     26  C   UNL     1       3.352  -0.692  -1.025  0.00  0.00    +0.057 C 
BRANCH  26  32
ATOM     27  C   UNL     1       3.601  -2.373   0.819  0.00  0.00    +0.124 A 
ATOM     28  C   UNL     1       3.103  -3.409   1.595  0.00  0.00    +0.046 A 
ATOM     29  C   UNL     1       1.830  -3.894   1.365  0.00  0.00    +0.004 A 
ATOM     30  C   UNL     1       1.052  -3.346   0.361  0.00  0.00    +0.000 A 
ATOM     31  C   UNL     1       1.546  -2.314  -0.414  0.00  0.00    +0.007 A 
ATOM     32  C   UNL     1       2.816  -1.822  -0.184  0.00  0.00    -0.004 A 
BRANCH  27  33
ATOM     33  O   UNL     1       4.853  -1.894   1.044  0.00  0.00    -0.492 OA
BRANCH  33  35
ATOM     34  C   UNL     1       6.977  -1.843   2.196  0.00  0.00    +0.048 C 
ATOM     35  C   UNL     1       5.604  -2.509   2.092  0.00  0.00    +0.225 C 
ENDBRANCH  33  35
ENDBRANCH  27  33
ENDBRANCH  26  32
ENDBRANCH  25  26
ENDBRANCH  21  25
ENDBRANCH   1  22
TORSDOF 7
