REMARK  Name = ZINC02102026
REMARK  6 active torsions:
REMARK  status: ('A' for Active; 'I' for Inactive)
REMARK    1  A    between atoms: C_1  and  C_2
REMARK    2  A    between atoms: C_8  and  C_35
REMARK    3  A    between atoms: C_9  and  O_34
REMARK    4  A    between atoms: C_19  and  C_21
REMARK    5  A    between atoms: C_21  and  N_22
REMARK    6  A    between atoms: C_25  and  N_28
REMARK                            x       y       z     vdW  Elec       q    Type
REMARK                         _______ _______ _______ _____ _____    ______ ____
ROOT
ATOM      1  C   UNL     1      -0.142   1.395  -0.314  0.00  0.00    +0.008 C 
ATOM      2  C   UNL     1      -0.193  -0.119  -0.093  0.00  0.00    -0.001 C 
ATOM      3  C   UNL     1       0.553  -0.809  -1.234  0.00  0.00    +0.008 C 
ATOM      4  C   UNL     1       0.414  -2.325  -1.053  0.00  0.00    +0.027 C 
ATOM      5  C   UNL     1       0.932  -2.688   0.310  0.00  0.00    -0.027 C 
ATOM      6  C   UNL     1       0.944  -1.860   1.311  0.00  0.00    -0.061 C 
ATOM      7  C   UNL     1       0.449  -0.442   1.254  0.00  0.00    +0.018 C 
ATOM      8  C   UNL     1      -0.559  -0.215   2.374  0.00  0.00    +0.132 C 
ATOM      9  C   UNL     1      -0.283  -0.849   3.695  0.00  0.00    +0.071 C 
ATOM     10  C   UNL     1       0.396  -2.225   3.706  0.00  0.00    +0.187 C 
ATOM     11  C   UNL     1       1.489  -2.338   2.640  0.00  0.00    +0.076 C 
ATOM     12  O   UNL     1       1.098  -2.251   4.979  0.00  0.00    -0.460 OA
ATOM     13  C   UNL     1       1.542  -0.997   5.218  0.00  0.00    +0.309 C 
ATOM     14  O   UNL     1       2.608  -0.675   5.667  0.00  0.00    -0.251 OA
ATOM     15  C   UNL     1       0.409  -0.064   4.802  0.00  0.00    +0.090 C 
ATOM     16  C   UNL     1       1.648   0.498   1.415  0.00  0.00    +0.018 C 
ENDROOT
BRANCH   8  17
ATOM     17  O   UNL     1      -1.842  -0.704   1.932  0.00  0.00    -0.391 OA
ATOM     18  H   UNL     1      -2.548  -0.599   2.585  0.00  0.00    +0.210 HD
ENDBRANCH   8  17
BRANCH  15  19
ATOM     19  C   UNL     1       0.938   1.306   4.409  0.00  0.00    -0.064 C 
BRANCH  19  20
ATOM     20  N   UNL     1       1.461   1.988   5.599  0.00  0.00    +0.380 N 
ATOM     21  C   UNL     1       0.363   2.242   6.539  0.00  0.00    -0.080 C 
ATOM     22  C   UNL     1       0.915   2.880   7.815  0.00  0.00    -0.034 C 
ATOM     23  C   UNL     1       1.602   4.202   7.463  0.00  0.00    -0.072 C 
ATOM     24  C   UNL     1       2.697   3.936   6.426  0.00  0.00    -0.034 C 
ATOM     25  C   UNL     1       2.079   3.259   5.201  0.00  0.00    -0.080 C 
ATOM     26  H   UNL     1       2.154   1.404   6.044  0.00  0.00    -0.082 HD
BRANCH  23  27
ATOM     27  N   UNL     1       2.201   4.783   8.672  0.00  0.00    +0.381 N 
ATOM     28  C   UNL     1       1.152   5.019   9.670  0.00  0.00    -0.078 C 
ATOM     29  C   UNL     1       1.780   5.548  10.961  0.00  0.00    -0.019 C 
ATOM     30  C   UNL     1       2.512   6.861  10.666  0.00  0.00    -0.004 C 
ATOM     31  C   UNL     1       3.553   6.618   9.570  0.00  0.00    -0.019 C 
ATOM     32  C   UNL     1       2.859   6.050   8.330  0.00  0.00    -0.078 C 
ATOM     33  H   UNL     1       2.883   4.142   9.049  0.00  0.00    -0.081 HD
ENDBRANCH  23  27
ENDBRANCH  19  20
ENDBRANCH  15  19
TORSDOF 4
