REMARK  Name = ZINC20841612
REMARK  14 active torsions:
REMARK  status: ('A' for Active; 'I' for Inactive)
REMARK    1  A    between atoms: C_1  and  C_2
REMARK    2  A    between atoms: C_3  and  C_27
REMARK    3  A    between atoms: C_4  and  C_15
REMARK    4  A    between atoms: C_5  and  C_9
REMARK    5  A    between atoms: C_6  and  C_8
REMARK    6  A    between atoms: C_9  and  O_11
REMARK    7  A    between atoms: O_11  and  C_12
REMARK    8  A    between atoms: C_12  and  C_13
REMARK    9  A    between atoms: C_12  and  C_14
REMARK   10  A    between atoms: C_18  and  C_20
REMARK   11  A    between atoms: C_27  and  O_29
REMARK   12  A    between atoms: O_29  and  C_30
REMARK   13  A    between atoms: C_30  and  C_31
REMARK   14  A    between atoms: C_30  and  C_32
REMARK                            x       y       z     vdW  Elec       q    Type
REMARK                         _______ _______ _______ _____ _____    ______ ____
ROOT
ATOM      1  C   UNL     1       3.303  -4.728   2.363  0.00  0.00    +0.061 C 
ATOM      2  C   UNL     1       3.711  -3.988   1.115  0.00  0.00    +0.016 C 
ATOM      3  C   UNL     1       4.054  -2.691   1.194  0.00  0.00    +0.068 C 
ATOM      4  C   UNL     1       4.475  -1.916  -0.022  0.00  0.00    +0.132 C 
ATOM      5  C   UNL     1       4.080  -2.641  -1.277  0.00  0.00    +0.068 C 
ATOM      6  C   UNL     1       3.738  -3.940  -1.258  0.00  0.00    +0.016 C 
ATOM      7  N   UNL     1       3.728  -4.645  -0.085  0.00  0.00    -0.321 N 
ATOM      8  C   UNL     1       3.359  -4.629  -2.544  0.00  0.00    +0.061 C 
ATOM      9  H   UNL     1       3.734  -5.745  -0.110  0.00  0.00    +0.152 HD
ENDROOT
BRANCH   4  10
ATOM     10  C   UNL     1       3.813  -0.562  -0.002  0.00  0.00    +0.118 A 
ATOM     11  C   UNL     1       4.452   0.624   0.029  0.00  0.00    +0.046 A 
ATOM     12  C   UNL     1       3.461   1.626   0.039  0.00  0.00    +0.050 A 
ATOM     13  C   UNL     1       2.260   0.989   0.013  0.00  0.00    +0.135 A 
ATOM     14  O   UNL     1       2.489  -0.338  -0.006  0.00  0.00    -0.459 OA
BRANCH  13  15
ATOM     15  C   UNL     1       0.933   1.640   0.013  0.00  0.00    +0.018 A 
ATOM     16  C   UNL     1       0.835   3.032   0.041  0.00  0.00    +0.011 A 
ATOM     17  C   UNL     1      -0.406   3.634   0.040  0.00  0.00    +0.002 A 
ATOM     18  C   UNL     1      -1.554   2.861   0.012  0.00  0.00    +0.015 A 
ATOM     19  C   UNL     1      -1.464   1.480  -0.021  0.00  0.00    +0.019 A 
ATOM     20  C   UNL     1      -0.228   0.865  -0.015  0.00  0.00    +0.026 A 
ATOM     21 BR   UNL     1      -3.038   0.433  -0.067  0.00  0.00    -0.050 Br
ENDBRANCH  13  15
ENDBRANCH   4  10
BRANCH   5  22
ATOM     22  C   UNL     1       4.070  -1.942  -2.506  0.00  0.00    +0.338 C 
ATOM     23  O   UNL     1       3.752  -2.516  -3.530  0.00  0.00    -0.245 OA
BRANCH  22  24
ATOM     24  O   UNL     1       4.413  -0.637  -2.543  0.00  0.00    -0.459 OA
BRANCH  24  25
ATOM     25  C   UNL     1       4.380   0.007  -3.818  0.00  0.00    +0.171 C 
ATOM     26  C   UNL     1       2.992   0.605  -4.052  0.00  0.00    +0.052 C 
ATOM     27  C   UNL     1       5.428   1.121  -3.854  0.00  0.00    +0.052 C 
ENDBRANCH  24  25
ENDBRANCH  22  24
ENDBRANCH   5  22
BRANCH   3  28
ATOM     28  C   UNL     1       4.018  -2.042   2.450  0.00  0.00    +0.338 C 
ATOM     29  O   UNL     1       3.577  -2.623   3.424  0.00  0.00    -0.245 OA
BRANCH  28  30
ATOM     30  O   UNL     1       4.473  -0.777   2.569  0.00  0.00    -0.459 OA
BRANCH  30  31
ATOM     31  C   UNL     1       4.407  -0.183   3.867  0.00  0.00    +0.171 C 
ATOM     32  C   UNL     1       5.545   0.827   4.025  0.00  0.00    +0.052 C 
ATOM     33  C   UNL     1       3.064   0.532   4.033  0.00  0.00    +0.052 C 
ENDBRANCH  30  31
ENDBRANCH  28  30
ENDBRANCH   3  28
TORSDOF 8
