REMARK  Name = ZINC12899360
REMARK  11 active torsions:
REMARK  status: ('A' for Active; 'I' for Inactive)
REMARK    1  A    between atoms: C_1  and  C_2
REMARK    2  A    between atoms: C_4  and  C_30
REMARK    3  A    between atoms: C_6  and  C_29
REMARK    4  A    between atoms: C_7  and  S_8
REMARK    5  A    between atoms: S_8  and  N_11
REMARK    6  A    between atoms: C_17  and  C_19
REMARK    7  A    between atoms: C_19  and  C_20
REMARK    8  A    between atoms: C_20  and  C_21
REMARK    9  A    between atoms: C_30  and  C_31
REMARK   10  A    between atoms: C_30  and  C_32
REMARK   11  A    between atoms: C_30  and  C_33
REMARK                            x       y       z     vdW  Elec       q    Type
REMARK                         _______ _______ _______ _____ _____    ______ ____
ROOT
ATOM      1  N   UNL     1       1.825   0.535   0.763  0.00  0.00    -0.174 NA
ATOM      2  C   UNL     1       0.712  -0.306   1.225  0.00  0.00    +0.128 C 
ATOM      3  C   UNL     1      -0.264  -0.511   0.060  0.00  0.00    +0.125 C 
ATOM      4  N   UNL     1      -0.565   0.799  -0.535  0.00  0.00    -0.299 N 
ATOM      5  C   UNL     1       0.548   1.640  -0.997  0.00  0.00    +0.125 C 
ATOM      6  C   UNL     1       1.524   1.844   0.168  0.00  0.00    +0.128 C 
ATOM      7  C   UNL     1      -1.840   1.218  -0.660  0.00  0.00    +0.216 C 
ATOM      8  O   UNL     1      -2.751   0.513  -0.280  0.00  0.00    -0.276 OA
ENDROOT
BRANCH   1   9
ATOM      9  S   UNL     1       3.391   0.016   0.910  0.00  0.00    +0.061 S 
ATOM     10  O   UNL     1       4.191   1.180   1.073  0.00  0.00    -0.153 OA
ATOM     11  O   UNL     1       3.381  -1.040   1.860  0.00  0.00    -0.153 OA
BRANCH   9  18
ATOM     12  C   UNL     1       5.014   1.442  -1.207  0.00  0.00    +0.046 C 
ATOM     13  C   UNL     1       4.595   0.033  -1.539  0.00  0.00    -0.024 A 
ATOM     14  C   UNL     1       4.959  -0.529  -2.749  0.00  0.00    +0.009 A 
ATOM     15  C   UNL     1       4.570  -1.819  -3.056  0.00  0.00    -0.041 A 
ATOM     16  C   UNL     1       3.821  -2.549  -2.152  0.00  0.00    +0.009 A 
ATOM     17  C   UNL     1       3.461  -1.989  -0.941  0.00  0.00    -0.024 A 
ATOM     18  C   UNL     1       3.850  -0.698  -0.633  0.00  0.00    +0.111 A 
ATOM     19  C   UNL     1       2.644  -2.784   0.044  0.00  0.00    +0.046 C 
BRANCH  15  20
ATOM     20  C   UNL     1       4.963  -2.431  -4.376  0.00  0.00    -0.013 C 
ATOM     21  C   UNL     1       3.704  -2.808  -5.159  0.00  0.00    +0.015 C 
ATOM     22  C   UNL     1       5.782  -1.420  -5.183  0.00  0.00    +0.015 C 
ATOM     23  C   UNL     1       5.804  -3.685  -4.128  0.00  0.00    +0.015 C 
ENDBRANCH  15  20
ENDBRANCH   9  18
ENDBRANCH   1   9
BRANCH   7  24
ATOM     24  C   UNL     1      -2.134   2.563  -1.273  0.00  0.00    +0.098 C 
BRANCH  24  25
ATOM     25  C   UNL     1      -3.646   2.794  -1.296  0.00  0.00    +0.041 C 
BRANCH  25  26
ATOM     26  C   UNL     1      -3.945   4.160  -1.918  0.00  0.00    +0.161 C 
ATOM     27  C   UNL     1      -5.441   4.385  -2.018  0.00  0.00    +0.241 C 
ATOM     28  O   UNL     1      -6.239   3.727  -2.650  0.00  0.00    -0.273 OA
ATOM     29  N   UNL     1      -5.698   5.467  -1.258  0.00  0.00    -0.239 N 
ATOM     30  C   UNL     1      -4.585   5.953  -0.698  0.00  0.00    +0.307 C 
ATOM     31  O   UNL     1      -4.564   6.926   0.030  0.00  0.00    -0.252 OA
ATOM     32  N   UNL     1      -3.487   5.244  -1.031  0.00  0.00    -0.288 N 
ATOM     33  H   UNL     1      -6.582   5.848  -1.133  0.00  0.00    +0.159 HD
ATOM     34  H   UNL     1      -2.576   5.412  -0.744  0.00  0.00    +0.151 HD
ENDBRANCH  25  26
ENDBRANCH  24  25
ENDBRANCH   7  24
TORSDOF 6
