REMARK  Name = ZINC36552367
REMARK  10 active torsions:
REMARK  status: ('A' for Active; 'I' for Inactive)
REMARK    1  A    between atoms: C_1  and  C_2
REMARK    2  A    between atoms: C_5  and  S_8
REMARK    3  A    between atoms: S_8  and  C_11
REMARK    4  A    between atoms: C_11  and  N_12
REMARK    5  A    between atoms: C_13  and  C_15
REMARK    6  A    between atoms: C_15  and  C_17
REMARK    7  A    between atoms: C_15  and  N_24
REMARK    8  A    between atoms: N_24  and  C_25
REMARK    9  A    between atoms: C_32  and  C_34
REMARK   10  A    between atoms: C_34  and  O_35
REMARK                            x       y       z     vdW  Elec       q    Type
REMARK                         _______ _______ _______ _____ _____    ______ ____
ROOT
ATOM      1  C   UNL     1       3.414  -4.873   3.814  0.00  0.00    +0.197 C 
ENDROOT
BRANCH   1   2
ATOM      2  C   UNL     1       2.881  -4.093   4.987  0.00  0.00    -0.018 A 
ATOM      3  C   UNL     1       1.804  -4.576   5.707  0.00  0.00    +0.007 A 
ATOM      4  C   UNL     1       1.314  -3.861   6.783  0.00  0.00    +0.020 A 
ATOM      5  C   UNL     1       1.901  -2.661   7.141  0.00  0.00    +0.041 A 
ATOM      6  C   UNL     1       2.979  -2.177   6.420  0.00  0.00    +0.020 A 
ATOM      7  C   UNL     1       3.472  -2.896   5.348  0.00  0.00    +0.007 A 
ATOM      8 CL   UNL     1       1.286  -1.761   8.492  0.00  0.00    -0.084 Cl
ENDBRANCH   1   2
BRANCH   1  10
ATOM      9  N   UNL     1       3.337  -2.834   2.416  0.00  0.00    -0.294 N 
ATOM     10  C   UNL     1       3.076  -4.151   2.535  0.00  0.00    +0.240 C 
ATOM     11  O   UNL     1       2.570  -4.755   1.613  0.00  0.00    -0.273 OA
ATOM     12  H   UNL     1       3.742  -2.351   3.153  0.00  0.00    +0.150 HD
BRANCH   9  13
ATOM     13  C   UNL     1       3.008  -2.133   1.172  0.00  0.00    +0.278 C 
BRANCH  13  14
ATOM     14  S   UNL     1       1.377  -1.354   1.330  0.00  0.00    +0.013 S 
ATOM     15  O   UNL     1       0.443  -2.280   1.868  0.00  0.00    -0.168 OA
ATOM     16  O   UNL     1       1.071  -0.616   0.155  0.00  0.00    -0.168 OA
BRANCH  14  21
ATOM     17  C   UNL     1       2.058   2.820   5.633  0.00  0.00    +0.044 C 
ATOM     18  C   UNL     1       1.888   1.777   4.559  0.00  0.00    -0.050 A 
ATOM     19  C   UNL     1       2.115   2.106   3.235  0.00  0.00    +0.005 A 
ATOM     20  C   UNL     1       1.960   1.149   2.249  0.00  0.00    +0.027 A 
ATOM     21  C   UNL     1       1.577  -0.136   2.587  0.00  0.00    +0.090 A 
ATOM     22  C   UNL     1       1.350  -0.464   3.910  0.00  0.00    +0.027 A 
ATOM     23  C   UNL     1       1.510   0.491   4.897  0.00  0.00    +0.005 A 
ENDBRANCH  14  21
ENDBRANCH  13  14
ENDBRANCH   9  13
ENDBRANCH   1  10
BRANCH   1  24
ATOM     24  N   UNL     1       2.807  -6.206   3.797  0.00  0.00    -0.253 N 
ATOM     25  C   UNL     1       1.499  -6.347   3.507  0.00  0.00    +0.246 C 
ATOM     26  O   UNL     1       0.861  -5.397   3.105  0.00  0.00    -0.273 OA
BRANCH  24  27
ATOM     27  C   UNL     1       3.586  -7.333   4.083  0.00  0.00    +0.039 A 
ATOM     28  C   UNL     1       4.920  -7.373   3.699  0.00  0.00    +0.023 A 
ATOM     29  C   UNL     1       5.686  -8.487   3.982  0.00  0.00    +0.003 A 
ATOM     30  C   UNL     1       5.127  -9.562   4.648  0.00  0.00    +0.020 A 
ATOM     31  C   UNL     1       3.797  -9.526   5.032  0.00  0.00    +0.043 A 
ATOM     32  C   UNL     1       3.027  -8.411   4.757  0.00  0.00    +0.043 A 
ATOM     33 CL   UNL     1       3.099 -10.879   5.867  0.00  0.00    -0.083 Cl
ENDBRANCH  24  27
BRANCH  25  34
ATOM     34  C   UNL     1       0.828  -7.686   3.680  0.00  0.00    +0.252 C 
BRANCH  34  35
ATOM     35  O   UNL     1      -0.238  -7.810   2.737  0.00  0.00    -0.386 OA
ATOM     36  H   UNL     1      -0.716  -8.649   2.792  0.00  0.00    +0.210 HD
ENDBRANCH  34  35
ENDBRANCH  25  34
ENDBRANCH   1  24
TORSDOF 9
