REMARK  Name = ZINC39745942
REMARK  6 active torsions:
REMARK  status: ('A' for Active; 'I' for Inactive)
REMARK    1  A    between atoms: C_1  and  C_2
REMARK    2  A    between atoms: C_10  and  C_14
REMARK    3  A    between atoms: C_14  and  C_16
REMARK    4  A    between atoms: C_14  and  N_17
REMARK    5  A    between atoms: N_20  and  C_23
REMARK    6  A    between atoms: C_23  and  C_24
REMARK                            x       y       z     vdW  Elec       q    Type
REMARK                         _______ _______ _______ _____ _____    ______ ____
ROOT
ATOM      1  C   UNL     1      -1.840  -6.069   5.162  0.00  0.00    +0.119 C 
ATOM      2  C   UNL     1      -0.829  -7.169   5.490  0.00  0.00    +0.032 C 
ENDROOT
BRANCH   1  11
ATOM      3  C   UNL     1      -0.511  -1.514  13.226  0.00  0.00    +0.007 C 
ATOM      4  C   UNL     1      -0.986  -1.350  11.780  0.00  0.00    -0.012 C 
ATOM      5  C   UNL     1      -2.314  -2.082  11.602  0.00  0.00    +0.008 C 
ATOM      6  C   UNL     1      -2.856  -1.867  10.183  0.00  0.00    +0.033 C 
ATOM      7  C   UNL     1      -1.738  -2.266   9.223  0.00  0.00    -0.042 C 
ATOM      8  C   UNL     1      -1.859  -3.160   8.241  0.00  0.00    +0.071 C 
ATOM      9  C   UNL     1      -0.631  -3.580   7.516  0.00  0.00    +0.112 C 
ATOM     10  N   UNL     1      -0.651  -4.486   6.566  0.00  0.00    -0.226 NA
ATOM     11  C   UNL     1      -1.827  -5.032   6.256  0.00  0.00    +0.140 C 
ATOM     12  N   UNL     1      -2.970  -4.742   6.822  0.00  0.00    -0.160 NA
ATOM     13  C   UNL     1      -3.124  -3.845   7.812  0.00  0.00    +0.271 C 
ATOM     14  O   UNL     1      -4.207  -3.607   8.322  0.00  0.00    -0.268 OA
ATOM     15  S   UNL     1       0.664  -2.613   8.225  0.00  0.00    -0.097 S 
ATOM     16  C   UNL     1      -0.355  -1.633   9.393  0.00  0.00    +0.080 C 
ATOM     17  C   UNL     1       0.080  -1.911  10.834  0.00  0.00    +0.022 C 
ENDBRANCH   1  11
BRANCH   1  18
ATOM     18  N   UNL     1      -3.183  -6.653   5.058  0.00  0.00    -0.297 NA
ATOM     19  C   UNL     1      -3.335  -7.404   3.804  0.00  0.00    +0.066 C 
ATOM     20  C   UNL     1      -4.763  -7.946   3.706  0.00  0.00    -0.063 C 
ATOM     21  N   UNL     1      -5.035  -8.819   4.856  0.00  0.00    +0.384 N 
ATOM     22  C   UNL     1      -4.904  -8.049   6.100  0.00  0.00    -0.063 C 
ATOM     23  C   UNL     1      -3.477  -7.508   6.217  0.00  0.00    +0.066 C 
ATOM     24  H   UNL     1      -4.375  -9.582   4.862  0.00  0.00    -0.081 HD
BRANCH  21  25
ATOM     25  C   UNL     1      -6.400  -9.353   4.753  0.00  0.00    -0.043 C 
BRANCH  25  26
ATOM     26  C   UNL     1      -6.637 -10.343   5.863  0.00  0.00    -0.060 A 
ATOM     27  C   UNL     1      -6.341 -11.680   5.671  0.00  0.00    +0.005 A 
ATOM     28  C   UNL     1      -6.557 -12.592   6.687  0.00  0.00    +0.050 A 
ATOM     29  C   UNL     1      -7.071 -12.168   7.901  0.00  0.00    +0.166 A 
ATOM     30  C   UNL     1      -7.369 -10.822   8.096  0.00  0.00    +0.166 A 
ATOM     31  C   UNL     1      -7.145  -9.912   7.075  0.00  0.00    +0.051 A 
ATOM     32  O   UNL     1      -7.856 -10.661   9.360  0.00  0.00    -0.453 OA
ATOM     33  C   UNL     1      -8.237 -11.979   9.796  0.00  0.00    +0.466 C 
ATOM     34  O   UNL     1      -7.372 -12.851   9.044  0.00  0.00    -0.453 OA
ENDBRANCH  25  26
ENDBRANCH  21  25
ENDBRANCH   1  18
TORSDOF 4
