REMARK  Name = ZINC35926775
REMARK  7 active torsions:
REMARK  status: ('A' for Active; 'I' for Inactive)
REMARK    1  A    between atoms: C_1  and  C_2
REMARK    2  A    between atoms: C_2  and  C_3
REMARK    3  A    between atoms: C_3  and  C_4
REMARK    4  A    between atoms: C_4  and  N_5
REMARK    5  A    between atoms: C_20  and  C_22
REMARK    6  A    between atoms: C_22  and  N_23
REMARK    7  A    between atoms: N_26  and  C_29
REMARK                            x       y       z     vdW  Elec       q    Type
REMARK                         _______ _______ _______ _____ _____    ______ ____
ROOT
ATOM      1  N   UNL     1      -2.000  -4.749  -2.410  0.00  0.00    -0.299 N 
ATOM      2  C   UNL     1      -3.037  -3.888  -2.379  0.00  0.00    +0.302 C 
ATOM      3  O   UNL     1      -2.833  -2.695  -2.269  0.00  0.00    -0.253 OA
ATOM      4  N   UNL     1      -4.300  -4.351  -2.472  0.00  0.00    -0.283 N 
ATOM      5  C   UNL     1      -4.568  -5.796  -2.481  0.00  0.00    +0.128 C 
ATOM      6  C   UNL     1      -5.560  -6.118  -1.357  0.00  0.00    +0.127 C 
ATOM      7  N   UNL     1      -6.693  -5.186  -1.449  0.00  0.00    -0.298 N 
ATOM      8  C   UNL     1      -6.424  -3.741  -1.439  0.00  0.00    +0.127 C 
ATOM      9  C   UNL     1      -5.433  -3.419  -2.558  0.00  0.00    +0.128 C 
ATOM     10  C   UNL     1      -7.975  -5.656  -1.542  0.00  0.00    +0.199 A 
ATOM     11  N   UNL     1      -8.207  -6.992  -1.433  0.00  0.00    -0.295 N 
ATOM     12  H   UNL     1      -7.469  -7.604  -1.290  0.00  0.00    +0.172 HD
ATOM     13  C   UNL     1      -9.469  -7.463  -1.524  0.00  0.00    +0.253 A 
ATOM     14  O   UNL     1      -9.696  -8.658  -1.427  0.00  0.00    -0.268 OA
ATOM     15  C   UNL     1     -10.518  -6.549  -1.731  0.00  0.00    +0.094 A 
ATOM     16  C   UNL     1     -10.225  -5.221  -1.833  0.00  0.00    +0.064 A 
ATOM     17  N   UNL     1      -8.964  -4.805  -1.732  0.00  0.00    -0.219 NA
ATOM     18  H   UNL     1      -2.164  -5.705  -2.425  0.00  0.00    +0.150 HD
ENDROOT
BRANCH   1  19
ATOM     19  C   UNL     1      -0.626  -4.240  -2.419  0.00  0.00    +0.106 C 
BRANCH  19  20
ATOM     20  C   UNL     1       0.352  -5.416  -2.454  0.00  0.00    +0.018 C 
BRANCH  20  22
ATOM     21  C   UNL     1       2.766  -6.061  -2.500  0.00  0.00    +0.004 C 
ATOM     22  C   UNL     1       1.787  -4.885  -2.465  0.00  0.00    -0.002 C 
ENDBRANCH  20  22
ENDBRANCH  19  20
ENDBRANCH   1  19
BRANCH  16  23
ATOM     23  C   UNL     1     -11.331  -4.221  -2.055  0.00  0.00    +0.140 C 
BRANCH  23  24
ATOM     24  N   UNL     1     -11.434  -3.337  -0.887  0.00  0.00    -0.300 NA
ATOM     25  C   UNL     1     -11.876  -4.082   0.300  0.00  0.00    +0.066 C 
ATOM     26  C   UNL     1     -11.913  -3.140   1.506  0.00  0.00    -0.063 C 
ATOM     27  N   UNL     1     -12.834  -2.029   1.232  0.00  0.00    +0.383 N 
ATOM     28  C   UNL     1     -12.366  -1.280   0.058  0.00  0.00    -0.063 C 
ATOM     29  C   UNL     1     -12.333  -2.207  -1.159  0.00  0.00    +0.066 C 
ATOM     30  H   UNL     1     -13.757  -2.395   1.050  0.00  0.00    -0.081 HD
BRANCH  27  31
ATOM     31  C   UNL     1     -12.883  -1.135   2.396  0.00  0.00    -0.068 C 
ATOM     32  C   UNL     1     -13.373  -1.915   3.618  0.00  0.00    -0.015 C 
ATOM     33  C   UNL     1     -13.424  -0.983   4.830  0.00  0.00    -0.002 C 
ATOM     34  C   UNL     1     -14.384   0.174   4.545  0.00  0.00    -0.000 C 
ATOM     35  C   UNL     1     -13.894   0.954   3.323  0.00  0.00    -0.002 C 
ATOM     36  C   UNL     1     -13.843   0.022   2.111  0.00  0.00    -0.015 C 
ENDBRANCH  27  31
ENDBRANCH  23  24
ENDBRANCH  16  23
TORSDOF 6
