REMARK  Name = ZINC08694976
REMARK  6 active torsions:
REMARK  status: ('A' for Active; 'I' for Inactive)
REMARK    1  A    between atoms: C_1  and  C_2
REMARK    2  A    between atoms: C_6  and  C_8
REMARK    3  A    between atoms: C_8  and  N_9
REMARK    4  A    between atoms: C_10  and  C_11
REMARK    5  A    between atoms: C_10  and  C_27
REMARK    6  A    between atoms: N_17  and  C_20
REMARK                            x       y       z     vdW  Elec       q    Type
REMARK                         _______ _______ _______ _____ _____    ______ ____
ROOT
ATOM      1  C   UNL     1      -4.705   0.394   3.071  0.00  0.00    +0.205 C 
ATOM      2  C   UNL     1      -3.629   0.303   4.075  0.00  0.00    +0.238 C 
ATOM      3  O   UNL     1      -2.537   0.799   3.867  0.00  0.00    -0.274 OA
ATOM      4  N   UNL     1      -3.887  -0.344   5.229  0.00  0.00    -0.238 N 
ATOM      5  C   UNL     1      -5.085  -0.895   5.471  0.00  0.00    +0.319 C 
ATOM      6  O   UNL     1      -5.253  -1.464   6.532  0.00  0.00    -0.251 OA
ATOM      7  N   UNL     1      -6.107  -0.851   4.605  0.00  0.00    -0.193 N 
ATOM      8  C   UNL     1      -5.995  -0.231   3.413  0.00  0.00    +0.245 C 
ATOM      9  O   UNL     1      -6.932  -0.193   2.638  0.00  0.00    -0.274 OA
ATOM     10  H   UNL     1      -3.189  -0.413   5.900  0.00  0.00    +0.159 HD
ENDROOT
BRANCH   7  11
ATOM     11  C   UNL     1      -7.323  -1.458   4.950  0.00  0.00    +0.045 A 
ATOM     12  C   UNL     1      -7.617  -2.735   4.493  0.00  0.00    +0.025 A 
ATOM     13  C   UNL     1      -8.812  -3.333   4.839  0.00  0.00    +0.017 A 
ATOM     14  C   UNL     1      -9.723  -2.655   5.630  0.00  0.00    +0.018 A 
ATOM     15  C   UNL     1      -9.435  -1.380   6.082  0.00  0.00    +0.017 A 
ATOM     16  C   UNL     1      -8.238  -0.780   5.744  0.00  0.00    +0.025 A 
ATOM     17 BR   UNL     1     -11.363  -3.474   6.095  0.00  0.00    -0.050 Br
ENDBRANCH   7  11
BRANCH   1  19
ATOM     18  N   UNL     1      -3.297   1.525   1.545  0.00  0.00    -0.287 NA
ATOM     19  C   UNL     1      -4.514   1.042   1.865  0.00  0.00    +0.032 C 
ATOM     20  C   UNL     1      -5.666   1.208   0.908  0.00  0.00    +0.061 C 
BRANCH  18  21
ATOM     21  C   UNL     1      -3.094   2.212   0.267  0.00  0.00    +0.176 C 
BRANCH  21  27
ATOM     22  C   UNL     1       1.619   1.298  -1.147  0.00  0.00    +0.044 C 
ATOM     23  C   UNL     1       0.598   2.213  -0.522  0.00  0.00    -0.050 A 
ATOM     24  C   UNL     1       0.979   3.458  -0.057  0.00  0.00    +0.003 A 
ATOM     25  C   UNL     1       0.042   4.298   0.515  0.00  0.00    +0.001 A 
ATOM     26  C   UNL     1      -1.275   3.893   0.624  0.00  0.00    +0.005 A 
ATOM     27  C   UNL     1      -1.657   2.651   0.154  0.00  0.00    -0.026 A 
ATOM     28  C   UNL     1      -0.719   1.808  -0.414  0.00  0.00    +0.008 A 
ENDBRANCH  21  27
ENDBRANCH  18  21
ENDBRANCH   1  19
TORSDOF 4
