REMARK  Name = ZINC39887814
REMARK  6 active torsions:
REMARK  status: ('A' for Active; 'I' for Inactive)
REMARK    1  A    between atoms: C_4  and  N_7
REMARK    2  A    between atoms: C_8  and  C_10
REMARK    3  A    between atoms: C_10  and  C_11
REMARK    4  A    between atoms: N_17  and  N_18
REMARK    5  A    between atoms: C_19  and  C_20
REMARK    6  A    between atoms: C_23  and  C_25
REMARK                            x       y       z     vdW  Elec       q    Type
REMARK                         _______ _______ _______ _____ _____    ______ ____
ROOT
ATOM      1  C   UNL     1       4.708  -4.227   0.249  0.00  0.00    +0.149 C 
ATOM      2  C   UNL     1       6.012  -4.998   0.377  0.00  0.00    +0.233 C 
ATOM      3  O   UNL     1       6.760  -4.848   1.320  0.00  0.00    -0.274 OA
ATOM      4  N   UNL     1       6.280  -5.843  -0.605  0.00  0.00    -0.263 N 
ATOM      5  C   UNL     1       5.436  -6.019  -1.681  0.00  0.00    +0.183 C 
ATOM      6  N   UNL     1       5.590  -6.823  -2.712  0.00  0.00    -0.127 NA
ATOM      7  S   UNL     1       4.081  -4.901  -1.345  0.00  0.00    -0.075 S 
ATOM      8  H   UNL     1       7.101  -6.357  -0.567  0.00  0.00    +0.157 HD
ENDROOT
BRANCH   6   9
ATOM      9  N   UNL     1       6.638  -7.570  -2.796  0.00  0.00    -0.152 NA
ATOM     10  C   UNL     1       6.791  -8.370  -3.822  0.00  0.00    +0.181 C 
BRANCH  10  11
ATOM     11  C   UNL     1       7.943  -9.191  -3.915  0.00  0.00    +0.148 A 
ATOM     12  C   UNL     1       8.231 -10.070  -4.939  0.00  0.00    +0.051 A 
ATOM     13  C   UNL     1       9.458 -10.667  -4.625  0.00  0.00    +0.050 A 
ATOM     14  C   UNL     1       9.869 -10.139  -3.437  0.00  0.00    +0.137 A 
ATOM     15  O   UNL     1       8.951  -9.245  -3.020  0.00  0.00    -0.454 OA
BRANCH  14  16
ATOM     16  C   UNL     1      11.117 -10.484  -2.727  0.00  0.00    +0.037 A 
ATOM     17  C   UNL     1      11.451 -11.822  -2.506  0.00  0.00    +0.033 A 
ATOM     18  C   UNL     1      12.619 -12.138  -1.842  0.00  0.00    +0.042 A 
ATOM     19  C   UNL     1      13.459 -11.131  -1.395  0.00  0.00    +0.021 A 
ATOM     20  C   UNL     1      13.134  -9.804  -1.611  0.00  0.00    +0.022 A 
ATOM     21  C   UNL     1      11.972  -9.473  -2.279  0.00  0.00    +0.052 A 
ATOM     22 CL   UNL     1      11.571  -7.807  -2.554  0.00  0.00    -0.083 Cl
ATOM     23 CL   UNL     1      13.036 -13.800  -1.565  0.00  0.00    -0.084 Cl
ENDBRANCH  14  16
ENDBRANCH  10  11
ENDBRANCH   6   9
BRANCH   1  24
ATOM     24  C   UNL     1       4.962  -2.721   0.153  0.00  0.00    +0.120 C 
BRANCH  24  26
ATOM     25  N   UNL     1       3.622  -0.651  -0.037  0.00  0.00    -0.285 N 
ATOM     26  C   UNL     1       3.645  -1.995   0.057  0.00  0.00    +0.219 C 
ATOM     27  O   UNL     1       2.606  -2.620   0.064  0.00  0.00    -0.275 OA
ATOM     28  H   UNL     1       4.452  -0.156  -0.121  0.00  0.00    +0.155 HD
BRANCH  25  32
ATOM     29  C   UNL     1      -0.015   1.381   0.029  0.00  0.00    +0.000 A 
ATOM     30  C   UNL     1       0.140   0.218   0.763  0.00  0.00    +0.002 A 
ATOM     31  C   UNL     1       1.344  -0.457   0.743  0.00  0.00    +0.023 A 
ATOM     32  C   UNL     1       2.400   0.031  -0.015  0.00  0.00    +0.033 A 
ATOM     33  C   UNL     1       2.241   1.198  -0.751  0.00  0.00    +0.023 A 
ATOM     34  C   UNL     1       1.034   1.870  -0.727  0.00  0.00    +0.002 A 
ENDBRANCH  25  32
ENDBRANCH  24  26
ENDBRANCH   1  24
TORSDOF 6
