REMARK  Name = ZINC39594977
REMARK  8 active torsions:
REMARK  status: ('A' for Active; 'I' for Inactive)
REMARK    1  A    between atoms: C_1  and  O_2
REMARK    2  A    between atoms: O_2  and  C_3
REMARK    3  A    between atoms: C_4  and  C_9
REMARK    4  A    between atoms: C_13  and  C_22
REMARK    5  A    between atoms: N_24  and  C_25
REMARK    6  A    between atoms: C_25  and  C_26
REMARK    7  A    between atoms: C_26  and  C_28
REMARK    8  A    between atoms: C_26  and  N_34
REMARK                            x       y       z     vdW  Elec       q    Type
REMARK                         _______ _______ _______ _____ _____    ______ ____
ROOT
ATOM      1  C   UNL     1      -1.099  -0.610   2.804  0.00  0.00    +0.251 C 
ATOM      2  O   UNL     1      -1.535  -0.817   1.687  0.00  0.00    -0.270 OA
ATOM      3  N   UNL     1      -1.771  -1.058   3.883  0.00  0.00    -0.296 N 
ATOM      4  C   UNL     1      -2.991  -1.899   3.909  0.00  0.00    +0.121 C 
ATOM      5  C   UNL     1      -2.765  -2.878   5.083  0.00  0.00    +0.100 C 
ATOM      6  C   UNL     1      -1.758  -2.165   6.001  0.00  0.00    -0.004 C 
ATOM      7  C   UNL     1      -1.452  -0.827   5.312  0.00  0.00    +0.115 C 
ATOM      8  C   UNL     1      -0.481  -2.990   6.128  0.00  0.00    -0.010 C 
ATOM      9  C   UNL     1       0.481  -2.289   7.090  0.00  0.00    -0.082 C 
ATOM     10  N   UNL     1      -0.160  -2.137   8.402  0.00  0.00    +0.379 N 
ATOM     11  C   UNL     1      -1.335  -1.266   8.287  0.00  0.00    -0.082 C 
ATOM     12  C   UNL     1      -2.374  -1.924   7.376  0.00  0.00    -0.010 C 
ATOM     13  H   UNL     1      -0.446  -3.043   8.742  0.00  0.00    -0.086 HD
ATOM     14  H   UNL     1       0.497  -1.730   9.051  0.00  0.00    -0.086 HD
ENDROOT
BRANCH   1  16
ATOM     15  C   UNL     1       1.254  -0.011   2.043  0.00  0.00    +0.158 A 
ATOM     16  C   UNL     1       0.160   0.130   2.976  0.00  0.00    +0.087 A 
ATOM     17  C   UNL     1       0.352   0.990   4.035  0.00  0.00    +0.063 A 
ATOM     18  S   UNL     1       1.904   1.585   3.809  0.00  0.00    -0.081 S 
ATOM     19  C   UNL     1       2.357   0.722   2.320  0.00  0.00    +0.120 A 
ATOM     20 CL   UNL     1       3.849   0.801   1.437  0.00  0.00    -0.072 Cl
BRANCH  15  22
ATOM     21  C   UNL     1       1.611  -2.183   1.138  0.00  0.00    +0.277 C 
ATOM     22  O   UNL     1       1.182  -0.832   0.959  0.00  0.00    -0.492 OA
ENDBRANCH  15  22
ENDBRANCH   1  16
BRANCH   5  23
ATOM     23  C   UNL     1      -4.059  -3.129   5.814  0.00  0.00    +0.218 C 
ATOM     24  O   UNL     1      -4.944  -2.300   5.782  0.00  0.00    -0.275 OA
ATOM     25  N   UNL     1      -4.233  -4.274   6.503  0.00  0.00    -0.316 N 
ATOM     26  H   UNL     1      -3.526  -4.937   6.528  0.00  0.00    +0.149 HD
BRANCH  25  27
ATOM     27  C   UNL     1      -5.491  -4.517   7.213  0.00  0.00    +0.093 C 
BRANCH  27  28
ATOM     28  C   UNL     1      -5.478  -5.928   7.805  0.00  0.00    -0.019 C 
BRANCH  28  29
ATOM     29  C   UNL     1      -4.413  -6.017   8.868  0.00  0.00    -0.041 A 
ATOM     30  C   UNL     1      -3.181  -6.586   8.581  0.00  0.00    +0.005 A 
ATOM     31  C   UNL     1      -2.232  -6.647   9.589  0.00  0.00    +0.020 A 
ATOM     32  C   UNL     1      -2.542  -6.141  10.838  0.00  0.00    +0.111 A 
ATOM     33  N   UNL     1      -3.724  -5.608  11.075  0.00  0.00    -0.263 NA
ATOM     34  C   UNL     1      -4.649  -5.528  10.138  0.00  0.00    +0.112 A 
ENDBRANCH  28  29
BRANCH  28  35
ATOM     35  N   UNL     1      -6.788  -6.222   8.400  0.00  0.00    +0.385 N 
ATOM     36  C   UNL     1      -7.821  -6.327   7.338  0.00  0.00    -0.078 C 
ATOM     37  C   UNL     1      -8.939  -7.161   8.011  0.00  0.00    -0.020 C 
ATOM     38  C   UNL     1      -8.146  -8.182   8.860  0.00  0.00    -0.020 C 
ATOM     39  C   UNL     1      -6.761  -7.541   9.068  0.00  0.00    -0.078 C 
ATOM     40  H   UNL     1      -7.040  -5.502   9.061  0.00  0.00    -0.081 HD
ENDBRANCH  28  35
ENDBRANCH  27  28
ENDBRANCH  25  27
ENDBRANCH   5  23
TORSDOF 7
