REMARK  Name = ZINC36821210
REMARK  11 active torsions:
REMARK  status: ('A' for Active; 'I' for Inactive)
REMARK    1  A    between atoms: C_1  and  C_2
REMARK    2  A    between atoms: C_2  and  C_3
REMARK    3  A    between atoms: C_3  and  C_4
REMARK    4  A    between atoms: C_4  and  N_5
REMARK    5  A    between atoms: C_9  and  C_33
REMARK    6  A    between atoms: C_10  and  C_32
REMARK    7  A    between atoms: C_14  and  S_15
REMARK    8  A    between atoms: S_15  and  C_16
REMARK    9  A    between atoms: C_16  and  C_17
REMARK   10  A    between atoms: C_19  and  O_20
REMARK   11  A    between atoms: C_29  and  C_31
REMARK                            x       y       z     vdW  Elec       q    Type
REMARK                         _______ _______ _______ _____ _____    ______ ____
ROOT
ATOM      1  C   UNL     1      -4.084  -2.871  -4.149  0.00  0.00    +0.113 C 
ENDROOT
BRANCH   1   2
ATOM      2  C   UNL     1      -3.307  -2.647  -5.420  0.00  0.00    -0.020 A 
ATOM      3  C   UNL     1      -3.014  -1.369  -5.853  0.00  0.00    +0.092 A 
ATOM      4  C   UNL     1      -2.297  -1.183  -7.026  0.00  0.00    +0.285 A 
ATOM      5  O   UNL     1      -1.878  -2.220  -7.758  0.00  0.00    -0.425 OA
ATOM      6  C   UNL     1      -2.136  -3.490  -7.382  0.00  0.00    +0.141 A 
ATOM      7  C   UNL     1      -2.857  -3.739  -6.193  0.00  0.00    +0.022 A 
ATOM      8  C   UNL     1      -3.124  -5.061  -5.794  0.00  0.00    +0.013 A 
ATOM      9  C   UNL     1      -2.683  -6.099  -6.552  0.00  0.00    +0.024 A 
ATOM     10  C   UNL     1      -1.960  -5.861  -7.734  0.00  0.00    +0.037 A 
ATOM     11  C   UNL     1      -1.697  -4.554  -8.148  0.00  0.00    +0.070 A 
ATOM     12  N   UNL     1      -1.523  -6.910  -8.483  0.00  0.00    -0.286 N 
ATOM     13  C   UNL     1      -0.593  -6.724  -9.400  0.00  0.00    +0.214 C 
ATOM     14  O   UNL     1      -0.038  -5.644  -9.493  0.00  0.00    -0.276 OA
ATOM     15  C   UNL     1      -0.217  -7.847 -10.331  0.00  0.00    +0.109 C 
ATOM     16  H   UNL     1      -1.896  -7.795  -8.344  0.00  0.00    +0.155 HD
BRANCH   4  17
ATOM     17  O   UNL     1      -2.019   0.069  -7.437  0.00  0.00    -0.480 OA
ATOM     18  H   UNL     1      -1.517   0.110  -8.262  0.00  0.00    +0.295 HD
ENDBRANCH   4  17
ENDBRANCH   1   2
BRANCH   1  19
ATOM     19  S   UNL     1      -3.012  -2.549  -2.721  0.00  0.00    -0.083 S 
BRANCH  19  29
ATOM     20  N   UNL     1      -3.552  -2.697  -0.070  0.00  0.00    -0.287 N 
ATOM     21  C   UNL     1      -4.318  -2.912   1.015  0.00  0.00    +0.263 A 
ATOM     22  O   UNL     1      -3.858  -2.766   2.135  0.00  0.00    -0.267 OA
ATOM     23  C   UNL     1      -5.679  -3.314   0.839  0.00  0.00    +0.075 A 
ATOM     24  C   UNL     1      -6.691  -3.602   1.841  0.00  0.00    -0.026 A 
ATOM     25  C   UNL     1      -7.920  -3.966   1.447  0.00  0.00    -0.008 A 
ATOM     26  S   UNL     1      -7.805  -3.949  -0.332  0.00  0.00    -0.073 S 
ATOM     27  C   UNL     1      -6.109  -3.453  -0.495  0.00  0.00    +0.117 A 
ATOM     28  N   UNL     1      -5.301  -3.224  -1.522  0.00  0.00    -0.216 NA
ATOM     29  C   UNL     1      -4.052  -2.850  -1.331  0.00  0.00    +0.173 A 
ATOM     30  C   UNL     1      -9.112  -4.309   2.302  0.00  0.00    +0.052 C 
ATOM     31  C   UNL     1      -6.363  -3.492   3.308  0.00  0.00    +0.045 C 
BRANCH  20  32
ATOM     32  C   UNL     1      -2.157  -2.285   0.105  0.00  0.00    +0.127 C 
BRANCH  32  33
ATOM     33  C   UNL     1      -2.079  -0.758   0.159  0.00  0.00    +0.021 C 
BRANCH  33  35
ATOM     34  C   UNL     1      -0.544   1.199   0.397  0.00  0.00    +0.004 C 
ATOM     35  C   UNL     1      -0.622  -0.328   0.342  0.00  0.00    -0.002 C 
ENDBRANCH  33  35
ENDBRANCH  32  33
ENDBRANCH  20  32
ENDBRANCH  19  29
ENDBRANCH   1  19
TORSDOF 7
