REMARK  Name = ZINC64131693
REMARK  6 active torsions:
REMARK  status: ('A' for Active; 'I' for Inactive)
REMARK    1  A    between atoms: C_6  and  C_11
REMARK    2  A    between atoms: C_11  and  N_12
REMARK    3  A    between atoms: C_13  and  C_15
REMARK    4  A    between atoms: C_15  and  C_16
REMARK    5  A    between atoms: N_23  and  C_24
REMARK    6  A    between atoms: C_24  and  C_25
REMARK                            x       y       z     vdW  Elec       q    Type
REMARK                         _______ _______ _______ _____ _____    ______ ____
ROOT
ATOM      1  C   UNL     1       7.731  -3.835   3.454  0.00  0.00    +0.028 C 
ATOM      2  C   UNL     1       9.185  -3.573   3.723  0.00  0.00    +0.200 C 
ATOM      3  O   UNL     1       9.626  -2.463   3.511  0.00  0.00    -0.278 OA
ATOM      4  N   UNL     1      10.014  -4.514   4.189  0.00  0.00    -0.318 N 
ATOM      5  C   UNL     1       9.582  -5.885   4.449  0.00  0.00    +0.085 C 
ATOM      6  C   UNL     1       8.056  -5.942   4.537  0.00  0.00    -0.058 C 
ATOM      7  N   UNL     1       7.491  -5.280   3.352  0.00  0.00    +0.391 N 
ATOM      8  H   UNL     1      10.939  -4.277   4.360  0.00  0.00    +0.149 HD
ATOM      9  H   UNL     1       7.934  -5.639   2.519  0.00  0.00    -0.080 HD
ENDROOT
BRANCH   1  10
ATOM     10  C   UNL     1       7.329  -3.161   2.140  0.00  0.00    +0.089 C 
BRANCH  10  12
ATOM     11  N   UNL     1       7.925  -3.335  -0.254  0.00  0.00    -0.313 N 
ATOM     12  C   UNL     1       8.181  -3.696   1.019  0.00  0.00    +0.212 C 
ATOM     13  O   UNL     1       9.099  -4.452   1.262  0.00  0.00    -0.276 OA
ATOM     14  H   UNL     1       7.191  -2.731  -0.448  0.00  0.00    +0.149 HD
BRANCH  11  15
ATOM     15  C   UNL     1       8.754  -3.856  -1.344  0.00  0.00    +0.132 C 
BRANCH  15  21
ATOM     16  C   UNL     1       6.866  -5.883  -6.273  0.00  0.00    +0.001 A 
ATOM     17  C   UNL     1       5.633  -5.626  -5.656  0.00  0.00    +0.002 A 
ATOM     18  C   UNL     1       5.521  -4.887  -4.532  0.00  0.00    +0.026 A 
ATOM     19  C   UNL     1       6.677  -4.330  -3.919  0.00  0.00    +0.043 A 
ATOM     20  N   UNL     1       6.827  -3.591  -2.847  0.00  0.00    -0.376 N 
ATOM     21  C   UNL     1       8.254  -3.295  -2.677  0.00  0.00    +0.120 C 
ATOM     22  C   UNL     1       8.958  -3.978  -3.828  0.00  0.00    +0.009 C 
ATOM     23  C   UNL     1       7.991  -4.586  -4.552  0.00  0.00    -0.004 A 
ATOM     24  C   UNL     1       8.026  -5.400  -5.773  0.00  0.00    +0.010 A 
ATOM     25  H   UNL     1       6.113  -3.290  -2.263  0.00  0.00    +0.160 HD
ENDBRANCH  15  21
ENDBRANCH  11  15
ENDBRANCH  10  12
ENDBRANCH   1  10
BRANCH   7  26
ATOM     26  C   UNL     1       6.045  -5.536   3.292  0.00  0.00    -0.042 C 
BRANCH  26  27
ATOM     27  C   UNL     1       5.805  -7.001   3.037  0.00  0.00    -0.064 A 
ATOM     28  C   UNL     1       5.713  -7.471   1.740  0.00  0.00    +0.004 A 
ATOM     29  C   UNL     1       5.493  -8.815   1.505  0.00  0.00    +0.038 A 
ATOM     30  C   UNL     1       5.364  -9.691   2.569  0.00  0.00    +0.123 A 
ATOM     31  C   UNL     1       5.455  -9.220   3.868  0.00  0.00    +0.038 A 
ATOM     32  C   UNL     1       5.681  -7.876   4.100  0.00  0.00    +0.004 A 
ATOM     33  F   UNL     1       5.148 -11.005   2.341  0.00  0.00    -0.205 F 
ENDBRANCH  26  27
ENDBRANCH   7  26
TORSDOF 6
