REMARK  Name = ZINC61949835
REMARK  9 active torsions:
REMARK  status: ('A' for Active; 'I' for Inactive)
REMARK    1  A    between atoms: C_1  and  C_2
REMARK    2  A    between atoms: C_2  and  C_3
REMARK    3  A    between atoms: C_3  and  C_5
REMARK    4  A    between atoms: C_3  and  N_23
REMARK    5  A    between atoms: C_5  and  C_7
REMARK    6  A    between atoms: C_5  and  N_13
REMARK    7  A    between atoms: N_13  and  C_14
REMARK    8  A    between atoms: N_13  and  C_15
REMARK    9  A    between atoms: C_18  and  C_21
REMARK                            x       y       z     vdW  Elec       q    Type
REMARK                         _______ _______ _______ _____ _____    ______ ____
ROOT
ATOM      1  C   UNL     1       0.612  -2.014   1.360  0.00  0.00    +0.096 C 
ENDROOT
BRANCH   1   2
ATOM      2  C   UNL     1       1.365  -2.425   2.599  0.00  0.00    +0.010 A 
ATOM      3  C   UNL     1       2.605  -2.962   2.704  0.00  0.00    +0.014 A 
ATOM      4  C   UNL     1       3.100  -3.264   3.959  0.00  0.00    +0.023 A 
ATOM      5  C   UNL     1       2.329  -3.015   5.047  0.00  0.00    +0.055 A 
ATOM      6  S   UNL     1       0.859  -2.325   4.308  0.00  0.00    -0.085 S 
ATOM      7 BR   UNL     1       2.716  -3.313   6.874  0.00  0.00    -0.043 Br
ENDBRANCH   1   2
BRANCH   1   8
ATOM      8  N   UNL     1      -0.769  -2.495   1.446  0.00  0.00    -0.327 N 
ATOM      9  C   UNL     1      -1.672  -1.952   2.464  0.00  0.00    +0.130 C 
BRANCH   8  10
ATOM     10  C   UNL     1      -1.224  -3.468   0.560  0.00  0.00    +0.030 A 
ATOM     11  C   UNL     1      -0.398  -3.910  -0.469  0.00  0.00    +0.024 A 
ATOM     12  C   UNL     1      -0.844  -4.872  -1.346  0.00  0.00    +0.020 A 
ATOM     13  C   UNL     1      -2.129  -5.406  -1.202  0.00  0.00    +0.052 A 
ATOM     14  C   UNL     1      -2.956  -4.959  -0.167  0.00  0.00    +0.020 A 
ATOM     15  C   UNL     1      -2.501  -4.001   0.710  0.00  0.00    +0.024 A 
BRANCH  13  16
ATOM     16  C   UNL     1      -2.596  -6.406  -2.114  0.00  0.00    +0.099 C 
ATOM     17  N   UNL     1      -2.967  -7.200  -2.837  0.00  0.00    -0.191 NA
ENDBRANCH  13  16
ENDBRANCH   8  10
ENDBRANCH   1   8
BRANCH   1  18
ATOM     18  C   UNL     1       0.614  -0.488   1.245  0.00  0.00    -0.050 C 
BRANCH  18  19
ATOM     19  N   UNL     1       1.999  -0.006   1.159  0.00  0.00    +0.381 N 
ATOM     20  H   UNL     1       2.000   1.000   1.083  0.00  0.00    -0.090 HD
ATOM     21  H   UNL     1       2.503  -0.281   1.988  0.00  0.00    -0.090 HD
ATOM     22  H   UNL     1       2.444  -0.405   0.346  0.00  0.00    -0.090 HD
ENDBRANCH  18  19
BRANCH  18  24
ATOM     23  C   UNL     1      -0.256   1.455  -0.062  0.00  0.00    +0.002 C 
ATOM     24  C   UNL     1      -0.151  -0.070  -0.013  0.00  0.00    -0.018 C 
ENDBRANCH  18  24
ENDBRANCH   1  18
TORSDOF 7
