REMARK  Name = ZINC20190611
REMARK  15 active torsions:
REMARK  status: ('A' for Active; 'I' for Inactive)
REMARK    1  A    between atoms: C_1  and  C_2
REMARK    2  A    between atoms: C_2  and  S_3
REMARK    3  A    between atoms: S_3  and  C_4
REMARK    4  A    between atoms: C_4  and  C_5
REMARK    5  A    between atoms: C_5  and  O_6
REMARK    6  A    between atoms: O_6  and  C_7
REMARK    7  A    between atoms: C_7  and  C_9
REMARK    8  A    between atoms: C_10  and  C_36
REMARK    9  A    between atoms: C_14  and  C_16
REMARK   10  A    between atoms: C_19  and  O_22
REMARK   11  A    between atoms: O_22  and  C_23
REMARK   12  A    between atoms: C_26  and  C_32
REMARK   13  A    between atoms: C_28  and  C_31
REMARK   14  A    between atoms: C_32  and  O_34
REMARK   15  A    between atoms: O_34  and  C_35
REMARK                            x       y       z     vdW  Elec       q    Type
REMARK                         _______ _______ _______ _____ _____    ______ ____
ROOT
ATOM      1  C   UNL     1       1.292  -0.443  -0.643  0.00  0.00    +0.065 C 
ATOM      2  C   UNL     1       2.427   0.233  -0.398  0.00  0.00    +0.016 C 
ATOM      3  N   UNL     1       2.388   1.454   0.215  0.00  0.00    -0.321 N 
ATOM      4  C   UNL     1       1.232   2.187   0.237  0.00  0.00    +0.016 C 
ATOM      5  C   UNL     1       0.040   1.594   0.013  0.00  0.00    +0.025 C 
ATOM      6  C   UNL     1      -0.045   0.111  -0.247  0.00  0.00    +0.092 C 
ATOM      7  C   UNL     1      -1.153   2.339   0.011  0.00  0.00    +0.176 C 
ATOM      8  O   UNL     1      -2.209   1.773  -0.190  0.00  0.00    -0.291 OA
ATOM      9  C   UNL     1      -1.145   3.823   0.258  0.00  0.00    +0.171 C 
ATOM     10  C   UNL     1       0.195   4.399  -0.213  0.00  0.00    +0.013 C 
ATOM     11  C   UNL     1       1.322   3.667   0.518  0.00  0.00    +0.055 C 
ATOM     12  C   UNL     1       0.258   5.893   0.108  0.00  0.00    +0.009 C 
ATOM     13  C   UNL     1       3.753  -0.358  -0.804  0.00  0.00    +0.061 C 
ATOM     14  H   UNL     1       3.290   1.857   0.698  0.00  0.00    +0.152 HD
ENDROOT
BRANCH   6  15
ATOM     15  C   UNL     1      -0.520  -0.585   1.002  0.00  0.00    -0.035 A 
ATOM     16  C   UNL     1       0.219  -0.492   2.167  0.00  0.00    +0.008 A 
ATOM     17  C   UNL     1      -0.216  -1.124   3.315  0.00  0.00    +0.046 A 
ATOM     18  C   UNL     1      -1.391  -1.862   3.296  0.00  0.00    +0.120 A 
ATOM     19  C   UNL     1      -2.128  -1.958   2.125  0.00  0.00    +0.046 A 
ATOM     20  C   UNL     1      -1.691  -1.320   0.981  0.00  0.00    +0.008 A 
BRANCH  18  21
ATOM     21  O   UNL     1      -1.819  -2.489   4.423  0.00  0.00    -0.495 OA
ATOM     22  C   UNL     1      -1.010  -2.346   5.592  0.00  0.00    +0.277 C 
ENDBRANCH  18  21
ENDBRANCH   6  15
BRANCH   1  23
ATOM     23  C   UNL     1       1.359  -1.702  -1.285  0.00  0.00    +0.338 C 
ATOM     24  O   UNL     1       2.421  -2.107  -1.720  0.00  0.00    -0.245 OA
BRANCH  23  25
ATOM     25  O   UNL     1       0.245  -2.453  -1.415  0.00  0.00    -0.460 OA
BRANCH  25  26
ATOM     26  C   UNL     1       0.386  -3.713  -2.074  0.00  0.00    +0.243 C 
BRANCH  26  27
ATOM     27  C   UNL     1      -0.972  -4.416  -2.127  0.00  0.00    +0.110 C 
BRANCH  27  28
ATOM     28  S   UNL     1      -0.793  -6.015  -2.963  0.00  0.00    -0.158 S 
BRANCH  28  30
ATOM     29  C   UNL     1      -2.460  -8.080  -3.627  0.00  0.00    +0.015 C 
ATOM     30  C   UNL     1      -2.468  -6.711  -2.943  0.00  0.00    +0.066 C 
ENDBRANCH  28  30
ENDBRANCH  27  28
ENDBRANCH  26  27
ENDBRANCH  25  26
ENDBRANCH  23  25
ENDBRANCH   1  23
BRANCH   9  31
ATOM     31  C   UNL     1      -2.269   4.466  -0.512  0.00  0.00    +0.318 C 
ATOM     32  O   UNL     1      -2.027   5.299  -1.353  0.00  0.00    -0.250 OA
BRANCH  31  33
ATOM     33  O   UNL     1      -3.540   4.113  -0.264  0.00  0.00    -0.467 OA
ATOM     34  C   UNL     1      -4.572   4.773  -1.044  0.00  0.00    +0.280 C 
ENDBRANCH  31  33
ENDBRANCH   9  31
TORSDOF 10
