REMARK  Name = ZINC14545655
REMARK  8 active torsions:
REMARK  status: ('A' for Active; 'I' for Inactive)
REMARK    1  A    between atoms: C_1  and  C_2
REMARK    2  A    between atoms: C_2  and  O_3
REMARK    3  A    between atoms: O_3  and  C_4
REMARK    4  A    between atoms: C_9  and  C_10
REMARK    5  A    between atoms: C_21  and  O_26
REMARK    6  A    between atoms: O_26  and  C_27
REMARK    7  A    between atoms: C_27  and  C_28
REMARK    8  A    between atoms: C_27  and  C_29
REMARK                            x       y       z     vdW  Elec       q    Type
REMARK                         _______ _______ _______ _____ _____    ______ ____
ROOT
ATOM      1  C   UNL     1      -1.550   2.183   0.037  0.00  0.00    +0.108 C 
ATOM      2  C   UNL     1      -2.206   2.491   1.371  0.00  0.00    +0.029 C 
ATOM      3  C   UNL     1      -2.581   1.296   2.257  0.00  0.00    +0.033 C 
ATOM      4  C   UNL     1      -2.450   1.919   3.663  0.00  0.00    -0.030 C 
ATOM      5  C   UNL     1      -1.618   2.954   3.637  0.00  0.00    -0.023 C 
ATOM      6  C   UNL     1      -1.077   3.092   2.260  0.00  0.00    +0.049 C 
ATOM      7  C   UNL     1      -0.701   4.406   1.695  0.00  0.00    -0.016 A 
ATOM      8  C   UNL     1      -0.324   5.470   2.485  0.00  0.00    +0.051 A 
ATOM      9  C   UNL     1       0.036   6.678   1.907  0.00  0.00    +0.121 A 
ATOM     10  C   UNL     1       0.018   6.814   0.526  0.00  0.00    +0.047 A 
ATOM     11  C   UNL     1      -0.365   5.754  -0.269  0.00  0.00    +0.027 A 
ATOM     12  C   UNL     1      -0.734   4.543   0.303  0.00  0.00    +0.032 A 
ATOM     13  N   UNL     1      -1.155   3.492  -0.529  0.00  0.00    -0.336 N 
ATOM     14  H   UNL     1      -1.190   3.625  -1.489  0.00  0.00    +0.147 HD
ENDROOT
BRANCH   1  20
ATOM     15  C   UNL     1      -0.464  -0.062   0.296  0.00  0.00    +0.125 A 
ATOM     16  C   UNL     1       0.658  -0.857   0.480  0.00  0.00    +0.046 A 
ATOM     17  C   UNL     1       1.903  -0.272   0.611  0.00  0.00    +0.004 A 
ATOM     18  C   UNL     1       2.031   1.104   0.557  0.00  0.00    +0.001 A 
ATOM     19  C   UNL     1       0.914   1.898   0.374  0.00  0.00    +0.009 A 
ATOM     20  C   UNL     1      -0.333   1.318   0.243  0.00  0.00    +0.015 A 
BRANCH  15  21
ATOM     21  O   UNL     1      -1.690  -0.635   0.168  0.00  0.00    -0.492 OA
BRANCH  21  23
ATOM     22  C   UNL     1      -3.200  -2.519   0.069  0.00  0.00    +0.048 C 
ATOM     23  C   UNL     1      -1.749  -2.061   0.232  0.00  0.00    +0.225 C 
ENDBRANCH  21  23
ENDBRANCH  15  21
ENDBRANCH   1  20
BRANCH   9  24
ATOM     24  O   UNL     1       0.405   7.726   2.690  0.00  0.00    -0.489 OA
BRANCH  24  25
ATOM     25  C   UNL     1       0.647   8.973   2.035  0.00  0.00    +0.167 C 
ATOM     26  C   UNL     1       0.432  10.120   3.024  0.00  0.00    +0.051 C 
ATOM     27  C   UNL     1       2.088   9.007   1.520  0.00  0.00    +0.051 C 
ENDBRANCH  24  25
ENDBRANCH   9  24
TORSDOF 5
