REMARK  Name = ZINC08766300
REMARK  8 active torsions:
REMARK  status: ('A' for Active; 'I' for Inactive)
REMARK    1  A    between atoms: C_1  and  C_2
REMARK    2  A    between atoms: C_5  and  C_8
REMARK    3  A    between atoms: N_12  and  C_16
REMARK    4  A    between atoms: C_16  and  C_17
REMARK    5  A    between atoms: C_17  and  C_18
REMARK    6  A    between atoms: N_20  and  C_21
REMARK    7  A    between atoms: C_24  and  O_29
REMARK    8  A    between atoms: C_25  and  C_27
REMARK                            x       y       z     vdW  Elec       q    Type
REMARK                         _______ _______ _______ _____ _____    ______ ____
ROOT
ATOM      1  C   UNL     1       0.850   0.946  -0.537  0.00  0.00    +0.124 C 
ENDROOT
BRANCH   1   6
ATOM      2  C   UNL     1      -0.791   4.407  -3.690  0.00  0.00    +0.028 C 
ATOM      3  C   UNL     1      -0.643   3.167  -3.163  0.00  0.00    +0.077 C 
ATOM      4  C   UNL     1       0.135   2.732  -1.983  0.00  0.00    +0.258 C 
ATOM      5  O   UNL     1       0.774   3.520  -1.311  0.00  0.00    -0.269 OA
ATOM      6  N   UNL     1       0.100   1.441  -1.694  0.00  0.00    -0.255 N 
ATOM      7  C   UNL     1      -0.606   0.571  -2.444  0.00  0.00    +0.121 C 
ATOM      8  S   UNL     1      -0.768  -1.121  -2.238  0.00  0.00    -0.027 S 
ATOM      9  S   UNL     1      -1.332   1.609  -3.702  0.00  0.00    -0.061 S 
BRANCH   2  14
ATOM     10  C   UNL     1      -3.580   5.097  -8.668  0.00  0.00    +0.044 C 
ATOM     11  C   UNL     1      -2.849   4.916  -7.363  0.00  0.00    -0.050 A 
ATOM     12  C   UNL     1      -2.498   6.024  -6.611  0.00  0.00    +0.004 A 
ATOM     13  C   UNL     1      -1.829   5.868  -5.416  0.00  0.00    +0.008 A 
ATOM     14  C   UNL     1      -1.505   4.584  -4.963  0.00  0.00    -0.024 A 
ATOM     15  C   UNL     1      -1.859   3.469  -5.732  0.00  0.00    +0.008 A 
ATOM     16  C   UNL     1      -2.533   3.643  -6.922  0.00  0.00    +0.004 A 
ENDBRANCH   2  14
ENDBRANCH   1   6
BRANCH   1  17
ATOM     17  C   UNL     1      -0.041   0.992   0.706  0.00  0.00    +0.115 C 
BRANCH  17  18
ATOM     18  C   UNL     1       0.730   0.483   1.896  0.00  0.00    +0.219 C 
ATOM     19  O   UNL     1       1.879   0.118   1.763  0.00  0.00    -0.275 OA
ATOM     20  N   UNL     1       0.143   0.432   3.108  0.00  0.00    -0.285 N 
ATOM     21  H   UNL     1      -0.790   0.676   3.205  0.00  0.00    +0.155 HD
BRANCH  20  22
ATOM     22  C   UNL     1       0.882   0.026   4.228  0.00  0.00    +0.034 A 
ATOM     23  C   UNL     1       0.639   0.609   5.467  0.00  0.00    +0.027 A 
ATOM     24  C   UNL     1       1.361   0.216   6.576  0.00  0.00    +0.048 A 
ATOM     25  C   UNL     1       2.335  -0.764   6.461  0.00  0.00    +0.131 A 
ATOM     26  C   UNL     1       2.586  -1.356   5.215  0.00  0.00    +0.106 A 
ATOM     27  C   UNL     1       1.847  -0.957   4.099  0.00  0.00    +0.042 A 
BRANCH  26  28
ATOM     28  C   UNL     1       3.620  -2.398   5.085  0.00  0.00    +0.390 C 
ATOM     29  O   UNL     1       4.257  -2.747   6.059  0.00  0.00    -0.240 OA
ATOM     30  O   UNL     1       3.858  -2.965   3.886  0.00  0.00    -0.240 OA
ENDBRANCH  26  28
BRANCH  25  31
ATOM     31  O   UNL     1       3.044  -1.150   7.552  0.00  0.00    -0.506 OA
ATOM     32  H   UNL     1       2.645  -1.883   8.041  0.00  0.00    +0.292 HD
ENDBRANCH  25  31
ENDBRANCH  20  22
ENDBRANCH  17  18
ENDBRANCH   1  17
TORSDOF 7
