REMARK  Name = ZINC31352979
REMARK  9 active torsions:
REMARK  status: ('A' for Active; 'I' for Inactive)
REMARK    1  A    between atoms: C_1  and  C_2
REMARK    2  A    between atoms: C_7  and  C_8
REMARK    3  A    between atoms: N_10  and  C_11
REMARK    4  A    between atoms: C_11  and  C_12
REMARK    5  A    between atoms: C_12  and  C_13
REMARK    6  A    between atoms: C_13  and  S_14
REMARK    7  A    between atoms: S_14  and  C_15
REMARK    8  A    between atoms: C_22  and  C_26
REMARK    9  A    between atoms: C_22  and  C_27
REMARK                            x       y       z     vdW  Elec       q    Type
REMARK                         _______ _______ _______ _____ _____    ______ ____
ROOT
ATOM      1  C   UNL     1       5.076   6.057  -0.014  0.00  0.00    +0.047 C 
ATOM      2  C   UNL     1       3.633   6.492   0.002  0.00  0.00    -0.010 A 
ATOM      3  C   UNL     1       3.156   7.809   0.014  0.00  0.00    +0.042 A 
ATOM      4  C   UNL     1       1.763   7.754   0.029  0.00  0.00    +0.028 A 
ATOM      5  N   UNL     1       1.403   6.470   0.017  0.00  0.00    -0.354 N 
ATOM      6  H   UNL     1       0.337   6.198   0.017  0.00  0.00    +0.166 HD
ATOM      7  C   UNL     1       2.535   5.678   0.008  0.00  0.00    +0.106 A 
ATOM      8  C   UNL     1       0.896   8.987   0.048  0.00  0.00    +0.060 C 
ATOM      9  C   UNL     1       1.719  10.175   0.553  0.00  0.00    -0.023 C 
ATOM     10  C   UNL     1       3.016  10.316  -0.250  0.00  0.00    +0.086 C 
ATOM     11  C   UNL     1       3.878   9.090   0.009  0.00  0.00    +0.166 C 
ATOM     12  O   UNL     1       5.074   9.164   0.199  0.00  0.00    -0.292 OA
ATOM     13  C   UNL     1       2.062   9.960   2.029  0.00  0.00    +0.011 C 
ATOM     14  C   UNL     1       0.895  11.456   0.409  0.00  0.00    +0.011 C 
ENDROOT
BRANCH   7  15
ATOM     15  C   UNL     1       2.555   4.210   0.000  0.00  0.00    +0.261 C 
ATOM     16  O   UNL     1       3.617   3.616  -0.013  0.00  0.00    -0.269 OA
ATOM     17  N   UNL     1       1.397   3.520   0.008  0.00  0.00    -0.310 N 
ATOM     18  H   UNL     1       0.437   4.057   0.020  0.00  0.00    +0.149 HD
BRANCH  17  19
ATOM     19  C   UNL     1       1.417   2.055  -0.000  0.00  0.00    +0.105 C 
BRANCH  19  20
ATOM     20  C   UNL     1      -0.019   1.526   0.010  0.00  0.00    +0.030 C 
BRANCH  20  21
ATOM     21  C   UNL     1       0.002  -0.004   0.002  0.00  0.00    +0.076 C 
BRANCH  21  22
ATOM     22  S   UNL     1      -1.700  -0.632   0.015  0.00  0.00    -0.125 S 
BRANCH  22  23
ATOM     23  C   UNL     1      -1.508  -2.383   0.004  0.00  0.00    +0.008 A 
ATOM     24  C   UNL     1      -0.237  -2.945  -0.017  0.00  0.00    +0.015 A 
ATOM     25  C   UNL     1      -0.090  -4.318  -0.020  0.00  0.00    +0.001 A 
ATOM     26  C   UNL     1      -1.207  -5.134  -0.013  0.00  0.00    +0.000 A 
ATOM     27  C   UNL     1      -2.473  -4.579   0.001  0.00  0.00    +0.001 A 
ATOM     28  C   UNL     1      -2.628  -3.207   0.010  0.00  0.00    +0.015 A 
ENDBRANCH  22  23
ENDBRANCH  21  22
ENDBRANCH  20  21
ENDBRANCH  19  20
ENDBRANCH  17  19
ENDBRANCH   7  15
TORSDOF 6
