REMARK  Name = ZINC23495502
REMARK  6 active torsions:
REMARK  status: ('A' for Active; 'I' for Inactive)
REMARK    1  A    between atoms: C_11  and  C_13
REMARK    2  A    between atoms: C_13  and  O_14
REMARK    3  A    between atoms: O_14  and  C_15
REMARK    4  A    between atoms: C_15  and  C_17
REMARK    5  A    between atoms: C_20  and  O_24
REMARK    6  A    between atoms: C_22  and  O_23
REMARK                            x       y       z     vdW  Elec       q    Type
REMARK                         _______ _______ _______ _____ _____    ______ ____
ROOT
ATOM      1  C   UNL     1       6.974   4.268   1.094  0.00  0.00    +0.328 C 
ENDROOT
BRANCH   1  12
ATOM      2  C   UNL     1       8.791   5.082   6.326  0.00  0.00    +0.002 A 
ATOM      3  C   UNL     1      10.142   5.169   6.606  0.00  0.00    +0.001 A 
ATOM      4  C   UNL     1      11.061   5.168   5.575  0.00  0.00    +0.016 A 
ATOM      5  C   UNL     1      10.632   5.080   4.256  0.00  0.00    +0.029 A 
ATOM      6  C   UNL     1       9.274   4.986   3.970  0.00  0.00    +0.050 A 
ATOM      7  C   UNL     1       8.357   4.991   5.019  0.00  0.00    +0.024 A 
ATOM      8  N   UNL     1       8.781   4.885   2.666  0.00  0.00    -0.267 N 
ATOM      9  C   UNL     1       9.562   5.254   1.490  0.00  0.00    +0.125 C 
ATOM     10  C   UNL     1      10.896   4.500   1.520  0.00  0.00    +0.094 C 
ATOM     11  S   UNL     1      11.832   5.091   2.962  0.00  0.00    -0.122 S 
ATOM     12  C   UNL     1       7.529   4.421   2.487  0.00  0.00    +0.258 C 
ATOM     13  O   UNL     1       6.848   4.126   3.446  0.00  0.00    -0.272 OA
ENDBRANCH   1  12
BRANCH   1  14
ATOM     14  O   UNL     1       5.605   3.790   1.168  0.00  0.00    -0.452 OA
BRANCH  14  15
ATOM     15  C   UNL     1       4.960   3.599  -0.000  0.00  0.00    +0.343 C 
ATOM     16  O   UNL     1       5.526   3.826  -1.052  0.00  0.00    -0.245 OA
BRANCH  15  17
ATOM     17  C   UNL     1       3.570   3.115  -0.003  0.00  0.00    +0.100 A 
ATOM     18  C   UNL     1       2.916   2.853   1.206  0.00  0.00    +0.022 A 
ATOM     19  C   UNL     1       1.625   2.409   1.202  0.00  0.00    +0.046 A 
ATOM     20  C   UNL     1       0.954   2.204   0.000  0.00  0.00    +0.120 A 
ATOM     21  C   UNL     1       1.588   2.460  -1.207  0.00  0.00    +0.091 A 
ATOM     22  C   UNL     1       2.895   2.916  -1.217  0.00  0.00    +0.134 A 
BRANCH  22  23
ATOM     23  O   UNL     1       3.521   3.167  -2.394  0.00  0.00    -0.506 OA
ATOM     24  H   UNL     1       2.989   3.010  -3.344  0.00  0.00    +0.292 HD
ENDBRANCH  22  23
BRANCH  20  25
ATOM     25  O   UNL     1      -0.328   1.758   0.009  0.00  0.00    -0.507 OA
ATOM     26  H   UNL     1      -0.860   1.596  -0.940  0.00  0.00    +0.292 HD
ENDBRANCH  20  25
ENDBRANCH  15  17
ENDBRANCH  14  15
ENDBRANCH   1  14
TORSDOF 6
