REMARK  Name = ZINC25390881
REMARK  9 active torsions:
REMARK  status: ('A' for Active; 'I' for Inactive)
REMARK    1  A    between atoms: C_1  and  C_2
REMARK    2  A    between atoms: C_5  and  N_9
REMARK    3  A    between atoms: C_6  and  C_8
REMARK    4  A    between atoms: N_9  and  S_10
REMARK    5  A    between atoms: S_10  and  C_13
REMARK    6  A    between atoms: C_16  and  N_22
REMARK    7  A    between atoms: C_17  and  N_19
REMARK    8  A    between atoms: N_22  and  N_23
REMARK    9  A    between atoms: C_24  and  C_25
REMARK                            x       y       z     vdW  Elec       q    Type
REMARK                         _______ _______ _______ _____ _____    ______ ____
ROOT
ATOM      1  C   UNL     1      -6.760   0.265   0.241  0.00  0.00    +0.111 A 
ATOM      2  C   UNL     1      -5.520  -0.324   0.065  0.00  0.00    +0.031 A 
ATOM      3  C   UNL     1      -4.401   0.463  -0.118  0.00  0.00    +0.029 A 
ATOM      4  C   UNL     1      -4.520   1.848  -0.124  0.00  0.00    +0.079 A 
ATOM      5  C   UNL     1      -5.766   2.435   0.060  0.00  0.00    +0.150 A 
ATOM      6  C   UNL     1      -6.882   1.642   0.236  0.00  0.00    +0.063 A 
ENDROOT
BRANCH   1   7
ATOM      7  S   UNL     1      -8.186  -0.743   0.473  0.00  0.00    +0.072 S 
ATOM      8  O   UNL     1      -9.304   0.036   0.071  0.00  0.00    -0.150 OA
ATOM      9  O   UNL     1      -7.890  -2.006  -0.107  0.00  0.00    -0.150 OA
BRANCH   7  10
ATOM     10  N   UNL     1      -8.347  -0.997   2.102  0.00  0.00    -0.216 N 
ATOM     11  H   UNL     1      -8.310  -2.019   2.506  0.00  0.00    +0.174 HD
BRANCH  10  16
ATOM     12  C   UNL     1      -9.089   3.406   5.598  0.00  0.00    +0.044 C 
ATOM     13  C   UNL     1      -8.891   2.236   4.669  0.00  0.00    -0.050 A 
ATOM     14  C   UNL     1      -9.457   2.254   3.407  0.00  0.00    +0.005 A 
ATOM     15  C   UNL     1      -9.278   1.184   2.553  0.00  0.00    +0.025 A 
ATOM     16  C   UNL     1      -8.529   0.088   2.963  0.00  0.00    +0.051 A 
ATOM     17  C   UNL     1      -7.966   0.071   4.232  0.00  0.00    -0.028 A 
ATOM     18  C   UNL     1      -8.145   1.147   5.080  0.00  0.00    +0.008 A 
ATOM     19  C   UNL     1      -7.158  -1.118   4.684  0.00  0.00    +0.046 C 
ENDBRANCH  10  16
ENDBRANCH   7  10
ENDBRANCH   1   7
BRANCH   5  20
ATOM     20  N   UNL     1      -5.896   3.910   0.060  0.00  0.00    +0.058 N 
ATOM     21  O   UNL     1      -5.028   4.598   0.565  0.00  0.00    -0.126 OA
ATOM     22  O   UNL     1      -6.873   4.435  -0.445  0.00  0.00    -0.126 OA
ENDBRANCH   5  20
BRANCH   4  23
ATOM     23  N   UNL     1      -3.390   2.646  -0.308  0.00  0.00    -0.236 N 
ATOM     24  H   UNL     1      -3.497   3.737  -0.401  0.00  0.00    +0.174 HD
BRANCH  23  25
ATOM     25  N   UNL     1      -2.120   2.058  -0.373  0.00  0.00    -0.190 NA
ATOM     26  C   UNL     1      -1.069   2.801  -0.544  0.00  0.00    +0.139 C 
BRANCH  26  27
ATOM     27  C   UNL     1       0.268   2.182  -0.613  0.00  0.00    +0.008 A 
ATOM     28  C   UNL     1       1.400   2.978  -0.803  0.00  0.00    +0.010 A 
ATOM     29  C   UNL     1       2.647   2.392  -0.872  0.00  0.00    +0.001 A 
ATOM     30  C   UNL     1       2.778   1.019  -0.755  0.00  0.00    +0.001 A 
ATOM     31  C   UNL     1       1.661   0.224  -0.566  0.00  0.00    +0.016 A 
ATOM     32  C   UNL     1       0.407   0.797  -0.495  0.00  0.00    +0.027 A 
ATOM     33 BR   UNL     1      -1.118  -0.291  -0.238  0.00  0.00    -0.050 Br
ENDBRANCH  26  27
ENDBRANCH  23  25
ENDBRANCH   4  23
TORSDOF 7
