REMARK  Name = ZINC38980275
REMARK  4 active torsions:
REMARK  status: ('A' for Active; 'I' for Inactive)
REMARK    1  A    between atoms: C_8  and  C_13
REMARK    2  A    between atoms: C_13  and  N_15
REMARK    3  A    between atoms: C_22  and  S_26
REMARK    4  A    between atoms: S_26  and  N_29
REMARK                            x       y       z     vdW  Elec       q    Type
REMARK                         _______ _______ _______ _____ _____    ______ ____
ROOT
ATOM      1  N   UNL     1       3.674  -3.021  -2.653  0.00  0.00    -0.156 NA
ATOM      2  C   UNL     1       3.704  -2.986  -3.984  0.00  0.00    +0.164 A 
ATOM      3  N   UNL     1       2.771  -2.471  -4.824  0.00  0.00    -0.335 N 
ATOM      4  H   UNL     1       1.965  -2.066  -4.467  0.00  0.00    +0.168 HD
ATOM      5  C   UNL     1       2.973  -2.524  -6.190  0.00  0.00    +0.055 A 
ATOM      6  C   UNL     1       2.150  -2.058  -7.225  0.00  0.00    +0.029 A 
ATOM      7  C   UNL     1       2.527  -2.205  -8.540  0.00  0.00    +0.030 A 
ATOM      8  C   UNL     1       3.725  -2.813  -8.879  0.00  0.00    +0.107 A 
ATOM      9  C   UNL     1       4.555  -3.281  -7.875  0.00  0.00    +0.045 A 
ATOM     10  C   UNL     1       4.179  -3.135  -6.561  0.00  0.00    +0.041 A 
ATOM     11  S   UNL     1       4.909  -3.564  -5.003  0.00  0.00    -0.052 S 
ENDROOT
BRANCH   8  12
ATOM     12  S   UNL     1       4.186  -2.990 -10.570  0.00  0.00    +0.061 S 
ATOM     13  O   UNL     1       5.095  -4.080 -10.631  0.00  0.00    -0.153 OA
ATOM     14  O   UNL     1       2.982  -2.959 -11.324  0.00  0.00    -0.153 OA
BRANCH  12  15
ATOM     15  N   UNL     1       5.041  -1.635 -10.989  0.00  0.00    -0.177 NA
ATOM     16  C   UNL     1       4.355  -0.452 -11.524  0.00  0.00    +0.109 C 
ATOM     17  C   UNL     1       4.751   0.769 -10.687  0.00  0.00    +0.017 C 
ATOM     18  C   UNL     1       6.277   0.887 -10.656  0.00  0.00    +0.003 C 
ATOM     19  C   UNL     1       6.874  -0.361 -10.003  0.00  0.00    +0.017 C 
ATOM     20  C   UNL     1       6.501  -1.592 -10.826  0.00  0.00    +0.109 C 
ENDBRANCH  12  15
ENDBRANCH   8  12
BRANCH   1  21
ATOM     21  C   UNL     1       2.588  -2.617  -2.002  0.00  0.00    +0.253 C 
ATOM     22  O   UNL     1       1.659  -2.127  -2.615  0.00  0.00    -0.273 OA
BRANCH  21  30
ATOM     23  C   UNL     1      -0.064   1.331   0.018  0.00  0.00    +0.000 A 
ATOM     24  C   UNL     1       1.117   2.051   0.015  0.00  0.00    +0.004 A 
ATOM     25  C   UNL     1       2.327   1.388  -0.005  0.00  0.00    +0.046 A 
ATOM     26  C   UNL     1       2.362  -0.003  -0.019  0.00  0.00    +0.135 A 
ATOM     27  C   UNL     1       1.180  -0.722  -0.008  0.00  0.00    -0.004 A 
ATOM     28  C   UNL     1      -0.032  -0.049   0.006  0.00  0.00    +0.007 A 
ATOM     29  C   UNL     1       1.165  -2.229  -0.000  0.00  0.00    +0.063 C 
ATOM     30  C   UNL     1       2.508  -2.766  -0.505  0.00  0.00    +0.190 C 
ATOM     31  C   UNL     1       3.604  -1.951   0.153  0.00  0.00    +0.325 C 
ATOM     32  O   UNL     1       4.461  -2.471   0.827  0.00  0.00    -0.250 OA
ATOM     33  O   UNL     1       3.576  -0.618  -0.049  0.00  0.00    -0.425 OA
ENDBRANCH  21  30
ENDBRANCH   1  21
TORSDOF 4
