REMARK  Name = ZINC40773567
REMARK  10 active torsions:
REMARK  status: ('A' for Active; 'I' for Inactive)
REMARK    1  A    between atoms: C_1  and  C_2
REMARK    2  A    between atoms: C_2  and  C_3
REMARK    3  A    between atoms: C_2  and  C_4
REMARK    4  A    between atoms: C_4  and  C_5
REMARK    5  A    between atoms: C_5  and  C_7
REMARK    6  A    between atoms: C_5  and  N_9
REMARK    7  A    between atoms: C_7  and  O_8
REMARK    8  A    between atoms: N_9  and  S_10
REMARK    9  A    between atoms: S_10  and  C_13
REMARK   10  A    between atoms: C_16  and  N_20
REMARK                            x       y       z     vdW  Elec       q    Type
REMARK                         _______ _______ _______ _____ _____    ______ ____
ROOT
ATOM      1  S   UNL     1      -0.022  -3.925   1.359  0.00  0.00    +0.062 S 
ATOM      2  O   UNL     1       0.315  -4.125   2.725  0.00  0.00    -0.153 OA
ATOM      3  O   UNL     1      -0.710  -4.904   0.593  0.00  0.00    -0.153 OA
ENDROOT
BRANCH   1   4
ATOM      4  C   UNL     1       1.487  -3.592   0.512  0.00  0.00    +0.142 A 
ATOM      5  C   UNL     1       1.583  -3.831  -0.847  0.00  0.00    +0.070 A 
ATOM      6  C   UNL     1       2.766  -3.571  -1.514  0.00  0.00    +0.044 A 
ATOM      7  C   UNL     1       3.858  -3.068  -0.818  0.00  0.00    +0.027 A 
ATOM      8  C   UNL     1       3.758  -2.828   0.546  0.00  0.00    +0.044 A 
ATOM      9  C   UNL     1       2.572  -3.086   1.207  0.00  0.00    +0.070 A 
ATOM     10 CL   UNL     1       2.444  -2.780   2.911  0.00  0.00    -0.081 Cl
ATOM     11 CL   UNL     1       0.218  -4.460  -1.716  0.00  0.00    -0.081 Cl
BRANCH   7  12
ATOM     12  N   UNL     1       5.054  -2.804  -1.490  0.00  0.00    -0.358 N 
ATOM     13  H   UNL     1       5.123  -2.972  -2.442  0.00  0.00    +0.142 HD
ATOM     14  H   UNL     1       5.816  -2.453  -1.003  0.00  0.00    +0.142 HD
ENDBRANCH   7  12
ENDBRANCH   1   4
BRANCH   1  15
ATOM     15  N   UNL     1      -0.935  -2.545   1.293  0.00  0.00    -0.185 NA
ATOM     16  H   UNL     1      -1.147  -2.065   2.109  0.00  0.00    +0.148 HD
BRANCH  15  17
ATOM     17  C   UNL     1      -1.423  -2.051   0.004  0.00  0.00    +0.102 C 
BRANCH  17  18
ATOM     18  C   UNL     1      -1.430  -0.521   0.014  0.00  0.00    +0.025 C 
BRANCH  18  20
ATOM     19  C   UNL     1       0.780  -0.373  -1.142  0.00  0.00    +0.007 C 
ATOM     20  C   UNL     1       0.006  -0.005   0.125  0.00  0.00    -0.016 C 
ATOM     21  C   UNL     1      -0.010   1.516   0.288  0.00  0.00    +0.007 C 
ENDBRANCH  18  20
ENDBRANCH  17  18
BRANCH  17  22
ATOM     22  C   UNL     1      -2.844  -2.566  -0.236  0.00  0.00    +0.176 C 
BRANCH  22  23
ATOM     23  O   UNL     1      -3.724  -2.007   0.741  0.00  0.00    -0.393 OA
ATOM     24  H   UNL     1      -4.644  -2.291   0.650  0.00  0.00    +0.209 HD
ENDBRANCH  22  23
ENDBRANCH  17  22
ENDBRANCH  15  17
ENDBRANCH   1  15
TORSDOF 8
