REMARK  Name = ZINC25789921
REMARK  5 active torsions:
REMARK  status: ('A' for Active; 'I' for Inactive)
REMARK    1  A    between atoms: C_11  and  C_13
REMARK    2  A    between atoms: C_13  and  N_14
REMARK    3  A    between atoms: N_17  and  S_20
REMARK    4  A    between atoms: S_20  and  C_23
REMARK    5  A    between atoms: C_26  and  C_29
REMARK                            x       y       z     vdW  Elec       q    Type
REMARK                         _______ _______ _______ _____ _____    ______ ____
ROOT
ATOM      1  N   UNL     1       1.414  -3.076  -4.637  0.00  0.00    +0.387 N 
ATOM      2  C   UNL     1       2.715  -2.829  -4.002  0.00  0.00    -0.061 C 
ATOM      3  C   UNL     1       2.971  -3.899  -2.936  0.00  0.00    +0.091 C 
ATOM      4  N   UNL     1       1.824  -3.925  -2.015  0.00  0.00    -0.180 NA
ATOM      5  C   UNL     1       0.474  -4.038  -2.588  0.00  0.00    +0.091 C 
ATOM      6  C   UNL     1       0.317  -2.957  -3.668  0.00  0.00    -0.061 C 
ATOM      7  H   UNL     1       1.416  -4.110  -5.014  0.00  0.00    -0.081 HD
ENDROOT
BRANCH   4   8
ATOM      8  S   UNL     1       2.048  -3.835  -0.377  0.00  0.00    +0.061 S 
ATOM      9  O   UNL     1       3.367  -4.297  -0.121  0.00  0.00    -0.153 OA
ATOM     10  O   UNL     1       0.903  -4.428   0.223  0.00  0.00    -0.153 OA
BRANCH   8  11
ATOM     11  C   UNL     1       2.018  -2.128   0.061  0.00  0.00    +0.105 A 
ATOM     12  C   UNL     1       0.822  -1.522   0.397  0.00  0.00    +0.029 A 
ATOM     13  C   UNL     1       0.799  -0.183   0.741  0.00  0.00    +0.014 A 
ATOM     14  C   UNL     1       1.971   0.549   0.748  0.00  0.00    +0.055 A 
ATOM     15  C   UNL     1       3.167  -0.057   0.410  0.00  0.00    +0.014 A 
ATOM     16  C   UNL     1       3.190  -1.396   0.068  0.00  0.00    +0.029 A 
BRANCH  14  17
ATOM     17  C   UNL     1       1.946   2.009   1.123  0.00  0.00    +0.417 C 
ATOM     18  F   UNL     1       2.130   2.139   2.503  0.00  0.00    -0.166 F 
ATOM     19  F   UNL     1       2.971   2.681   0.449  0.00  0.00    -0.166 F 
ATOM     20  F   UNL     1       0.712   2.561   0.763  0.00  0.00    -0.166 F 
ENDBRANCH  14  17
ENDBRANCH   8  11
ENDBRANCH   4   8
BRANCH   1  21
ATOM     21  C   UNL     1       1.207  -2.177  -5.780  0.00  0.00    +0.019 C 
BRANCH  21  32
ATOM     22  C   UNL     1      -3.672  -3.489  -8.191  0.00  0.00    +0.002 A 
ATOM     23  C   UNL     1      -4.402  -2.542  -8.886  0.00  0.00    +0.001 A 
ATOM     24  C   UNL     1      -3.875  -1.281  -9.091  0.00  0.00    +0.016 A 
ATOM     25  C   UNL     1      -2.615  -0.962  -8.601  0.00  0.00    +0.029 A 
ATOM     26  C   UNL     1      -1.880  -1.910  -7.896  0.00  0.00    +0.050 A 
ATOM     27  C   UNL     1      -2.421  -3.178  -7.699  0.00  0.00    +0.024 A 
ATOM     28  N   UNL     1      -0.613  -1.647  -7.370  0.00  0.00    -0.271 N 
ATOM     29  C   UNL     1       0.221  -0.536  -7.820  0.00  0.00    +0.124 C 
ATOM     30  C   UNL     1      -0.583   0.764  -7.715  0.00  0.00    +0.094 C 
ATOM     31  S   UNL     1      -1.968   0.655  -8.889  0.00  0.00    -0.122 S 
ATOM     32  C   UNL     1      -0.140  -2.452  -6.398  0.00  0.00    +0.203 C 
ATOM     33  O   UNL     1      -0.799  -3.398  -6.021  0.00  0.00    -0.277 OA
ENDBRANCH  21  32
ENDBRANCH   1  21
TORSDOF 5
