REMARK  Name = ZINC04069934
REMARK  3 active torsions:
REMARK  status: ('A' for Active; 'I' for Inactive)
REMARK    1  A    between atoms: C_4  and  C_7
REMARK    2  A    between atoms: N_17  and  N_18
REMARK    3  A    between atoms: C_19  and  C_20
REMARK                            x       y       z     vdW  Elec       q    Type
REMARK                         _______ _______ _______ _____ _____    ______ ____
ROOT
ATOM      1  C   UNL     1      -9.530  -0.285   0.057  0.00  0.00    +0.084 A 
ATOM      2  C   UNL     1      -9.561   1.117   0.264  0.00  0.00    +0.028 A 
ATOM      3  C   UNL     1     -10.758   1.809   0.478  0.00  0.00    +0.032 A 
ATOM      4  C   UNL     1     -10.729   3.159   0.672  0.00  0.00    +0.042 A 
ATOM      5  C   UNL     1      -9.524   3.858   0.660  0.00  0.00    +0.022 A 
ATOM      6  C   UNL     1      -8.341   3.214   0.455  0.00  0.00    +0.030 A 
ATOM      7  C   UNL     1      -8.334   1.826   0.252  0.00  0.00    +0.077 A 
ATOM      8  N   UNL     1      -7.198   1.146   0.045  0.00  0.00    -0.213 NA
ATOM      9  C   UNL     1      -7.226  -0.160  -0.142  0.00  0.00    +0.236 A 
ATOM     10  N   UNL     1      -8.354  -0.864  -0.143  0.00  0.00    -0.213 NA
ATOM     11  N   UNL     1      -6.030  -0.825  -0.352  0.00  0.00    -0.205 N 
ATOM     12 CL   UNL     1     -12.214   4.019   0.938  0.00  0.00    -0.084 Cl
ATOM     13  H   UNL     1      -6.027  -1.785  -0.492  0.00  0.00    +0.177 HD
ENDROOT
BRANCH   1  17
ATOM     14  C   UNL     1     -13.112  -2.571   0.062  0.00  0.00    +0.000 A 
ATOM     15  C   UNL     1     -13.064  -1.367  -0.619  0.00  0.00    +0.001 A 
ATOM     16  C   UNL     1     -11.904  -0.620  -0.624  0.00  0.00    +0.010 A 
ATOM     17  C   UNL     1     -10.778  -1.081   0.059  0.00  0.00    +0.001 A 
ATOM     18  C   UNL     1     -10.831  -2.299   0.738  0.00  0.00    +0.010 A 
ATOM     19  C   UNL     1     -11.999  -3.033   0.741  0.00  0.00    +0.001 A 
ENDBRANCH   1  17
BRANCH  11  20
ATOM     20  N   UNL     1      -4.825  -0.111  -0.362  0.00  0.00    -0.188 NA
ATOM     21  C   UNL     1      -3.703  -0.735  -0.559  0.00  0.00    +0.138 C 
BRANCH  21  22
ATOM     22  C   UNL     1      -2.434   0.016  -0.570  0.00  0.00    -0.002 A 
ATOM     23  C   UNL     1      -2.436   1.399  -0.368  0.00  0.00    +0.013 A 
ATOM     24  C   UNL     1      -1.249   2.098  -0.383  0.00  0.00    +0.050 A 
ATOM     25  C   UNL     1      -0.047   1.433  -0.591  0.00  0.00    +0.162 A 
ATOM     26  C   UNL     1      -0.037   0.056  -0.791  0.00  0.00    +0.163 A 
ATOM     27  C   UNL     1      -1.226  -0.652  -0.782  0.00  0.00    +0.059 A 
ATOM     28  O   UNL     1       1.132  -0.610  -0.996  0.00  0.00    -0.485 OA
ATOM     29  C   UNL     1       2.265   0.180  -1.372  0.00  0.00    +0.270 C 
ATOM     30  C   UNL     1       2.326   1.403  -0.445  0.00  0.00    +0.270 C 
ATOM     31  O   UNL     1       1.113   2.146  -0.603  0.00  0.00    -0.485 OA
ENDBRANCH  21  22
ENDBRANCH  11  20
TORSDOF 3
