REMARK  Name = ZINC28161179
REMARK  8 active torsions:
REMARK  status: ('A' for Active; 'I' for Inactive)
REMARK    1  A    between atoms: C_1  and  C_2
REMARK    2  A    between atoms: C_2  and  O_3
REMARK    3  A    between atoms: O_3  and  C_4
REMARK    4  A    between atoms: C_7  and  C_10
REMARK    5  A    between atoms: C_13  and  C_34
REMARK    6  A    between atoms: C_20  and  C_23
REMARK    7  A    between atoms: C_23  and  C_24
REMARK    8  A    between atoms: N_26  and  C_27
REMARK                            x       y       z     vdW  Elec       q    Type
REMARK                         _______ _______ _______ _____ _____    ______ ____
ROOT
ATOM      1  C   UNL     1       2.461   1.044  -0.025  0.00  0.00    +0.136 C 
ATOM      2  C   UNL     1       3.086   1.038   1.384  0.00  0.00    +0.087 C 
ATOM      3  C   UNL     1       4.396   1.779   1.202  0.00  0.00    +0.075 C 
ATOM      4  N   UNL     1       4.520   2.138  -0.032  0.00  0.00    -0.181 NA
ATOM      5  N   UNL     1       3.450   1.764  -0.843  0.00  0.00    -0.195 N 
ATOM      6  C   UNL     1       3.338   2.022  -2.177  0.00  0.00    +0.170 C 
ATOM      7  N   UNL     1       2.350   1.687  -2.997  0.00  0.00    -0.157 NA
ATOM      8  C   UNL     1       2.318   1.978  -4.269  0.00  0.00    +0.252 C 
ATOM      9  O   UNL     1       1.390   1.656  -4.986  0.00  0.00    -0.272 OA
ATOM     10  C   UNL     1       3.526   2.743  -4.794  0.00  0.00    +0.150 C 
ATOM     11  S   UNL     1       4.492   2.885  -3.236  0.00  0.00    -0.078 S 
ENDROOT
BRANCH   1  15
ATOM     12  C   UNL     1      -1.271   3.126  -0.005  0.00  0.00    +0.121 A 
ATOM     13  C   UNL     1      -1.249   1.739  -0.017  0.00  0.00    +0.046 A 
ATOM     14  C   UNL     1      -0.041   1.068  -0.018  0.00  0.00    +0.009 A 
ATOM     15  C   UNL     1       1.145   1.778  -0.018  0.00  0.00    -0.025 A 
ATOM     16  C   UNL     1       1.126   3.161  -0.012  0.00  0.00    +0.009 A 
ATOM     17  C   UNL     1      -0.080   3.836  -0.005  0.00  0.00    +0.046 A 
BRANCH  12  18
ATOM     18  O   UNL     1      -2.458   3.788   0.002  0.00  0.00    -0.492 OA
BRANCH  18  20
ATOM     19  C   UNL     1      -4.872   3.905   0.010  0.00  0.00    +0.048 C 
ATOM     20  C   UNL     1      -3.645   2.991   0.002  0.00  0.00    +0.225 C 
ENDBRANCH  18  20
ENDBRANCH  12  18
ENDBRANCH   1  15
BRANCH   3  21
ATOM     21  C   UNL     1       5.373   2.044   2.263  0.00  0.00    +0.035 A 
ATOM     22  C   UNL     1       6.586   2.705   2.187  0.00  0.00    +0.017 A 
ATOM     23  C   UNL     1       7.336   2.830   3.333  0.00  0.00    +0.008 A 
ATOM     24  C   UNL     1       6.866   2.305   4.495  0.00  0.00    +0.046 A 
ATOM     25  S   UNL     1       5.303   1.606   3.992  0.00  0.00    -0.095 S 
ENDBRANCH   3  21
BRANCH  10  26
ATOM     26  C   UNL     1       3.126   4.119  -5.330  0.00  0.00    +0.120 C 
BRANCH  26  27
ATOM     27  C   UNL     1       4.360   4.870  -5.757  0.00  0.00    +0.219 C 
ATOM     28  O   UNL     1       5.453   4.356  -5.643  0.00  0.00    -0.275 OA
ATOM     29  N   UNL     1       4.250   6.114  -6.265  0.00  0.00    -0.285 N 
ATOM     30  H   UNL     1       3.256   6.551  -6.439  0.00  0.00    +0.155 HD
BRANCH  29  31
ATOM     31  C   UNL     1       5.402   6.850  -6.571  0.00  0.00    +0.034 A 
ATOM     32  C   UNL     1       5.415   8.226  -6.393  0.00  0.00    +0.026 A 
ATOM     33  C   UNL     1       6.554   8.949  -6.689  0.00  0.00    +0.040 A 
ATOM     34  C   UNL     1       7.678   8.303  -7.176  0.00  0.00    +0.124 A 
ATOM     35  C   UNL     1       7.665   6.931  -7.360  0.00  0.00    +0.040 A 
ATOM     36  C   UNL     1       6.530   6.204  -7.059  0.00  0.00    +0.026 A 
ATOM     37  F   UNL     1       8.789   9.013  -7.471  0.00  0.00    -0.205 F 
ENDBRANCH  29  31
ENDBRANCH  26  27
ENDBRANCH  10  26
TORSDOF 7
