REMARK  Name = ZINC04735807
REMARK  10 active torsions:
REMARK  status: ('A' for Active; 'I' for Inactive)
REMARK    1  A    between atoms: C_1  and  C_2
REMARK    2  A    between atoms: C_4  and  C_28
REMARK    3  A    between atoms: C_5  and  S_9
REMARK    4  A    between atoms: C_6  and  C_8
REMARK    5  A    between atoms: S_9  and  N_12
REMARK    6  A    between atoms: N_12  and  C_13
REMARK    7  A    between atoms: C_15  and  S_21
REMARK    8  A    between atoms: C_16  and  O_20
REMARK    9  A    between atoms: C_18  and  C_19
REMARK   10  A    between atoms: S_21  and  C_22
REMARK                            x       y       z     vdW  Elec       q    Type
REMARK                         _______ _______ _______ _____ _____    ______ ____
ROOT
ATOM      1  C   UNL     1       4.693  -0.297  -1.071  0.00  0.00    +0.052 A 
ATOM      2  C   UNL     1       3.917   0.410  -1.980  0.00  0.00    +0.043 A 
ATOM      3  C   UNL     1       4.518   1.308  -2.850  0.00  0.00    +0.059 A 
ATOM      4  C   UNL     1       5.898   1.498  -2.809  0.00  0.00    +0.131 A 
ATOM      5  C   UNL     1       6.667   0.791  -1.901  0.00  0.00    +0.051 A 
ATOM      6  C   UNL     1       6.067  -0.100  -1.030  0.00  0.00    -0.025 A 
ATOM      7  C   UNL     1       6.906  -0.864  -0.038  0.00  0.00    +0.046 C 
ENDROOT
BRANCH   1   8
ATOM      8  N   UNL     1       4.089  -1.203  -0.193  0.00  0.00    -0.216 N 
ATOM      9  H   UNL     1       4.057  -2.147  -0.415  0.00  0.00    +0.174 HD
BRANCH   8  10
ATOM     10  S   UNL     1       3.429  -0.665   1.227  0.00  0.00    +0.073 S 
ATOM     11  O   UNL     1       4.411   0.153   1.848  0.00  0.00    -0.150 OA
ATOM     12  O   UNL     1       2.867  -1.801   1.870  0.00  0.00    -0.150 OA
BRANCH  10  17
ATOM     13  C   UNL     1      -1.178   2.960  -0.201  0.00  0.00    +0.044 C 
ATOM     14  C   UNL     1      -0.026   2.054   0.151  0.00  0.00    -0.050 A 
ATOM     15  C   UNL     1      -0.236   0.696   0.297  0.00  0.00    +0.008 A 
ATOM     16  C   UNL     1       0.820  -0.135   0.625  0.00  0.00    -0.023 A 
ATOM     17  C   UNL     1       2.084   0.394   0.808  0.00  0.00    +0.114 A 
ATOM     18  C   UNL     1       2.293   1.752   0.662  0.00  0.00    -0.023 A 
ATOM     19  C   UNL     1       1.238   2.583   0.333  0.00  0.00    +0.008 A 
ATOM     20  C   UNL     1       3.671   2.328   0.862  0.00  0.00    +0.046 C 
ATOM     21  C   UNL     1       0.592  -1.616   0.784  0.00  0.00    +0.046 C 
ENDBRANCH  10  17
ENDBRANCH   8  10
ENDBRANCH   1   8
BRANCH   4  22
ATOM     22  O   UNL     1       6.490   2.379  -3.661  0.00  0.00    -0.506 OA
ATOM     23  H   UNL     1       6.554   3.279  -3.314  0.00  0.00    +0.292 HD
ENDBRANCH   4  22
BRANCH   3  24
ATOM     24  S   UNL     1       3.537   2.208  -4.005  0.00  0.00    -0.047 S 
BRANCH  24  25
ATOM     25  C   UNL     1       3.950   1.352  -5.489  0.00  0.00    +0.189 A 
ATOM     26  N   UNL     1       3.547   1.681  -6.736  0.00  0.00    -0.254 N 
ATOM     27  H   UNL     1       2.980   2.427  -6.986  0.00  0.00    +0.191 HD
ATOM     28  N   UNL     1       4.116   0.730  -7.598  0.00  0.00    -0.160 NA
ATOM     29  C   UNL     1       4.800  -0.099  -6.856  0.00  0.00    +0.245 A 
ATOM     30  N   UNL     1       4.701   0.274  -5.580  0.00  0.00    -0.209 NA
ENDBRANCH  24  25
ENDBRANCH   3  24
TORSDOF 6
