REMARK  Name = ZINC41586236
REMARK  10 active torsions:
REMARK  status: ('A' for Active; 'I' for Inactive)
REMARK    1  A    between atoms: C_1  and  C_2
REMARK    2  A    between atoms: C_2  and  O_3
REMARK    3  A    between atoms: O_3  and  C_4
REMARK    4  A    between atoms: C_4  and  C_6
REMARK    5  A    between atoms: N_9  and  C_12
REMARK    6  A    between atoms: C_12  and  C_13
REMARK    7  A    between atoms: C_14  and  O_33
REMARK    8  A    between atoms: C_21  and  C_22
REMARK    9  A    between atoms: C_27  and  O_28
REMARK   10  A    between atoms: O_28  and  C_29
REMARK                            x       y       z     vdW  Elec       q    Type
REMARK                         _______ _______ _______ _____ _____    ______ ____
ROOT
ATOM      1  C   UNL     1      -5.124  -6.170  -1.447  0.00  0.00    +0.020 A 
ATOM      2  C   UNL     1      -4.585  -6.669  -2.622  0.00  0.00    +0.122 A 
ATOM      3  C   UNL     1      -4.142  -7.987  -2.694  0.00  0.00    +0.046 A 
ATOM      4  C   UNL     1      -4.234  -8.803  -1.602  0.00  0.00    +0.019 A 
ATOM      5  C   UNL     1      -4.774  -8.314  -0.412  0.00  0.00    +0.068 A 
ATOM      6  C   UNL     1      -5.220  -6.985  -0.326  0.00  0.00    +0.144 A 
ATOM      7  O   UNL     1      -5.692  -6.743   0.916  0.00  0.00    -0.451 OA
ATOM      8  C   UNL     1      -5.598  -7.834   1.712  0.00  0.00    +0.176 C 
ATOM      9  C   UNL     1      -5.985  -7.915   3.011  0.00  0.00    +0.061 C 
ATOM     10  C   UNL     1      -5.010  -8.918   0.912  0.00  0.00    +0.231 C 
ATOM     11  O   UNL     1      -4.762 -10.057   1.267  0.00  0.00    -0.283 OA
ENDROOT
BRANCH   9  12
ATOM     12  C   UNL     1      -5.978  -9.211   3.699  0.00  0.00    +0.021 A 
ATOM     13  C   UNL     1      -6.441 -10.359   3.044  0.00  0.00    +0.027 A 
ATOM     14  C   UNL     1      -6.431 -11.573   3.697  0.00  0.00    +0.019 A 
ATOM     15  C   UNL     1      -5.964 -11.662   5.000  0.00  0.00    +0.019 A 
ATOM     16  C   UNL     1      -5.505 -10.538   5.658  0.00  0.00    +0.047 A 
ATOM     17  C   UNL     1      -5.501  -9.310   5.017  0.00  0.00    +0.127 A 
ATOM     18 BR   UNL     1      -7.056 -13.123   2.812  0.00  0.00    -0.050 Br
BRANCH  17  19
ATOM     19  O   UNL     1      -5.045  -8.206   5.661  0.00  0.00    -0.495 OA
ATOM     20  C   UNL     1      -4.576  -8.383   6.999  0.00  0.00    +0.277 C 
ENDBRANCH  17  19
ENDBRANCH   9  12
BRANCH   2  21
ATOM     21  O   UNL     1      -4.489  -5.867  -3.712  0.00  0.00    -0.506 OA
ATOM     22  H   UNL     1      -3.657  -5.377  -3.769  0.00  0.00    +0.292 HD
ENDBRANCH   2  21
BRANCH   1  23
ATOM     23  C   UNL     1      -5.599  -4.741  -1.383  0.00  0.00    -0.036 C 
BRANCH  23  27
ATOM     24  C   UNL     1      -3.263  -1.895   0.760  0.00  0.00    +0.094 C 
ATOM     25  C   UNL     1      -3.745  -1.561  -0.655  0.00  0.00    -0.004 C 
ATOM     26  C   UNL     1      -4.920  -2.472  -1.015  0.00  0.00    -0.078 C 
ATOM     27  N   UNL     1      -4.491  -3.875  -0.962  0.00  0.00    +0.383 N 
ATOM     28  C   UNL     1      -4.094  -4.222   0.408  0.00  0.00    -0.078 C 
ATOM     29  C   UNL     1      -2.887  -3.378   0.824  0.00  0.00    -0.004 C 
ATOM     30  H   UNL     1      -3.706  -4.009  -1.582  0.00  0.00    -0.081 HD
BRANCH  24  31
ATOM     31  C   UNL     1      -2.056  -1.055   1.092  0.00  0.00    +0.310 C 
ATOM     32  O   UNL     1      -1.003  -1.587   1.353  0.00  0.00    -0.251 OA
BRANCH  31  33
ATOM     33  O   UNL     1      -2.151   0.284   1.098  0.00  0.00    -0.465 OA
BRANCH  33  35
ATOM     34  C   UNL     1      -1.270   2.517   1.377  0.00  0.00    +0.048 C 
ATOM     35  C   UNL     1      -0.968   1.018   1.421  0.00  0.00    +0.229 C 
ENDBRANCH  33  35
ENDBRANCH  31  33
ENDBRANCH  24  31
ENDBRANCH  23  27
ENDBRANCH   1  23
TORSDOF 8
