REMARK  Name = ZINC37630314
REMARK  9 active torsions:
REMARK  status: ('A' for Active; 'I' for Inactive)
REMARK    1  A    between atoms: C_1  and  C_2
REMARK    2  A    between atoms: C_5  and  S_8
REMARK    3  A    between atoms: S_8  and  N_11
REMARK    4  A    between atoms: N_11  and  C_12
REMARK    5  A    between atoms: C_21  and  C_22
REMARK    6  A    between atoms: N_24  and  N_25
REMARK    7  A    between atoms: N_25  and  S_26
REMARK    8  A    between atoms: S_26  and  C_29
REMARK    9  A    between atoms: C_32  and  C_35
REMARK                            x       y       z     vdW  Elec       q    Type
REMARK                         _______ _______ _______ _____ _____    ______ ____
ROOT
ATOM      1  C   UNL     1       1.977  -6.352  -0.043  0.00  0.00    +0.087 A 
ATOM      2  C   UNL     1       0.975  -7.295  -0.049  0.00  0.00    +0.036 A 
ATOM      3  C   UNL     1       1.301  -8.661  -0.058  0.00  0.00    -0.016 A 
ATOM      4  C   UNL     1       0.295  -9.644  -0.064  0.00  0.00    +0.008 A 
ATOM      5  C   UNL     1       0.639 -10.961  -0.073  0.00  0.00    +0.001 A 
ATOM      6  C   UNL     1       1.977 -11.354  -0.077  0.00  0.00    +0.001 A 
ATOM      7  C   UNL     1       2.978 -10.432  -0.071  0.00  0.00    +0.008 A 
ATOM      8  C   UNL     1       2.663  -9.061  -0.062  0.00  0.00    -0.017 A 
ATOM      9  C   UNL     1       3.673  -8.089  -0.056  0.00  0.00    +0.023 A 
ATOM     10  C   UNL     1       3.333  -6.746  -0.053  0.00  0.00    +0.063 A 
ENDROOT
BRANCH  10  11
ATOM     11  C   UNL     1       4.394  -5.721  -0.054  0.00  0.00    +0.261 C 
ATOM     12  O   UNL     1       4.100  -4.542  -0.046  0.00  0.00    -0.269 OA
ATOM     13  N   UNL     1       5.690  -6.093  -0.063  0.00  0.00    -0.228 N 
ATOM     14  H   UNL     1       5.924  -7.034  -0.069  0.00  0.00    +0.171 HD
BRANCH  13  15
ATOM     15  N   UNL     1       6.698  -5.120  -0.064  0.00  0.00    -0.108 NA
ATOM     16  H   UNL     1       6.708  -4.433  -0.749  0.00  0.00    +0.172 HD
BRANCH  15  17
ATOM     17  S   UNL     1       7.871  -5.143   1.104  0.00  0.00    +0.074 S 
ATOM     18  O   UNL     1       8.812  -4.137   0.754  0.00  0.00    -0.152 OA
ATOM     19  O   UNL     1       7.199  -5.154   2.356  0.00  0.00    -0.152 OA
BRANCH  17  20
ATOM     20  C   UNL     1       8.710  -6.686   0.970  0.00  0.00    +0.107 A 
ATOM     21  C   UNL     1       8.261  -7.782   1.683  0.00  0.00    +0.029 A 
ATOM     22  C   UNL     1       8.919  -8.992   1.577  0.00  0.00    +0.005 A 
ATOM     23  C   UNL     1      10.027  -9.108   0.759  0.00  0.00    -0.050 A 
ATOM     24  C   UNL     1      10.476  -8.013   0.045  0.00  0.00    +0.005 A 
ATOM     25  C   UNL     1       9.815  -6.803   0.147  0.00  0.00    +0.029 A 
ATOM     26  C   UNL     1      10.745 -10.428   0.644  0.00  0.00    +0.044 C 
ENDBRANCH  17  20
ENDBRANCH  15  17
ENDBRANCH  13  15
ENDBRANCH  10  11
BRANCH   1  27
ATOM     27  N   UNL     1       1.651  -4.999  -0.034  0.00  0.00    -0.097 NA
BRANCH  27  28
ATOM     28  S   UNL     1       0.063  -4.530  -0.023  0.00  0.00    +0.092 S 
ATOM     29  O   UNL     1      -0.476  -4.950   1.223  0.00  0.00    -0.148 OA
ATOM     30  O   UNL     1      -0.490  -4.937  -1.267  0.00  0.00    -0.148 OA
BRANCH  28  35
ATOM     31  C   UNL     1      -0.018   1.503   0.010  0.00  0.00    +0.044 C 
ATOM     32  C   UNL     1       0.002  -0.004   0.002  0.00  0.00    -0.050 A 
ATOM     33  C   UNL     1       0.006  -0.689  -1.199  0.00  0.00    +0.005 A 
ATOM     34  C   UNL     1       0.025  -2.071  -1.206  0.00  0.00    +0.029 A 
ATOM     35  C   UNL     1       0.040  -2.768  -0.013  0.00  0.00    +0.110 A 
ATOM     36  C   UNL     1       0.037  -2.084   1.188  0.00  0.00    +0.029 A 
ATOM     37  C   UNL     1       0.023  -0.702   1.195  0.00  0.00    +0.005 A 
ENDBRANCH  28  35
ENDBRANCH  27  28
ENDBRANCH   1  27
TORSDOF 7
