REMARK  Name = ZINC38683405
REMARK  12 active torsions:
REMARK  status: ('A' for Active; 'I' for Inactive)
REMARK    1  A    between atoms: C_1  and  O_2
REMARK    2  A    between atoms: O_2  and  C_3
REMARK    3  A    between atoms: C_6  and  C_9
REMARK    4  A    between atoms: C_10  and  C_11
REMARK    5  A    between atoms: C_11  and  O_13
REMARK    6  A    between atoms: O_13  and  C_14
REMARK    7  A    between atoms: C_21  and  N_37
REMARK    8  A    between atoms: C_22  and  C_35
REMARK    9  A    between atoms: C_23  and  C_25
REMARK   10  A    between atoms: C_28  and  C_31
REMARK   11  A    between atoms: C_31  and  O_33
REMARK   12  A    between atoms: O_33  and  C_34
REMARK                            x       y       z     vdW  Elec       q    Type
REMARK                         _______ _______ _______ _____ _____    ______ ____
ROOT
ATOM      1  C   UNL     1      -7.487  -6.651   0.084  0.00  0.00    +0.135 A 
ATOM      2  C   UNL     1      -8.690  -5.959   0.051  0.00  0.00    +0.047 A 
ATOM      3  C   UNL     1      -9.884  -6.650   0.094  0.00  0.00    +0.012 A 
ATOM      4  C   UNL     1      -9.889  -8.031   0.170  0.00  0.00    +0.008 A 
ATOM      5  C   UNL     1      -8.691  -8.728   0.202  0.00  0.00    +0.138 A 
ATOM      6  C   UNL     1      -7.488  -8.034   0.154  0.00  0.00    +0.093 A 
ATOM      7  O   UNL     1      -8.674 -10.081   0.276  0.00  0.00    -0.441 OA
ATOM      8  C   UNL     1      -9.764 -10.743   0.700  0.00  0.00    +0.199 C 
ATOM      9  C   UNL     1     -10.993 -10.175   0.697  0.00  0.00    +0.098 C 
ATOM     10  C   UNL     1     -11.202  -8.766   0.215  0.00  0.00    +0.098 C 
ENDROOT
BRANCH  10  11
ATOM     11  C   UNL     1     -11.806  -8.795  -1.166  0.00  0.00    -0.035 A 
ATOM     12  C   UNL     1     -11.120  -9.401  -2.204  0.00  0.00    +0.005 A 
ATOM     13  C   UNL     1     -11.667  -9.431  -3.470  0.00  0.00    +0.015 A 
ATOM     14  C   UNL     1     -12.915  -8.848  -3.703  0.00  0.00    +0.059 A 
ATOM     15  C   UNL     1     -13.601  -8.239  -2.650  0.00  0.00    +0.015 A 
ATOM     16  C   UNL     1     -13.045  -8.221  -1.388  0.00  0.00    +0.005 A 
BRANCH  14  17
ATOM     17  C   UNL     1     -13.506  -8.876  -5.056  0.00  0.00    +0.339 C 
ATOM     18  O   UNL     1     -12.907  -9.407  -5.970  0.00  0.00    -0.245 OA
BRANCH  17  19
ATOM     19  O   UNL     1     -14.710  -8.314  -5.277  0.00  0.00    -0.464 OA
ATOM     20  C   UNL     1     -15.221  -8.378  -6.610  0.00  0.00    +0.280 C 
ENDBRANCH  17  19
ENDBRANCH  14  17
ENDBRANCH  10  11
BRANCH   8  21
ATOM     21  N   UNL     1      -9.628 -12.033   1.148  0.00  0.00    -0.328 N 
ATOM     22  H   UNL     1      -8.754 -12.454   1.156  0.00  0.00    +0.145 HD
ATOM     23  H   UNL     1     -10.405 -12.523   1.458  0.00  0.00    +0.145 HD
ENDBRANCH   8  21
BRANCH   9  24
ATOM     24  C   UNL     1     -12.117 -10.931   1.162  0.00  0.00    +0.101 C 
ATOM     25  N   UNL     1     -13.008 -11.531   1.531  0.00  0.00    -0.191 NA
ENDBRANCH   9  24
BRANCH   1  26
ATOM     26  O   UNL     1      -6.310  -5.972   0.042  0.00  0.00    -0.423 OA
BRANCH  26  27
ATOM     27  C   UNL     1      -5.889  -5.364   1.171  0.00  0.00    +0.337 C 
ATOM     28  O   UNL     1      -6.598  -5.356   2.159  0.00  0.00    -0.245 OA
BRANCH  27  30
ATOM     29  C   UNL     1      -4.198  -4.124   2.334  0.00  0.00    +0.015 C 
ATOM     30  C   UNL     1      -4.620  -4.734   1.205  0.00  0.00    +0.092 C 
BRANCH  29  34
ATOM     31  C   UNL     1      -0.400  -2.239   2.437  0.00  0.00    +0.120 A 
ATOM     32  C   UNL     1      -1.209  -2.229   3.567  0.00  0.00    +0.046 A 
ATOM     33  C   UNL     1      -2.443  -2.839   3.539  0.00  0.00    +0.011 A 
ATOM     34  C   UNL     1      -2.882  -3.471   2.370  0.00  0.00    -0.025 A 
ATOM     35  C   UNL     1      -2.063  -3.479   1.234  0.00  0.00    +0.011 A 
ATOM     36  C   UNL     1      -0.834  -2.861   1.271  0.00  0.00    +0.046 A 
BRANCH  31  38
ATOM     37  C   UNL     1       1.199  -1.017   3.699  0.00  0.00    +0.277 C 
ATOM     38  O   UNL     1       0.815  -1.636   2.469  0.00  0.00    -0.495 OA
ENDBRANCH  31  38
ENDBRANCH  29  34
ENDBRANCH  27  30
ENDBRANCH  26  27
ENDBRANCH   1  26
TORSDOF 10
