REMARK  Name = ZINC11426216
REMARK  6 active torsions:
REMARK  status: ('A' for Active; 'I' for Inactive)
REMARK    1  A    between atoms: C_4  and  C_7
REMARK    2  A    between atoms: C_7  and  C_9
REMARK    3  A    between atoms: C_7  and  S_12
REMARK    4  A    between atoms: S_12  and  C_13
REMARK    5  A    between atoms: C_16  and  C_19
REMARK    6  A    between atoms: N_17  and  N_18
REMARK                            x       y       z     vdW  Elec       q    Type
REMARK                         _______ _______ _______ _____ _____    ______ ____
ROOT
ATOM      1  C   UNL     1      -1.770   2.854   2.777  0.00  0.00    +0.210 A 
ATOM      2  N   UNL     1      -2.903   2.290   2.423  0.00  0.00    -0.121 NA
ATOM      3  N   UNL     1      -3.576   1.960   3.467  0.00  0.00    -0.127 NA
ATOM      4  C   UNL     1      -2.914   2.293   4.551  0.00  0.00    +0.183 A 
ATOM      5  N   UNL     1      -1.735   2.871   4.142  0.00  0.00    -0.224 N 
ENDROOT
BRANCH   4   6
ATOM      6  C   UNL     1      -3.351   2.081   5.947  0.00  0.00    +0.039 A 
ATOM      7  C   UNL     1      -3.240   3.112   6.881  0.00  0.00    +0.014 A 
ATOM      8  C   UNL     1      -3.655   2.911   8.180  0.00  0.00    +0.021 A 
ATOM      9  C   UNL     1      -4.170   1.684   8.564  0.00  0.00    +0.042 A 
ATOM     10  C   UNL     1      -4.278   0.654   7.645  0.00  0.00    +0.040 A 
ATOM     11  C   UNL     1      -3.872   0.845   6.339  0.00  0.00    +0.053 A 
ATOM     12 CL   UNL     1      -4.007  -0.447   5.188  0.00  0.00    -0.083 Cl
ATOM     13 CL   UNL     1      -4.683   1.436  10.204  0.00  0.00    -0.083 Cl
ENDBRANCH   4   6
BRANCH   5  14
ATOM     14  N   UNL     1      -0.737   3.361   4.936  0.00  0.00    -0.295 N 
ATOM     15  H   UNL     1      -0.932   4.311   5.216  0.00  0.00    +0.163 HD
ATOM     16  H   UNL     1      -0.592   2.770   5.741  0.00  0.00    +0.163 HD
ENDBRANCH   5  14
BRANCH   1  17
ATOM     17  S   UNL     1      -0.525   3.468   1.692  0.00  0.00    -0.067 S 
BRANCH  17  18
ATOM     18  C   UNL     1      -1.284   3.086   0.094  0.00  0.00    +0.170 C 
BRANCH  18  22
ATOM     19  C   UNL     1       1.138   4.668  -3.049  0.00  0.00    +0.000 A 
ATOM     20  C   UNL     1      -0.154   5.128  -2.873  0.00  0.00    +0.000 A 
ATOM     21  C   UNL     1      -0.937   4.616  -1.856  0.00  0.00    +0.005 A 
ATOM     22  C   UNL     1      -0.430   3.644  -1.015  0.00  0.00    -0.025 A 
ATOM     23  C   UNL     1       0.864   3.187  -1.187  0.00  0.00    +0.005 A 
ATOM     24  C   UNL     1       1.646   3.696  -2.207  0.00  0.00    +0.000 A 
ENDBRANCH  18  22
BRANCH  18  25
ATOM     25  C   UNL     1      -1.398   1.591  -0.064  0.00  0.00    +0.228 C 
ATOM     26  O   UNL     1      -2.318   1.116  -0.694  0.00  0.00    -0.274 OA
ATOM     27  N   UNL     1      -0.477   0.782   0.497  0.00  0.00    -0.328 N 
ATOM     28  H   UNL     1      -0.588  -0.180   0.458  0.00  0.00    +0.145 HD
ATOM     29  H   UNL     1       0.300   1.163   0.936  0.00  0.00    +0.145 HD
ENDBRANCH  18  25
ENDBRANCH  17  18
ENDBRANCH   1  17
TORSDOF 6
