REMARK  Name = ZINC39881480
REMARK  7 active torsions:
REMARK  status: ('A' for Active; 'I' for Inactive)
REMARK    1  A    between atoms: C_1  and  C_2
REMARK    2  A    between atoms: N_12  and  C_15
REMARK    3  A    between atoms: C_18  and  C_21
REMARK    4  A    between atoms: N_23  and  C_24
REMARK    5  A    between atoms: C_25  and  C_33
REMARK    6  A    between atoms: C_33  and  O_35
REMARK    7  A    between atoms: O_35  and  C_36
REMARK                            x       y       z     vdW  Elec       q    Type
REMARK                         _______ _______ _______ _____ _____    ______ ____
ROOT
ATOM      1  C   UNL     1       0.088  -4.526   4.776  0.00  0.00    +0.035 A 
ATOM      2  C   UNL     1       0.170  -3.168   5.073  0.00  0.00    +0.024 A 
ATOM      3  C   UNL     1       0.171  -2.748   6.383  0.00  0.00    +0.015 A 
ATOM      4  C   UNL     1       0.089  -3.686   7.417  0.00  0.00    +0.037 A 
ATOM      5  C   UNL     1       0.006  -5.049   7.115  0.00  0.00    +0.015 A 
ATOM      6  C   UNL     1       0.000  -5.462   5.802  0.00  0.00    +0.024 A 
ENDROOT
BRANCH   1  18
ATOM      7  C   UNL     1       6.878  -3.105   1.470  0.00  0.00    +0.044 C 
ATOM      8  C   UNL     1       5.524  -3.693   1.170  0.00  0.00    -0.048 A 
ATOM      9  C   UNL     1       5.260  -4.194  -0.103  0.00  0.00    +0.004 A 
ATOM     10  C   UNL     1       4.045  -4.731  -0.403  0.00  0.00    +0.010 A 
ATOM     11  C   UNL     1       3.046  -4.781   0.581  0.00  0.00    -0.001 A 
ATOM     12  C   UNL     1       1.776  -5.329   0.313  0.00  0.00    +0.017 A 
ATOM     13  C   UNL     1       0.854  -5.346   1.315  0.00  0.00    -0.007 A 
ATOM     14  C   UNL     1       1.164  -4.832   2.580  0.00  0.00    +0.107 A 
ATOM     15  N   UNL     1       2.365  -4.319   2.817  0.00  0.00    -0.342 N 
ATOM     16  C   UNL     1       3.311  -4.274   1.877  0.00  0.00    +0.048 A 
ATOM     17  C   UNL     1       4.579  -3.731   2.150  0.00  0.00    +0.029 A 
ATOM     18  N   UNL     1       0.086  -4.947   3.449  0.00  0.00    -0.286 N 
ATOM     19  C   UNL     1      -1.050  -5.576   2.773  0.00  0.00    +0.117 C 
ATOM     20  C   UNL     1      -0.569  -5.856   1.340  0.00  0.00    +0.058 C 
ATOM     21  H   UNL     1       2.561  -3.967   3.700  0.00  0.00    +0.167 HD
ENDBRANCH   1  18
BRANCH   4  22
ATOM     22  C   UNL     1       0.091  -3.240   8.822  0.00  0.00    +0.249 C 
ATOM     23  O   UNL     1       0.164  -2.054   9.084  0.00  0.00    -0.270 OA
ATOM     24  N   UNL     1       0.012  -4.145   9.818  0.00  0.00    -0.275 N 
ATOM     25  H   UNL     1      -0.046  -5.091   9.609  0.00  0.00    +0.156 HD
BRANCH  24  26
ATOM     26  C   UNL     1       0.013  -3.726  11.137  0.00  0.00    +0.087 A 
ATOM     27  C   UNL     1      -0.055  -4.508  12.281  0.00  0.00    +0.091 A 
ATOM     28  C   UNL     1      -0.037  -3.817  13.559  0.00  0.00    -0.021 A 
ATOM     29  C   UNL     1       0.046  -2.473  13.460  0.00  0.00    -0.004 A 
ATOM     30  S   UNL     1       0.105  -2.154  11.721  0.00  0.00    -0.077 S 
ATOM     31  C   UNL     1       0.084  -1.488  14.587  0.00  0.00    +0.043 C 
ATOM     32  C   UNL     1      -0.365  -2.205  15.869  0.00  0.00    +0.005 C 
ATOM     33  C   UNL     1       0.390  -3.532  15.985  0.00  0.00    +0.005 C 
ATOM     34  C   UNL     1      -0.102  -4.507  14.914  0.00  0.00    +0.037 C 
BRANCH  27  35
ATOM     35  C   UNL     1      -0.143  -5.967  12.204  0.00  0.00    +0.342 C 
ATOM     36  O   UNL     1       0.872  -6.638  12.191  0.00  0.00    -0.245 OA
BRANCH  35  37
ATOM     37  O   UNL     1      -1.349  -6.569  12.146  0.00  0.00    -0.464 OA
ATOM     38  C   UNL     1      -1.360  -7.996  12.072  0.00  0.00    +0.280 C 
ENDBRANCH  35  37
ENDBRANCH  27  35
ENDBRANCH  24  26
ENDBRANCH   4  22
TORSDOF 5
