REMARK  Name = ZINC39930507
REMARK  10 active torsions:
REMARK  status: ('A' for Active; 'I' for Inactive)
REMARK    1  A    between atoms: C_1  and  C_2
REMARK    2  A    between atoms: C_2  and  C_3
REMARK    3  A    between atoms: C_2  and  C_4
REMARK    4  A    between atoms: C_4  and  N_5
REMARK    5  A    between atoms: C_12  and  C_25
REMARK    6  A    between atoms: C_15  and  C_17
REMARK    7  A    between atoms: C_21  and  C_23
REMARK    8  A    between atoms: C_21  and  C_24
REMARK    9  A    between atoms: C_25  and  N_27
REMARK   10  A    between atoms: N_27  and  C_28
REMARK                            x       y       z     vdW  Elec       q    Type
REMARK                         _______ _______ _______ _____ _____    ______ ____
ROOT
ATOM      1  N   UNL     1       2.527   0.529  -0.214  0.00  0.00    +0.382 N 
ATOM      2  C   UNL     1       3.796   1.220   0.044  0.00  0.00    -0.060 C 
ATOM      3  C   UNL     1       4.764   0.958  -1.115  0.00  0.00    +0.088 C 
ATOM      4  N   UNL     1       4.891  -0.496  -1.297  0.00  0.00    -0.318 N 
ATOM      5  C   UNL     1       3.658  -1.292  -1.400  0.00  0.00    +0.088 C 
ATOM      6  C   UNL     1       2.742  -0.924  -0.228  0.00  0.00    -0.060 C 
ATOM      7  C   UNL     1       6.134  -1.098  -1.370  0.00  0.00    +0.132 A 
ATOM      8  C   UNL     1       6.728  -1.328  -2.625  0.00  0.00    +0.047 A 
ATOM      9  C   UNL     1       7.989  -1.936  -2.677  0.00  0.00    -0.024 A 
ATOM     10  C   UNL     1       8.604  -2.287  -1.496  0.00  0.00    +0.018 A 
ATOM     11  C   UNL     1       7.952  -2.031  -0.286  0.00  0.00    +0.148 A 
ATOM     12  N   UNL     1       6.760  -1.449  -0.260  0.00  0.00    -0.221 NA
ATOM     13  C   UNL     1       9.963  -2.933  -1.480  0.00  0.00    +0.199 C 
ATOM     14  O   UNL     1      10.286  -3.435  -2.777  0.00  0.00    -0.369 OA
ATOM     15  C   UNL     1      10.130  -2.461  -3.816  0.00  0.00    +0.068 C 
ATOM     16  C   UNL     1       8.636  -2.193  -4.011  0.00  0.00    +0.070 C 
ATOM     17  C   UNL     1      10.836  -1.164  -3.414  0.00  0.00    +0.041 C 
ATOM     18  C   UNL     1      10.731  -2.996  -5.117  0.00  0.00    +0.041 C 
ATOM     19  H   UNL     1       2.162   0.822  -1.108  0.00  0.00    -0.082 HD
ENDROOT
BRANCH  11  20
ATOM     20  C   UNL     1       8.584  -2.398   0.946  0.00  0.00    +0.120 C 
ATOM     21  N   UNL     1       9.085  -2.689   1.923  0.00  0.00    -0.189 NA
ENDBRANCH  11  20
BRANCH   8  22
ATOM     22  C   UNL     1       6.035  -0.936  -3.864  0.00  0.00    +0.083 C 
ATOM     23  S   UNL     1       4.911  -2.003  -4.590  0.00  0.00    -0.035 S 
BRANCH  22  24
ATOM     24  N   UNL     1       6.286   0.263  -4.426  0.00  0.00    -0.335 N 
ATOM     25  H   UNL     1       6.979   0.835  -4.060  0.00  0.00    +0.147 HD
BRANCH  24  26
ATOM     26  C   UNL     1       5.512   0.703  -5.589  0.00  0.00    +0.071 C 
ATOM     27  C   UNL     1       6.181   0.197  -6.869  0.00  0.00    +0.022 C 
ATOM     28  C   UNL     1       5.373   0.657  -8.084  0.00  0.00    +0.002 C 
ATOM     29  C   UNL     1       5.314   2.186  -8.109  0.00  0.00    +0.000 C 
ATOM     30  C   UNL     1       4.645   2.691  -6.829  0.00  0.00    +0.002 C 
ATOM     31  C   UNL     1       5.453   2.232  -5.614  0.00  0.00    +0.022 C 
ENDBRANCH  24  26
ENDBRANCH  22  24
ENDBRANCH   8  22
BRANCH   1  32
ATOM     32  C   UNL     1       1.563   0.869   0.842  0.00  0.00    -0.076 C 
BRANCH  32  34
ATOM     33  C   UNL     1       0.528   2.675  -0.539  0.00  0.00    +0.005 C 
ATOM     34  C   UNL     1       1.242   2.363   0.777  0.00  0.00    -0.034 C 
ATOM     35  C   UNL     1       0.337   2.742   1.951  0.00  0.00    +0.005 C 
ENDBRANCH  32  34
ENDBRANCH   1  32
TORSDOF 6
