REMARK  Name = ZINC06621649
REMARK  6 active torsions:
REMARK  status: ('A' for Active; 'I' for Inactive)
REMARK    1  A    between atoms: C_1  and  O_2
REMARK    2  A    between atoms: O_2  and  C_3
REMARK    3  A    between atoms: C_6  and  C_9
REMARK    4  A    between atoms: N_17  and  C_20
REMARK    5  A    between atoms: C_27  and  N_31
REMARK    6  A    between atoms: C_28  and  C_29
REMARK                            x       y       z     vdW  Elec       q    Type
REMARK                         _______ _______ _______ _____ _____    ______ ____
ROOT
ATOM      1  C   UNL     1      -4.981  -2.629   0.035  0.00  0.00    +0.075 C 
ATOM      2  C   UNL     1      -5.037  -3.578   1.198  0.00  0.00    +0.110 C 
ATOM      3  C   UNL     1      -3.837  -4.569   1.077  0.00  0.00    +0.152 C 
ATOM      4  C   UNL     1      -3.802  -5.093   2.486  0.00  0.00    +0.240 C 
ATOM      5  O   UNL     1      -3.447  -6.196   2.843  0.00  0.00    -0.274 OA
ATOM      6  N   UNL     1      -4.247  -4.084   3.278  0.00  0.00    -0.209 N 
ATOM      7  C   UNL     1      -4.816  -3.070   2.587  0.00  0.00    +0.232 C 
ATOM      8  O   UNL     1      -5.095  -1.970   3.014  0.00  0.00    -0.274 OA
ATOM      9  S   UNL     1      -4.349  -5.765  -0.182  0.00  0.00    -0.096 S 
ATOM     10  C   UNL     1      -4.917  -4.684  -1.466  0.00  0.00    +0.074 C 
ATOM     11  C   UNL     1      -5.155  -3.387  -1.254  0.00  0.00    +0.064 C 
ENDROOT
BRANCH   1  15
ATOM     12  C   UNL     1      -1.200  -0.637   0.009  0.00  0.00    +0.120 A 
ATOM     13  C   UNL     1      -1.348  -1.856  -0.637  0.00  0.00    +0.046 A 
ATOM     14  C   UNL     1      -2.571  -2.498  -0.627  0.00  0.00    +0.008 A 
ATOM     15  C   UNL     1      -3.648  -1.927   0.026  0.00  0.00    -0.038 A 
ATOM     16  C   UNL     1      -3.503  -0.712   0.670  0.00  0.00    +0.008 A 
ATOM     17  C   UNL     1      -2.281  -0.069   0.668  0.00  0.00    +0.046 A 
BRANCH  12  19
ATOM     18  C   UNL     1       1.070  -0.648  -0.697  0.00  0.00    +0.277 C 
ATOM     19  O   UNL     1       0.002  -0.004   0.001  0.00  0.00    -0.495 OA
ENDBRANCH  12  19
ENDBRANCH   1  15
BRANCH   6  20
ATOM     20  C   UNL     1      -4.119  -4.090   4.675  0.00  0.00    +0.044 A 
ATOM     21  C   UNL     1      -4.604  -3.025   5.422  0.00  0.00    +0.024 A 
ATOM     22  C   UNL     1      -4.476  -3.034   6.797  0.00  0.00    +0.002 A 
ATOM     23  C   UNL     1      -3.867  -4.101   7.430  0.00  0.00    +0.000 A 
ATOM     24  C   UNL     1      -3.383  -5.163   6.688  0.00  0.00    +0.002 A 
ATOM     25  C   UNL     1      -3.513  -5.163   5.313  0.00  0.00    +0.024 A 
ENDBRANCH   6  20
BRANCH  10  26
ATOM     26  N   UNL     1      -5.136  -5.201  -2.720  0.00  0.00    -0.352 N 
ATOM     27  H   UNL     1      -4.980  -6.143  -2.891  0.00  0.00    +0.143 HD
ATOM     28  H   UNL     1      -5.447  -4.624  -3.436  0.00  0.00    +0.143 HD
ENDBRANCH  10  26
BRANCH  11  29
ATOM     29  C   UNL     1      -5.606  -2.633  -2.385  0.00  0.00    +0.098 C 
ATOM     30  N   UNL     1      -5.963  -2.035  -3.282  0.00  0.00    -0.191 NA
ENDBRANCH  11  29
TORSDOF 5
