REMARK  Name = ZINC47600098
REMARK  11 active torsions:
REMARK  status: ('A' for Active; 'I' for Inactive)
REMARK    1  A    between atoms: C_1  and  C_2
REMARK    2  A    between atoms: C_2  and  CA_3
REMARK    3  A    between atoms: CA_3  and  C_5
REMARK    4  A    between atoms: CA_3  and  N_7
REMARK    5  A    between atoms: C_5  and  O_6
REMARK    6  A    between atoms: N_10  and  C_11
REMARK    7  A    between atoms: C_11  and  C_12
REMARK    8  A    between atoms: C_15  and  O_18
REMARK    9  A    between atoms: O_18  and  C_19
REMARK   10  A    between atoms: C_21  and  C_26
REMARK   11  A    between atoms: C_24  and  C_25
REMARK                            x       y       z     vdW  Elec       q    Type
REMARK                         _______ _______ _______ _____ _____    ______ ____
ROOT
ATOM      1  C   UNL     1       5.680   3.622  -2.181  0.00  0.00    -0.012 A 
ATOM      2  C   UNL     1       6.190   3.931  -0.927  0.00  0.00    +0.012 A 
ATOM      3  C   UNL     1       7.558   3.858  -0.735  0.00  0.00    +0.068 A 
ATOM      4  C   UNL     1       8.371   3.480  -1.796  0.00  0.00    +0.220 A 
ATOM      5  N   UNL     1       7.848   3.193  -2.977  0.00  0.00    -0.221 NA
ATOM      6  C   UNL     1       6.546   3.249  -3.189  0.00  0.00    +0.119 A 
ENDROOT
BRANCH   1   7
ATOM      7  C   UNL     1       4.197   3.688  -2.438  0.00  0.00    +0.142 C 
BRANCH   7  11
ATOM      8  N   UNL     1       1.707   1.015  -2.021  0.00  0.00    -0.294 N 
ATOM      9  C   UNL     1       2.264   2.211  -2.296  0.00  0.00    +0.300 C 
ATOM     10  O   UNL     1       1.570   3.129  -2.686  0.00  0.00    -0.253 OA
ATOM     11  N   UNL     1       3.591   2.388  -2.139  0.00  0.00    -0.295 N 
ATOM     12  H   UNL     1       2.261   0.282  -1.709  0.00  0.00    +0.151 HD
ATOM     13  H   UNL     1       4.145   1.655  -1.827  0.00  0.00    +0.151 HD
BRANCH   8  14
ATOM     14  CA  UNL     1       0.265   0.822  -2.192  0.00  0.00    +0.099 C 
BRANCH  14  16
ATOM     15  C   UNL     1      -0.276   2.796  -0.759  0.00  0.00    +0.006 C 
ATOM     16  C   UNL     1      -0.465   1.287  -0.930  0.00  0.00    +0.021 C 
ENDBRANCH  14  16
BRANCH  14  17
ATOM     17  C   UNL     1      -0.026  -0.661  -2.431  0.00  0.00    +0.178 C 
BRANCH  17  18
ATOM     18  O   UNL     1       0.319  -1.409  -1.264  0.00  0.00    -0.393 OA
ATOM     19  H   UNL     1       0.161  -2.360  -1.344  0.00  0.00    +0.209 HD
ENDBRANCH  17  18
ENDBRANCH  14  17
ENDBRANCH   8  14
ENDBRANCH   7  11
ENDBRANCH   1   7
BRANCH   4  20
ATOM     20  O   UNL     1       9.714   3.405  -1.621  0.00  0.00    -0.438 OA
BRANCH  20  21
ATOM     21  C   UNL     1      10.466   2.933  -2.649  0.00  0.00    +0.133 A 
ATOM     22  C   UNL     1      11.044   3.817  -3.550  0.00  0.00    +0.050 A 
ATOM     23  C   UNL     1      11.808   3.335  -4.595  0.00  0.00    -0.047 A 
ATOM     24  C   UNL     1      11.999   1.974  -4.743  0.00  0.00    +0.004 A 
ATOM     25  C   UNL     1      11.425   1.091  -3.847  0.00  0.00    +0.007 A 
ATOM     26  C   UNL     1      10.664   1.568  -2.797  0.00  0.00    -0.008 A 
ATOM     27  C   UNL     1      10.044   0.606  -1.817  0.00  0.00    +0.047 C 
ATOM     28  C   UNL     1      12.435   4.294  -5.574  0.00  0.00    +0.044 C 
ENDBRANCH  20  21
ENDBRANCH   4  20
TORSDOF 8
