REMARK  Name = ZINC06606348
REMARK  5 active torsions:
REMARK  status: ('A' for Active; 'I' for Inactive)
REMARK    1  A    between atoms: C_1  and  N_2
REMARK    2  A    between atoms: N_2  and  C_3
REMARK    3  A    between atoms: C_6  and  O_9
REMARK    4  A    between atoms: C_15  and  C_16
REMARK    5  A    between atoms: C_19  and  C_22
REMARK                            x       y       z     vdW  Elec       q    Type
REMARK                         _______ _______ _______ _____ _____    ______ ____
ROOT
ATOM      1  C   UNL     1      -1.420   2.117   1.547  0.00  0.00    +0.137 C 
ATOM      2  N   UNL     1      -0.230   1.276   1.394  0.00  0.00    -0.284 N 
ATOM      3  C   UNL     1       0.959   1.836   1.007  0.00  0.00    +0.158 C 
ATOM      4  N   UNL     1       2.099   1.227   0.722  0.00  0.00    -0.154 NA
ATOM      5  C   UNL     1       3.179   1.884   0.358  0.00  0.00    +0.276 C 
ATOM      6  O   UNL     1       4.224   1.311   0.098  0.00  0.00    -0.267 OA
ATOM      7  C   UNL     1       3.055   3.359   0.283  0.00  0.00    +0.079 C 
ATOM      8  C   UNL     1       3.979   4.293  -0.057  0.00  0.00    +0.028 C 
ATOM      9  S   UNL     1       1.342   3.562   0.757  0.00  0.00    -0.051 S 
ENDROOT
BRANCH   2  10
ATOM     10  C   UNL     1      -0.309  -0.100   1.638  0.00  0.00    +0.035 A 
ATOM     11  C   UNL     1      -1.492  -0.655   2.109  0.00  0.00    +0.027 A 
ATOM     12  C   UNL     1      -1.571  -2.013   2.345  0.00  0.00    +0.047 A 
ATOM     13  C   UNL     1      -0.466  -2.822   2.123  0.00  0.00    +0.117 A 
ATOM     14  C   UNL     1       0.718  -2.267   1.658  0.00  0.00    +0.047 A 
ATOM     15  C   UNL     1       0.797  -0.910   1.416  0.00  0.00    +0.027 A 
BRANCH  13  16
ATOM     16  O   UNL     1      -0.543  -4.158   2.360  0.00  0.00    -0.507 OA
ATOM     17  H   UNL     1      -0.300  -4.412   3.261  0.00  0.00    +0.292 HD
ENDBRANCH  13  16
ENDBRANCH   2  10
BRANCH   8  18
ATOM     18  C   UNL     1       3.704   5.716   0.174  0.00  0.00    -0.024 A 
ATOM     19  C   UNL     1       4.578   6.690  -0.325  0.00  0.00    +0.008 A 
ATOM     20  C   UNL     1       4.318   8.014  -0.112  0.00  0.00    +0.009 A 
ATOM     21  C   UNL     1       3.187   8.397   0.611  0.00  0.00    -0.018 A 
ATOM     22  C   UNL     1       2.317   7.428   1.115  0.00  0.00    +0.009 A 
ATOM     23  C   UNL     1       2.570   6.103   0.900  0.00  0.00    +0.008 A 
BRANCH  21  24
ATOM     24  C   UNL     1       2.910   9.834   0.845  0.00  0.00    -0.018 A 
ATOM     25  C   UNL     1       1.779  10.220   1.563  0.00  0.00    +0.008 A 
ATOM     26  C   UNL     1       1.529  11.560   1.782  0.00  0.00    +0.001 A 
ATOM     27  C   UNL     1       2.392  12.518   1.283  0.00  0.00    +0.000 A 
ATOM     28  C   UNL     1       3.513  12.141   0.565  0.00  0.00    +0.001 A 
ATOM     29  C   UNL     1       3.776  10.804   0.344  0.00  0.00    +0.008 A 
ENDBRANCH  21  24
ENDBRANCH   8  18
TORSDOF 4
