REMARK  Name = ZINC02217824
REMARK  11 active torsions:
REMARK  status: ('A' for Active; 'I' for Inactive)
REMARK    1  A    between atoms: C_1  and  C_2
REMARK    2  A    between atoms: C_2  and  O_3
REMARK    3  A    between atoms: O_3  and  C_4
REMARK    4  A    between atoms: C_4  and  C_6
REMARK    5  A    between atoms: C_12  and  C_13
REMARK    6  A    between atoms: C_21  and  N_37
REMARK    7  A    between atoms: C_22  and  C_32
REMARK    8  A    between atoms: C_23  and  C_25
REMARK    9  A    between atoms: C_32  and  O_34
REMARK   10  A    between atoms: O_34  and  C_35
REMARK   11  A    between atoms: C_35  and  C_36
REMARK                            x       y       z     vdW  Elec       q    Type
REMARK                         _______ _______ _______ _____ _____    ______ ____
ROOT
ATOM      1  C   UNL     1      -1.282   4.258   5.015  0.00  0.00    +0.079 C 
ATOM      2  C   UNL     1      -0.982   3.429   6.063  0.00  0.00    +0.100 A 
ATOM      3  N   UNL     1       0.051   2.513   6.058  0.00  0.00    -0.257 N 
ATOM      4  C   UNL     1       0.228   1.764   7.165  0.00  0.00    +0.271 A 
ATOM      5  O   UNL     1       1.121   0.939   7.222  0.00  0.00    -0.266 OA
ATOM      6  C   UNL     1      -0.681   1.966   8.298  0.00  0.00    +0.079 A 
ATOM      7  C   UNL     1      -0.707   1.344   9.504  0.00  0.00    +0.028 C 
ATOM      8  S   UNL     1      -1.745   3.252   7.663  0.00  0.00    -0.065 S 
ATOM      9  C   UNL     1       0.858   2.404   4.922  0.00  0.00    +0.115 C 
ATOM     10  C   UNL     1       0.692   3.150   3.804  0.00  0.00    +0.087 C 
ATOM     11  C   UNL     1      -0.426   4.172   3.766  0.00  0.00    +0.099 C 
ENDROOT
BRANCH   7  12
ATOM     12  C   UNL     1      -1.540   1.880  10.590  0.00  0.00    -0.024 A 
ATOM     13  C   UNL     1      -2.143   3.136  10.459  0.00  0.00    +0.011 A 
ATOM     14  C   UNL     1      -2.926   3.631  11.479  0.00  0.00    +0.039 A 
ATOM     15  C   UNL     1      -3.109   2.891  12.638  0.00  0.00    +0.123 A 
ATOM     16  C   UNL     1      -2.510   1.648  12.777  0.00  0.00    +0.039 A 
ATOM     17  C   UNL     1      -1.728   1.139  11.763  0.00  0.00    +0.011 A 
ATOM     18  F   UNL     1      -3.874   3.384  13.636  0.00  0.00    -0.205 F 
ENDBRANCH   7  12
BRANCH  11  19
ATOM     19  C   UNL     1       0.183   5.527   3.514  0.00  0.00    -0.035 A 
ATOM     20  C   UNL     1       1.102   6.049   4.406  0.00  0.00    +0.007 A 
ATOM     21  C   UNL     1       1.665   7.289   4.173  0.00  0.00    +0.038 A 
ATOM     22  C   UNL     1       1.301   8.014   3.051  0.00  0.00    +0.123 A 
ATOM     23  C   UNL     1       0.377   7.493   2.161  0.00  0.00    +0.038 A 
ATOM     24  C   UNL     1      -0.181   6.250   2.393  0.00  0.00    +0.007 A 
ATOM     25  F   UNL     1       1.847   9.229   2.824  0.00  0.00    -0.205 F 
ENDBRANCH  11  19
BRANCH   9  26
ATOM     26  N   UNL     1       1.877   1.488   4.940  0.00  0.00    -0.344 N 
ATOM     27  H   UNL     1       2.725   1.698   4.520  0.00  0.00    +0.144 HD
ATOM     28  H   UNL     1       1.749   0.629   5.373  0.00  0.00    +0.144 HD
ENDBRANCH   9  26
BRANCH   1  29
ATOM     29  C   UNL     1      -2.349   5.163   5.096  0.00  0.00    +0.339 C 
ATOM     30  O   UNL     1      -3.023   5.221   6.109  0.00  0.00    -0.245 OA
BRANCH  29  31
ATOM     31  O   UNL     1      -2.629   5.972   4.050  0.00  0.00    -0.462 OA
BRANCH  31  33
ATOM     32  C   UNL     1      -3.893   7.698   2.926  0.00  0.00    +0.048 C 
ATOM     33  C   UNL     1      -3.730   6.870   4.202  0.00  0.00    +0.229 C 
ENDBRANCH  31  33
ENDBRANCH  29  31
ENDBRANCH   1  29
BRANCH  10  34
ATOM     34  C   UNL     1       1.543   2.982   2.702  0.00  0.00    +0.339 C 
ATOM     35  O   UNL     1       2.422   2.139   2.734  0.00  0.00    -0.245 OA
BRANCH  34  36
ATOM     36  O   UNL     1       1.389   3.757   1.606  0.00  0.00    -0.462 OA
BRANCH  36  37
ATOM     37  C   UNL     1       2.292   3.532   0.521  0.00  0.00    +0.229 C 
ATOM     38  C   UNL     1       1.965   4.495  -0.622  0.00  0.00    +0.048 C 
ENDBRANCH  36  37
ENDBRANCH  34  36
ENDBRANCH  10  34
TORSDOF 9
