REMARK  Name = ZINC02222609
REMARK  5 active torsions:
REMARK  status: ('A' for Active; 'I' for Inactive)
REMARK    1  A    between atoms: N_9  and  C_28
REMARK    2  A    between atoms: C_10  and  S_12
REMARK    3  A    between atoms: S_12  and  C_13
REMARK    4  A    between atoms: C_13  and  C_14
REMARK    5  A    between atoms: N_16  and  N_17
REMARK                            x       y       z     vdW  Elec       q    Type
REMARK                         _______ _______ _______ _____ _____    ______ ____
ROOT
ATOM      1  C   UNL     1      -1.428   0.683   0.022  0.00  0.00    +0.001 A 
ATOM      2  C   UNL     1      -0.427   1.578  -0.331  0.00  0.00    +0.002 A 
ATOM      3  C   UNL     1       0.849   1.150  -0.566  0.00  0.00    +0.028 A 
ATOM      4  C   UNL     1       1.155  -0.209  -0.449  0.00  0.00    +0.079 A 
ATOM      5  C   UNL     1       0.134  -1.118  -0.090  0.00  0.00    +0.065 A 
ATOM      6  C   UNL     1      -1.160  -0.653   0.144  0.00  0.00    +0.015 A 
ATOM      7  C   UNL     1       0.479  -2.541   0.026  0.00  0.00    +0.267 A 
ATOM      8  O   UNL     1      -0.357  -3.371   0.332  0.00  0.00    -0.267 OA
ATOM      9  N   UNL     1       1.762  -2.895  -0.220  0.00  0.00    -0.255 N 
ATOM     10  C   UNL     1       2.688  -1.948  -0.562  0.00  0.00    +0.177 A 
ATOM     11  N   UNL     1       2.401  -0.675  -0.671  0.00  0.00    -0.223 NA
ENDROOT
BRANCH   9  12
ATOM     12  C   UNL     1       2.144  -4.239  -0.123  0.00  0.00    +0.052 A 
ATOM     13  C   UNL     1       1.709  -5.156  -1.071  0.00  0.00    +0.028 A 
ATOM     14  C   UNL     1       2.087  -6.481  -0.973  0.00  0.00    +0.022 A 
ATOM     15  C   UNL     1       2.898  -6.895   0.069  0.00  0.00    +0.041 A 
ATOM     16  C   UNL     1       3.333  -5.983   1.015  0.00  0.00    +0.022 A 
ATOM     17  C   UNL     1       2.963  -4.656   0.918  0.00  0.00    +0.028 A 
ATOM     18 CL   UNL     1       3.371  -8.561   0.189  0.00  0.00    -0.084 Cl
ENDBRANCH   9  12
BRANCH  10  19
ATOM     19  S   UNL     1       4.344  -2.466  -0.871  0.00  0.00    -0.078 S 
BRANCH  19  20
ATOM     20  C   UNL     1       5.215  -0.929  -1.282  0.00  0.00    +0.174 C 
BRANCH  20  21
ATOM     21  C   UNL     1       6.662  -1.233  -1.571  0.00  0.00    +0.242 C 
ATOM     22  O   UNL     1       7.066  -2.375  -1.507  0.00  0.00    -0.273 OA
ATOM     23  N   UNL     1       7.507  -0.237  -1.902  0.00  0.00    -0.206 N 
ATOM     24  H   UNL     1       7.184   0.676  -1.954  0.00  0.00    +0.177 HD
BRANCH  23  25
ATOM     25  N   UNL     1       8.853  -0.520  -2.171  0.00  0.00    -0.175 NA
ATOM     26  C   UNL     1       9.698   0.458  -2.388  0.00  0.00    +0.152 C 
ATOM     27  C   UNL     1       9.452   1.911  -2.241  0.00  0.00    +0.028 A 
ATOM     28  C   UNL     1       8.342   2.655  -1.858  0.00  0.00    +0.012 A 
ATOM     29  C   UNL     1       8.422   4.033  -1.816  0.00  0.00    +0.001 A 
ATOM     30  C   UNL     1       9.604   4.670  -2.155  0.00  0.00    +0.002 A 
ATOM     31  C   UNL     1      10.712   3.940  -2.537  0.00  0.00    +0.024 A 
ATOM     32  C   UNL     1      10.650   2.552  -2.585  0.00  0.00    +0.043 A 
ATOM     33  N   UNL     1      11.600   1.596  -2.928  0.00  0.00    -0.280 N 
ATOM     34  C   UNL     1      11.104   0.351  -2.827  0.00  0.00    +0.269 C 
ATOM     35  O   UNL     1      11.706  -0.681  -3.058  0.00  0.00    -0.268 OA
ATOM     36  H   UNL     1      12.508   1.802  -3.202  0.00  0.00    +0.155 HD
ENDBRANCH  23  25
ENDBRANCH  20  21
ENDBRANCH  19  20
ENDBRANCH  10  19
TORSDOF 5
