REMARK  Name = ZINC45915318
REMARK  8 active torsions:
REMARK  status: ('A' for Active; 'I' for Inactive)
REMARK    1  A    between atoms: C_1  and  C_2
REMARK    2  A    between atoms: C_2  and  C_4
REMARK    3  A    between atoms: C_2  and  S_17
REMARK    4  A    between atoms: N_6  and  C_7
REMARK    5  A    between atoms: C_10  and  S_13
REMARK    6  A    between atoms: S_13  and  N_16
REMARK    7  A    between atoms: S_17  and  C_18
REMARK    8  A    between atoms: C_22  and  C_24
REMARK                            x       y       z     vdW  Elec       q    Type
REMARK                         _______ _______ _______ _____ _____    ______ ____
ROOT
ATOM      1  C   UNL     1       0.708  -0.488  -1.238  0.00  0.00    +0.230 C 
ATOM      2  O   UNL     1       1.867  -0.839  -1.178  0.00  0.00    -0.274 OA
ATOM      3  N   UNL     1       0.053  -0.526  -2.415  0.00  0.00    -0.285 N 
ATOM      4  H   UNL     1      -0.892  -0.310  -2.452  0.00  0.00    +0.155 HD
ENDROOT
BRANCH   3   5
ATOM      5  C   UNL     1       0.736  -0.877  -3.585  0.00  0.00    +0.034 A 
ATOM      6  C   UNL     1       0.406  -0.273  -4.791  0.00  0.00    +0.025 A 
ATOM      7  C   UNL     1       1.082  -0.621  -5.944  0.00  0.00    +0.030 A 
ATOM      8  C   UNL     1       2.086  -1.571  -5.898  0.00  0.00    +0.105 A 
ATOM      9  C   UNL     1       2.416  -2.175  -4.699  0.00  0.00    +0.030 A 
ATOM     10  C   UNL     1       1.748  -1.827  -3.542  0.00  0.00    +0.025 A 
BRANCH   8  11
ATOM     11  S   UNL     1       2.946  -2.013  -7.371  0.00  0.00    +0.056 S 
ATOM     12  O   UNL     1       3.467  -3.318  -7.161  0.00  0.00    -0.153 OA
ATOM     13  O   UNL     1       2.080  -1.704  -8.455  0.00  0.00    -0.153 OA
BRANCH  11  14
ATOM     14  N   UNL     1       4.248  -0.999  -7.501  0.00  0.00    -0.204 NA
ATOM     15  H   UNL     1       4.405  -0.322  -6.825  0.00  0.00    +0.144 HD
ATOM     16  H   UNL     1       4.854  -1.081  -8.254  0.00  0.00    +0.144 HD
ENDBRANCH  11  14
ENDBRANCH   8  11
ENDBRANCH   3   5
BRANCH   1  18
ATOM     17  C   UNL     1      -0.032   1.519   0.015  0.00  0.00    +0.029 C 
ATOM     18  C   UNL     1      -0.000  -0.010   0.003  0.00  0.00    +0.137 C 
BRANCH  18  19
ATOM     19  S   UNL     1       0.882  -0.609   1.471  0.00  0.00    -0.075 S 
BRANCH  19  20
ATOM     20  C   UNL     1      -0.136  -0.101   2.817  0.00  0.00    +0.168 A 
ATOM     21  N   UNL     1       0.123  -0.324   4.135  0.00  0.00    -0.339 N 
ATOM     22  H   UNL     1       0.894  -0.786   4.499  0.00  0.00    +0.167 HD
ATOM     23  C   UNL     1      -0.909   0.228   4.854  0.00  0.00    +0.113 A 
ATOM     24  C   UNL     1      -1.768   0.772   3.956  0.00  0.00    +0.090 A 
ATOM     25  N   UNL     1      -1.265   0.558   2.715  0.00  0.00    -0.222 NA
BRANCH  24  26
ATOM     26  C   UNL     1      -3.033   1.478   4.275  0.00  0.00    +0.002 A 
ATOM     27  C   UNL     1      -3.430   1.638   5.601  0.00  0.00    +0.010 A 
ATOM     28  C   UNL     1      -4.607   2.296   5.892  0.00  0.00    +0.001 A 
ATOM     29  C   UNL     1      -5.393   2.798   4.870  0.00  0.00    +0.000 A 
ATOM     30  C   UNL     1      -5.004   2.643   3.552  0.00  0.00    +0.001 A 
ATOM     31  C   UNL     1      -3.826   1.991   3.249  0.00  0.00    +0.010 A 
ENDBRANCH  24  26
ENDBRANCH  19  20
ENDBRANCH  18  19
ENDBRANCH   1  18
TORSDOF 7
