REMARK  Name = ZINC10188454
REMARK  9 active torsions:
REMARK  status: ('A' for Active; 'I' for Inactive)
REMARK    1  A    between atoms: C_1  and  N_2
REMARK    2  A    between atoms: N_2  and  C_3
REMARK    3  A    between atoms: N_2  and  C_4
REMARK    4  A    between atoms: C_7  and  C_10
REMARK    5  A    between atoms: C_10  and  C_12
REMARK    6  A    between atoms: C_10  and  N_69
REMARK    7  A    between atoms: C_12  and  N_13
REMARK    8  A    between atoms: C_14  and  C_16
REMARK    9  A    between atoms: N_18  and  C_19
REMARK                            x       y       z     vdW  Elec       q    Type
REMARK                         _______ _______ _______ _____ _____    ______ ____
ROOT
ATOM      1  C   UNL     1      -0.025   1.048  -0.014  0.00  0.00    -0.020 C 
ENDROOT
BRANCH   1  11
ATOM      2  C   UNL     1       0.089   1.120   2.406  0.00  0.00    -0.073 C 
ATOM      3  C   UNL     1      -0.342   1.976   3.596  0.00  0.00    +0.017 C 
ATOM      4  C   UNL     1      -1.847   2.030   3.675  0.00  0.00    -0.048 A 
ATOM      5  C   UNL     1      -2.433   2.446   4.860  0.00  0.00    +0.004 A 
ATOM      6  C   UNL     1      -3.807   2.513   4.973  0.00  0.00    +0.000 A 
ATOM      7  C   UNL     1      -4.603   2.162   3.898  0.00  0.00    +0.000 A 
ATOM      8  C   UNL     1      -4.020   1.746   2.718  0.00  0.00    +0.002 A 
ATOM      9  C   UNL     1      -2.639   1.677   2.604  0.00  0.00    -0.061 A 
ATOM     10  C   UNL     1      -2.051   1.208   1.299  0.00  0.00    -0.042 C 
ATOM     11  N   UNL     1      -0.635   1.606   1.214  0.00  0.00    +0.388 N 
ATOM     12  H   UNL     1      -0.576   2.631   1.181  0.00  0.00    -0.080 HD
ENDBRANCH   1  11
BRANCH   1  16
ATOM     13  C   UNL     1      -2.302   2.306  -3.405  0.00  0.00    +0.029 A 
ATOM     14  C   UNL     1      -1.789   1.016  -3.350  0.00  0.00    +0.023 A 
ATOM     15  C   UNL     1      -1.054   0.613  -2.253  0.00  0.00    +0.004 A 
ATOM     16  C   UNL     1      -0.828   1.492  -1.210  0.00  0.00    -0.059 A 
ATOM     17  C   UNL     1      -1.341   2.775  -1.258  0.00  0.00    +0.004 A 
ATOM     18  C   UNL     1      -2.073   3.186  -2.355  0.00  0.00    +0.023 A 
BRANCH  13  20
ATOM     19  C   UNL     1      -3.185   1.832  -5.672  0.00  0.00    +0.129 C 
ATOM     20  N   UNL     1      -3.046   2.717  -4.513  0.00  0.00    -0.336 N 
ATOM     21  C   UNL     1      -3.689   4.034  -4.517  0.00  0.00    +0.129 C 
ENDBRANCH  13  20
ENDBRANCH   1  16
BRANCH   1  22
ATOM     22  C   UNL     1       1.408   1.570  -0.139  0.00  0.00    +0.094 C 
BRANCH  22  23
ATOM     23  N   UNL     1       2.044   0.973  -1.316  0.00  0.00    -0.309 N 
ATOM     24  C   UNL     1       3.346   1.211  -1.572  0.00  0.00    +0.299 C 
ATOM     25  O   UNL     1       3.990   1.921  -0.828  0.00  0.00    -0.265 OA
ATOM     26  H   UNL     1       1.529   0.405  -1.910  0.00  0.00    +0.149 HD
BRANCH  24  27
ATOM     27  C   UNL     1       3.995   0.601  -2.772  0.00  0.00    +0.299 C 
ATOM     28  O   UNL     1       3.350  -0.109  -3.516  0.00  0.00    -0.265 OA
ATOM     29  N   UNL     1       5.296   0.839  -3.028  0.00  0.00    -0.305 N 
ATOM     30  H   UNL     1       5.812   1.407  -2.433  0.00  0.00    +0.149 HD
BRANCH  29  31
ATOM     31  C   UNL     1       5.933   0.241  -4.204  0.00  0.00    +0.073 C 
ATOM     32  C   UNL     1       6.410  -1.172  -3.863  0.00  0.00    +0.022 C 
ATOM     33  C   UNL     1       7.075  -1.796  -5.092  0.00  0.00    +0.002 C 
ATOM     34  C   UNL     1       8.272  -0.942  -5.513  0.00  0.00    +0.000 C 
ATOM     35  C   UNL     1       7.795   0.471  -5.855  0.00  0.00    +0.002 C 
ATOM     36  C   UNL     1       7.130   1.096  -4.626  0.00  0.00    +0.022 C 
ENDBRANCH  29  31
ENDBRANCH  24  27
ENDBRANCH  22  23
ENDBRANCH   1  22
TORSDOF 7
