REMARK  Name = ZINC13584068
REMARK  4 active torsions:
REMARK  status: ('A' for Active; 'I' for Inactive)
REMARK    1  A    between atoms: C_9  and  C_12
REMARK    2  A    between atoms: N_14  and  N_15
REMARK    3  A    between atoms: C_16  and  C_17
REMARK    4  A    between atoms: C_20  and  C_22
REMARK                            x       y       z     vdW  Elec       q    Type
REMARK                         _______ _______ _______ _____ _____    ______ ____
ROOT
ATOM      1  N   UNL     1      -0.014  -0.029  -0.176  0.00  0.00    -0.185 NA
ATOM      2  C   UNL     1      -1.111  -0.671   0.107  0.00  0.00    +0.176 C 
ENDROOT
BRANCH   2   3
ATOM      3  C   UNL     1      -2.391   0.040   0.124  0.00  0.00    +0.148 A 
ATOM      4  C   UNL     1      -3.629  -0.529   0.326  0.00  0.00    +0.051 A 
ATOM      5  C   UNL     1      -4.567   0.510   0.261  0.00  0.00    +0.050 A 
ATOM      6  C   UNL     1      -3.875   1.660   0.024  0.00  0.00    +0.136 A 
ATOM      7  O   UNL     1      -2.563   1.366  -0.051  0.00  0.00    -0.454 OA
BRANCH   6   8
ATOM      8  C   UNL     1      -4.465   3.006  -0.120  0.00  0.00    +0.019 A 
ATOM      9  C   UNL     1      -5.847   3.180  -0.020  0.00  0.00    +0.013 A 
ATOM     10  C   UNL     1      -6.392   4.440  -0.150  0.00  0.00    +0.022 A 
ATOM     11  C   UNL     1      -5.573   5.531  -0.390  0.00  0.00    +0.059 A 
ATOM     12  C   UNL     1      -4.201   5.365  -0.496  0.00  0.00    +0.060 A 
ATOM     13  C   UNL     1      -3.643   4.109  -0.362  0.00  0.00    +0.033 A 
ATOM     14 CL   UNL     1      -3.183   6.738  -0.796  0.00  0.00    -0.082 Cl
ATOM     15 CL   UNL     1      -6.268   7.113  -0.558  0.00  0.00    -0.082 Cl
ENDBRANCH   6   8
ENDBRANCH   2   3
BRANCH   1  18
ATOM     16  C   UNL     1       1.063   2.001  -0.794  0.00  0.00    +0.276 C 
ATOM     17  O   UNL     1       2.138   1.481  -0.578  0.00  0.00    -0.270 OA
ATOM     18  N   UNL     1      -0.073   1.300  -0.614  0.00  0.00    -0.204 N 
ATOM     19  H   UNL     1      -0.932   1.715  -0.791  0.00  0.00    +0.177 HD
BRANCH  16  28
ATOM     20  C   UNL     1       2.833   7.561  -3.295  0.00  0.00    +0.004 A 
ATOM     21  C   UNL     1       3.773   7.140  -2.373  0.00  0.00    +0.004 A 
ATOM     22  C   UNL     1       3.596   5.948  -1.696  0.00  0.00    +0.049 A 
ATOM     23  C   UNL     1       2.474   5.170  -1.941  0.00  0.00    +0.163 A 
ATOM     24  C   UNL     1       1.528   5.594  -2.866  0.00  0.00    +0.162 A 
ATOM     25  C   UNL     1       1.712   6.791  -3.542  0.00  0.00    +0.049 A 
ATOM     26  O   UNL     1       0.416   4.850  -3.116  0.00  0.00    -0.484 OA
ATOM     27  C   UNL     1       0.450   3.482  -2.696  0.00  0.00    +0.283 C 
ATOM     28  C   UNL     1       1.000   3.432  -1.264  0.00  0.00    +0.297 C 
ATOM     29  O   UNL     1       2.315   3.997  -1.269  0.00  0.00    -0.472 OA
ENDBRANCH  16  28
ENDBRANCH   1  18
TORSDOF 4
