REMARK  Name = ZINC12244532
REMARK  9 active torsions:
REMARK  status: ('A' for Active; 'I' for Inactive)
REMARK    1  A    between atoms: C_1  and  N_57
REMARK    2  A    between atoms: C_2  and  C_3
REMARK    3  A    between atoms: C_2  and  N_57
REMARK    4  A    between atoms: C_8  and  C_9
REMARK    5  A    between atoms: C_8  and  N_57
REMARK    6  A    between atoms: C_12  and  C_17
REMARK    7  A    between atoms: N_19  and  C_20
REMARK    8  A    between atoms: C_20  and  C_22
REMARK    9  A    between atoms: C_20  and  C_28
REMARK                            x       y       z     vdW  Elec       q    Type
REMARK                         _______ _______ _______ _____ _____    ______ ____
ROOT
ATOM      1  C   UNL     1      -3.364   3.538  -0.087  0.00  0.00    +0.003 A 
ATOM      2  C   UNL     1      -3.488   2.209   0.161  0.00  0.00    +0.020 A 
ATOM      3  C   UNL     1      -2.369   1.379   0.109  0.00  0.00    +0.020 A 
ATOM      4  C   UNL     1      -1.129   1.936  -0.200  0.00  0.00    +0.101 A 
ATOM      5  C   UNL     1      -1.049   3.332  -0.445  0.00  0.00    +0.261 A 
ATOM      6  O   UNL     1       0.025   3.844  -0.711  0.00  0.00    -0.267 OA
ATOM      7  N   UNL     1      -2.162   4.087  -0.387  0.00  0.00    -0.327 N 
ATOM      8  H   UNL     1      -2.102   5.039  -0.559  0.00  0.00    +0.169 HD
ENDROOT
BRANCH   4   9
ATOM      9  C   UNL     1       0.075   1.094  -0.264  0.00  0.00    +0.250 C 
ATOM     10  O   UNL     1      -0.021  -0.113  -0.152  0.00  0.00    -0.270 OA
ATOM     11  N   UNL     1       1.283   1.660  -0.452  0.00  0.00    -0.300 N 
ATOM     12  H   UNL     1       1.353   2.614  -0.613  0.00  0.00    +0.150 HD
BRANCH  11  13
ATOM     13  C   UNL     1       2.493   0.834  -0.414  0.00  0.00    +0.134 C 
BRANCH  13  14
ATOM     14  C   UNL     1       3.674   1.690  -0.037  0.00  0.00    -0.023 A 
ATOM     15  C   UNL     1       3.797   2.965  -0.557  0.00  0.00    +0.007 A 
ATOM     16  C   UNL     1       4.878   3.753  -0.207  0.00  0.00    +0.020 A 
ATOM     17  C   UNL     1       5.842   3.261   0.654  0.00  0.00    +0.041 A 
ATOM     18  C   UNL     1       5.721   1.982   1.169  0.00  0.00    +0.020 A 
ATOM     19  C   UNL     1       4.638   1.198   0.823  0.00  0.00    +0.007 A 
ATOM     20 CL   UNL     1       7.204   4.247   1.088  0.00  0.00    -0.084 Cl
ENDBRANCH  13  14
BRANCH  13  21
ATOM     21  C   UNL     1       2.727   0.224  -1.772  0.00  0.00    -0.023 A 
ATOM     22  C   UNL     1       2.500   0.970  -2.914  0.00  0.00    +0.006 A 
ATOM     23  C   UNL     1       2.719   0.412  -4.159  0.00  0.00    +0.000 A 
ATOM     24  C   UNL     1       3.157  -0.895  -4.264  0.00  0.00    +0.000 A 
ATOM     25  C   UNL     1       3.379  -1.643  -3.122  0.00  0.00    +0.000 A 
ATOM     26  C   UNL     1       3.164  -1.083  -1.877  0.00  0.00    +0.006 A 
ENDBRANCH  13  21
ENDBRANCH  11  13
ENDBRANCH   4   9
BRANCH   1  27
ATOM     27  C   UNL     1      -4.584   4.420  -0.026  0.00  0.00    -0.025 C 
BRANCH  27  29
ATOM     28  C   UNL     1      -5.405   6.482   0.942  0.00  0.00    -0.095 C 
ATOM     29  N   UNL     1      -4.410   5.396   1.070  0.00  0.00    +0.384 N 
ATOM     30  H   UNL     1      -3.468   5.799   1.011  0.00  0.00    -0.081 HD
BRANCH  29  31
ATOM     31  C   UNL     1      -4.564   4.722   2.377  0.00  0.00    -0.042 C 
BRANCH  31  32
ATOM     32  C   UNL     1      -4.167   5.682   3.468  0.00  0.00    -0.057 A 
ATOM     33  C   UNL     1      -2.856   5.751   3.900  0.00  0.00    +0.009 A 
ATOM     34  C   UNL     1      -2.531   6.629   4.880  0.00  0.00    +0.045 A 
ATOM     35  S   UNL     1      -4.108   7.387   5.234  0.00  0.00    -0.105 S 
ATOM     36  C   UNL     1      -5.092   6.487   4.046  0.00  0.00    +0.047 A 
ENDBRANCH  31  32
ENDBRANCH  29  31
ENDBRANCH  27  29
ENDBRANCH   1  27
TORSDOF 8
