REMARK  Name = ZINC01934452
REMARK  6 active torsions:
REMARK  status: ('A' for Active; 'I' for Inactive)
REMARK    1  A    between atoms: C_6  and  O_11
REMARK    2  A    between atoms: O_11  and  C_12
REMARK    3  A    between atoms: C_17  and  O_23
REMARK    4  A    between atoms: O_23  and  C_24
REMARK    5  A    between atoms: C_24  and  C_25
REMARK    6  A    between atoms: N_27  and  C_28
REMARK                            x       y       z     vdW  Elec       q    Type
REMARK                         _______ _______ _______ _____ _____    ______ ____
ROOT
ATOM      1  C   UNL     1      -4.747  13.823  -0.752  0.00  0.00    +0.210 A 
ATOM      2  C   UNL     1      -5.743  12.916  -0.748  0.00  0.00    +0.245 A 
ATOM      3  O   UNL     1      -5.522  11.597  -0.666  0.00  0.00    -0.459 OA
ATOM      4  C   UNL     1      -4.281  11.077  -0.581  0.00  0.00    +0.142 A 
ATOM      5  C   UNL     1      -4.087   9.705  -0.497  0.00  0.00    +0.092 A 
ATOM      6  C   UNL     1      -2.801   9.198  -0.410  0.00  0.00    +0.125 A 
ATOM      7  C   UNL     1      -1.701  10.052  -0.402  0.00  0.00    +0.046 A 
ATOM      8  C   UNL     1      -1.875  11.404  -0.488  0.00  0.00    +0.019 A 
ATOM      9  C   UNL     1      -3.164  11.931  -0.577  0.00  0.00    +0.068 A 
ATOM     10  C   UNL     1      -3.396  13.383  -0.667  0.00  0.00    +0.234 A 
ATOM     11  O   UNL     1      -2.468  14.175  -0.668  0.00  0.00    -0.283 OA
ENDROOT
BRANCH   1  12
ATOM     12  O   UNL     1      -5.031  15.152  -0.839  0.00  0.00    -0.449 OA
BRANCH  12  18
ATOM     13  C   UNL     1     -10.917  17.244  -1.765  0.00  0.00    +0.001 A 
ATOM     14  C   UNL     1     -10.174  17.448  -2.927  0.00  0.00    +0.001 A 
ATOM     15  C   UNL     1      -8.864  17.082  -2.994  0.00  0.00    +0.008 A 
ATOM     16  C   UNL     1      -8.249  16.491  -1.877  0.00  0.00    -0.014 A 
ATOM     17  C   UNL     1      -6.900  16.101  -1.910  0.00  0.00    +0.054 A 
ATOM     18  C   UNL     1      -6.335  15.529  -0.806  0.00  0.00    +0.129 A 
ATOM     19  C   UNL     1      -7.085  15.321   0.357  0.00  0.00    +0.047 A 
ATOM     20  C   UNL     1      -8.391  15.692   0.422  0.00  0.00    +0.012 A 
ATOM     21  C   UNL     1      -9.005  16.284  -0.696  0.00  0.00    -0.018 A 
ATOM     22  C   UNL     1     -10.354  16.674  -0.665  0.00  0.00    +0.008 A 
ENDBRANCH  12  18
ENDBRANCH   1  12
BRANCH   6  23
ATOM     23  O   UNL     1      -2.612   7.856  -0.328  0.00  0.00    -0.483 OA
BRANCH  23  24
ATOM     24  C   UNL     1      -1.262   7.396  -0.241  0.00  0.00    +0.324 C 
BRANCH  24  25
ATOM     25  C   UNL     1      -1.248   5.891  -0.157  0.00  0.00    +0.255 C 
ATOM     26  O   UNL     1      -2.292   5.274  -0.171  0.00  0.00    -0.272 OA
ATOM     27  N   UNL     1      -0.077   5.231  -0.068  0.00  0.00    -0.283 N 
ATOM     28  H   UNL     1       0.752   5.726   0.030  0.00  0.00    +0.155 HD
BRANCH  27  29
ATOM     29  C   UNL     1      -0.055   3.833  -0.116  0.00  0.00    +0.036 A 
ATOM     30  C   UNL     1      -1.067   3.144  -0.772  0.00  0.00    +0.043 A 
ATOM     31  C   UNL     1      -1.044   1.763  -0.818  0.00  0.00    +0.044 A 
ATOM     32  C   UNL     1      -0.014   1.067  -0.210  0.00  0.00    +0.040 A 
ATOM     33  C   UNL     1       0.993   1.750   0.449  0.00  0.00    +0.044 A 
ATOM     34  C   UNL     1       0.978   3.132   0.492  0.00  0.00    +0.043 A 
ATOM     35 CL   UNL     1       2.279   0.872   1.216  0.00  0.00    -0.083 Cl
ATOM     36 CL   UNL     1      -2.309   0.901  -1.637  0.00  0.00    -0.083 Cl
ENDBRANCH  27  29
ENDBRANCH  24  25
ENDBRANCH  23  24
ENDBRANCH   6  23
TORSDOF 6
