REMARK  Name = ZINC08269593
REMARK  7 active torsions:
REMARK  status: ('A' for Active; 'I' for Inactive)
REMARK    1  A    between atoms: C_1  and  C_2
REMARK    2  A    between atoms: C_4  and  C_14
REMARK    3  A    between atoms: C_5  and  C_13
REMARK    4  A    between atoms: N_6  and  C_7
REMARK    5  A    between atoms: C_7  and  C_8
REMARK    6  A    between atoms: N_20  and  C_21
REMARK    7  A    between atoms: C_21  and  C_22
REMARK                            x       y       z     vdW  Elec       q    Type
REMARK                         _______ _______ _______ _____ _____    ______ ____
ROOT
ATOM      1  C   UNL     1      -3.543   3.278   0.444  0.00  0.00    +0.083 C 
ATOM      2  N   UNL     1      -2.394   3.699   0.031  0.00  0.00    -0.150 NA
ATOM      3  N   UNL     1      -1.227   2.948   0.024  0.00  0.00    -0.127 NA
ATOM      4  C   UNL     1      -1.211   1.637   0.017  0.00  0.00    +0.176 C 
ATOM      5  S   UNL     1      -2.724   0.732   0.012  0.00  0.00    -0.083 S 
ATOM      6  C   UNL     1      -3.753   1.883   0.967  0.00  0.00    +0.135 C 
ATOM      7  N   UNL     1      -0.011   0.966   0.007  0.00  0.00    -0.315 N 
ATOM      8  H   UNL     1       0.002  -0.004   0.002  0.00  0.00    +0.148 HD
ENDROOT
BRANCH   1  12
ATOM      9  C   UNL     1      -8.245   5.209   0.893  0.00  0.00    +0.063 C 
ATOM     10  C   UNL     1      -6.776   5.034   0.608  0.00  0.00    +0.017 A 
ATOM     11  C   UNL     1      -6.067   3.909   0.817  0.00  0.00    +0.032 A 
ATOM     12  C   UNL     1      -4.691   4.199   0.402  0.00  0.00    +0.020 A 
ATOM     13  C   UNL     1      -4.690   5.492  -0.037  0.00  0.00    +0.025 A 
ATOM     14  N   UNL     1      -5.950   5.987   0.091  0.00  0.00    -0.343 N 
ATOM     15  C   UNL     1      -3.497   6.242  -0.572  0.00  0.00    +0.064 C 
BRANCH  14  16
ATOM     16  C   UNL     1      -6.360   7.345  -0.274  0.00  0.00    +0.164 C 
BRANCH  16  17
ATOM     17  C   UNL     1      -6.809   7.365  -1.713  0.00  0.00    +0.009 A 
ATOM     18  C   UNL     1      -8.047   7.155  -2.223  0.00  0.00    +0.013 A 
ATOM     19  C   UNL     1      -8.229   7.227  -3.591  0.00  0.00    +0.008 A 
ATOM     20  C   UNL     1      -7.162   7.494  -4.383  0.00  0.00    +0.045 A 
ATOM     21  S   UNL     1      -5.848   7.663  -3.187  0.00  0.00    -0.100 S 
ENDBRANCH  16  17
ENDBRANCH  14  16
ENDBRANCH   1  12
BRANCH   7  22
ATOM     22  C   UNL     1       1.248   1.716  -0.001  0.00  0.00    +0.178 C 
BRANCH  22  23
ATOM     23  C   UNL     1       2.406   0.752  -0.017  0.00  0.00    +0.122 A 
ATOM     24  C   UNL     1       3.001   0.255  -1.116  0.00  0.00    +0.046 A 
ATOM     25  C   UNL     1       4.033  -0.603  -0.672  0.00  0.00    +0.041 A 
ATOM     26  C   UNL     1       4.008  -0.578   0.673  0.00  0.00    +0.195 A 
ATOM     27  O   UNL     1       3.024   0.248   1.064  0.00  0.00    -0.466 OA
ENDBRANCH  22  23
ENDBRANCH   7  22
TORSDOF 5
