REMARK  Name = ZINC21722831
REMARK  5 active torsions:
REMARK  status: ('A' for Active; 'I' for Inactive)
REMARK    1  A    between atoms: C_1  and  C_2
REMARK    2  A    between atoms: C_2  and  C_3
REMARK    3  A    between atoms: C_6  and  S_9
REMARK    4  A    between atoms: S_9  and  N_12
REMARK    5  A    between atoms: C_22  and  C_24
REMARK                            x       y       z     vdW  Elec       q    Type
REMARK                         _______ _______ _______ _____ _____    ______ ____
ROOT
ATOM      1  N   UNL     1       0.021   4.421   0.233  0.00  0.00    -0.186 N 
ATOM      2  C   UNL     1      -1.053   4.324  -0.648  0.00  0.00    +0.074 A 
ATOM      3  C   UNL     1      -1.491   5.421  -1.374  0.00  0.00    +0.026 A 
ATOM      4  C   UNL     1      -2.532   5.271  -2.274  0.00  0.00    +0.002 A 
ATOM      5  C   UNL     1      -3.130   4.037  -2.454  0.00  0.00    +0.002 A 
ATOM      6  C   UNL     1      -2.708   2.943  -1.718  0.00  0.00    +0.025 A 
ATOM      7  C   UNL     1      -1.683   3.098  -0.802  0.00  0.00    +0.054 A 
ATOM      8  N   UNL     1      -1.262   2.062   0.031  0.00  0.00    -0.316 N 
ATOM      9  C   UNL     1      -0.018   1.516   0.010  0.00  0.00    +0.017 C 
ATOM     10  C   UNL     1       1.131   2.209   0.003  0.00  0.00    +0.041 C 
ATOM     11  C   UNL     1       1.259   3.715  -0.019  0.00  0.00    +0.198 C 
ATOM     12  C   UNL     1       2.373   1.532   0.018  0.00  0.00    +0.163 C 
ATOM     13  O   UNL     1       3.397   2.187  -0.013  0.00  0.00    -0.292 OA
ATOM     14  C   UNL     1       2.473   0.037   0.070  0.00  0.00    +0.080 C 
ATOM     15  C   UNL     1       1.223  -0.511   0.768  0.00  0.00    +0.014 C 
ATOM     16  C   UNL     1       0.002  -0.004   0.002  0.00  0.00    +0.051 C 
ATOM     17  H   UNL     1      -1.956   1.632   0.768  0.00  0.00    +0.152 HD
ENDROOT
BRANCH  11  18
ATOM     18  C   UNL     1       1.781   4.131  -1.370  0.00  0.00    +0.131 A 
ATOM     19  C   UNL     1       3.055   4.455  -1.655  0.00  0.00    +0.047 A 
ATOM     20  C   UNL     1       3.098   4.777  -3.031  0.00  0.00    +0.041 A 
ATOM     21  C   UNL     1       1.846   4.639  -3.502  0.00  0.00    +0.195 A 
ATOM     22  O   UNL     1       1.053   4.248  -2.492  0.00  0.00    -0.466 OA
ENDBRANCH  11  18
BRANCH   1  23
ATOM     23  S   UNL     1      -0.121   5.359   1.590  0.00  0.00    +0.076 S 
ATOM     24  O   UNL     1      -1.510   5.453   1.875  0.00  0.00    -0.150 OA
ATOM     25  O   UNL     1       0.817   4.855   2.532  0.00  0.00    -0.150 OA
BRANCH  23  29
ATOM     26  C   UNL     1       1.261   9.526   0.490  0.00  0.00    -0.048 A 
ATOM     27  C   UNL     1      -0.068   9.177   0.342  0.00  0.00    +0.005 A 
ATOM     28  C   UNL     1      -0.490   7.905   0.678  0.00  0.00    +0.029 A 
ATOM     29  C   UNL     1       0.417   6.981   1.162  0.00  0.00    +0.109 A 
ATOM     30  C   UNL     1       1.745   7.331   1.315  0.00  0.00    +0.029 A 
ATOM     31  C   UNL     1       2.168   8.602   0.974  0.00  0.00    +0.005 A 
BRANCH  26  33
ATOM     32  C   UNL     1       1.611  11.828   1.344  0.00  0.00    +0.009 C 
ATOM     33  C   UNL     1       1.722  10.913   0.122  0.00  0.00    +0.032 C 
ENDBRANCH  26  33
ENDBRANCH  23  29
ENDBRANCH   1  23
TORSDOF 4
