REMARK  Name = ZINC24629159
REMARK  10 active torsions:
REMARK  status: ('A' for Active; 'I' for Inactive)
REMARK    1  A    between atoms: C_1  and  C_2
REMARK    2  A    between atoms: C_2  and  C_4
REMARK    3  A    between atoms: C_2  and  N_11
REMARK    4  A    between atoms: C_12  and  C_14
REMARK    5  A    between atoms: C_14  and  C_16
REMARK    6  A    between atoms: C_14  and  N_27
REMARK    7  A    between atoms: C_16  and  C_17
REMARK    8  A    between atoms: C_28  and  O_30
REMARK    9  A    between atoms: O_30  and  C_31
REMARK   10  A    between atoms: C_31  and  C_32
REMARK                            x       y       z     vdW  Elec       q    Type
REMARK                         _______ _______ _______ _____ _____    ______ ____
ROOT
ATOM      1  C   UNL     1       2.422   1.185  -0.015  0.00  0.00    +0.166 C 
ENDROOT
BRANCH   1   3
ATOM      2  N   UNL     1       4.761   1.608   0.670  0.00  0.00    -0.307 N 
ATOM      3  C   UNL     1       3.495   2.061   0.580  0.00  0.00    +0.234 C 
ATOM      4  O   UNL     1       3.219   3.173   0.979  0.00  0.00    -0.274 OA
ATOM      5  H   UNL     1       5.012   0.600   0.309  0.00  0.00    +0.149 HD
BRANCH   2   7
ATOM      6  C   UNL     1       6.366   3.383   0.166  0.00  0.00    +0.033 C 
ATOM      7  C   UNL     1       5.804   2.459   1.248  0.00  0.00    +0.103 C 
BRANCH   7   8
ATOM      8  C   UNL     1       6.911   1.595   1.796  0.00  0.00    +0.008 A 
ATOM      9  C   UNL     1       7.116   0.328   1.285  0.00  0.00    +0.008 A 
ATOM     10  C   UNL     1       8.131  -0.465   1.787  0.00  0.00    +0.000 A 
ATOM     11  C   UNL     1       8.943   0.010   2.800  0.00  0.00    +0.003 A 
ATOM     12  C   UNL     1       8.739   1.277   3.313  0.00  0.00    +0.039 A 
ATOM     13  C   UNL     1       7.726   2.074   2.808  0.00  0.00    +0.128 A 
ATOM     14  F   UNL     1       7.530   3.314   3.304  0.00  0.00    -0.205 F 
ENDBRANCH   7   8
ENDBRANCH   2   7
ENDBRANCH   1   3
BRANCH   1  15
ATOM     15  N   UNL     1       1.143   1.901   0.001  0.00  0.00    -0.269 N 
ATOM     16  C   UNL     1      -0.014   1.211   0.009  0.00  0.00    +0.401 C 
ATOM     17  O   UNL     1       0.002  -0.004   0.002  0.00  0.00    -0.226 OA
ATOM     18  H   UNL     1       1.129   3.001   0.007  0.00  0.00    +0.153 HD
BRANCH  16  19
ATOM     19  O   UNL     1      -1.189   1.868   0.018  0.00  0.00    -0.446 OA
BRANCH  19  20
ATOM     20  C   UNL     1      -2.396   1.061   0.019  0.00  0.00    +0.269 C 
BRANCH  20  21
ATOM     21  C   UNL     1      -3.604   1.963   0.030  0.00  0.00    -0.010 A 
ATOM     22  C   UNL     1      -4.155   2.365   1.232  0.00  0.00    +0.007 A 
ATOM     23  C   UNL     1      -5.260   3.196   1.242  0.00  0.00    +0.000 A 
ATOM     24  C   UNL     1      -5.819   3.616   0.049  0.00  0.00    +0.000 A 
ATOM     25  C   UNL     1      -5.271   3.209  -1.153  0.00  0.00    +0.000 A 
ATOM     26  C   UNL     1      -4.163   2.383  -1.162  0.00  0.00    +0.007 A 
ENDBRANCH  20  21
ENDBRANCH  19  20
ENDBRANCH  16  19
ENDBRANCH   1  15
BRANCH   1  27
ATOM     27  C   UNL     1       2.792   0.835  -1.457  0.00  0.00    +0.069 C 
BRANCH  27  28
ATOM     28  C   UNL     1       1.784  -0.139  -2.012  0.00  0.00    -0.020 A 
ATOM     29  C   UNL     1       1.894  -1.476  -2.034  0.00  0.00    +0.087 A 
ATOM     30  N   UNL     1       0.783  -2.026  -2.615  0.00  0.00    -0.360 N 
ATOM     31  H   UNL     1       0.700  -3.118  -2.718  0.00  0.00    +0.165 HD
ATOM     32  C   UNL     1      -0.091  -1.030  -2.990  0.00  0.00    +0.047 A 
ATOM     33  C   UNL     1       0.495   0.195  -2.623  0.00  0.00    +0.003 A 
ATOM     34  C   UNL     1      -0.176   1.392  -2.879  0.00  0.00    +0.010 A 
ATOM     35  C   UNL     1      -1.403   1.367  -3.482  0.00  0.00    +0.001 A 
ATOM     36  C   UNL     1      -1.986   0.160  -3.842  0.00  0.00    +0.002 A 
ATOM     37  C   UNL     1      -1.338  -1.033  -3.606  0.00  0.00    +0.026 A 
ENDBRANCH  27  28
ENDBRANCH   1  27
TORSDOF 9
