REMARK  Name = ZINC39699429
REMARK  16 active torsions:
REMARK  status: ('A' for Active; 'I' for Inactive)
REMARK    1  A    between atoms: C_1  and  C_2
REMARK    2  A    between atoms: C_4  and  C_38
REMARK    3  A    between atoms: C_7  and  C_14
REMARK    4  A    between atoms: C_14  and  N_15
REMARK    5  A    between atoms: N_15  and  C_16
REMARK    6  A    between atoms: N_15  and  C_19
REMARK    7  A    between atoms: C_16  and  C_17
REMARK    8  A    between atoms: C_17  and  O_18
REMARK    9  A    between atoms: C_19  and  C_21
REMARK   10  A    between atoms: C_19  and  C_35
REMARK   11  A    between atoms: N_25  and  C_26
REMARK   12  A    between atoms: C_26  and  C_27
REMARK   13  A    between atoms: C_30  and  O_33
REMARK   14  A    between atoms: O_33  and  C_34
REMARK   15  A    between atoms: C_35  and  C_36
REMARK   16  A    between atoms: C_35  and  C_37
REMARK                            x       y       z     vdW  Elec       q    Type
REMARK                         _______ _______ _______ _____ _____    ______ ____
ROOT
ATOM      1  N   UNL     1       1.033  -6.124   2.277  0.00  0.00    +0.389 N 
ATOM      2  H   UNL     1       0.168  -6.597   2.063  0.00  0.00    -0.081 HD
ENDROOT
BRANCH   1   3
ATOM      3  C   UNL     1       1.291  -5.092   1.263  0.00  0.00    -0.061 C 
BRANCH   3  10
ATOM      4  C   UNL     1      -1.801  -3.132  -5.279  0.00  0.00    +0.044 C 
ATOM      5  C   UNL     1      -0.874  -3.557  -4.169  0.00  0.00    -0.048 A 
ATOM      6  C   UNL     1       0.400  -2.993  -4.108  0.00  0.00    +0.007 A 
ATOM      7  C   UNL     1       1.279  -3.336  -3.131  0.00  0.00    -0.042 A 
ATOM      8  C   UNL     1       0.870  -4.319  -2.127  0.00  0.00    -0.004 A 
ATOM      9  C   UNL     1       1.719  -4.693  -1.128  0.00  0.00    -0.006 C 
ATOM     10  C   UNL     1       1.211  -5.716  -0.131  0.00  0.00    +0.082 C 
ATOM     11  C   UNL     1      -0.194  -6.238  -0.326  0.00  0.00    +0.222 C 
ATOM     12  O   UNL     1      -0.653  -7.060   0.445  0.00  0.00    -0.275 OA
ATOM     13  N   UNL     1      -0.924  -5.797  -1.337  0.00  0.00    -0.285 N 
ATOM     14  C   UNL     1      -0.481  -4.897  -2.216  0.00  0.00    +0.041 A 
ATOM     15  C   UNL     1      -1.316  -4.470  -3.265  0.00  0.00    +0.027 A 
ATOM     16  C   UNL     1       2.652  -2.716  -3.083  0.00  0.00    +0.044 C 
ATOM     17  H   UNL     1      -1.823  -6.144  -1.444  0.00  0.00    +0.155 HD
ENDBRANCH   3  10
ENDBRANCH   1   3
BRANCH   1  18
ATOM     18  C   UNL     1       0.935  -5.497   3.601  0.00  0.00    -0.050 C 
BRANCH  18  19
ATOM     19  C   UNL     1      -0.311  -4.611   3.655  0.00  0.00    +0.137 C 
BRANCH  19  20
ATOM     20  O   UNL     1      -1.476  -5.417   3.466  0.00  0.00    -0.397 OA
ATOM     21  H   UNL     1      -2.306  -4.920   3.488  0.00  0.00    +0.209 HD
ENDBRANCH  19  20
ENDBRANCH  18  19
ENDBRANCH   1  18
BRANCH   1  22
ATOM     22  C   UNL     1       2.135  -7.096   2.276  0.00  0.00    +0.005 C 
BRANCH  22  23
ATOM     23  C   UNL     1       3.435  -6.382   2.541  0.00  0.00    +0.139 A 
ATOM     24  N   UNL     1       3.619  -5.364   3.345  0.00  0.00    -0.115 NA
ATOM     25  N   UNL     1       4.865  -5.040   3.298  0.00  0.00    -0.023 NA
ATOM     26  N   UNL     1       5.481  -5.825   2.485  0.00  0.00    -0.044 NA
ATOM     27  N   UNL     1       4.634  -6.670   2.002  0.00  0.00    -0.226 N 
BRANCH  27  28
ATOM     28  C   UNL     1       4.923  -7.740   1.043  0.00  0.00    +0.182 C 
BRANCH  28  29
ATOM     29  C   UNL     1       4.823  -7.198  -0.360  0.00  0.00    -0.026 A 
ATOM     30  C   UNL     1       3.699  -7.459  -1.121  0.00  0.00    +0.009 A 
ATOM     31  C   UNL     1       3.605  -6.963  -2.408  0.00  0.00    +0.046 A 
ATOM     32  C   UNL     1       4.639  -6.204  -2.935  0.00  0.00    +0.120 A 
ATOM     33  C   UNL     1       5.766  -5.944  -2.168  0.00  0.00    +0.046 A 
ATOM     34  C   UNL     1       5.853  -6.437  -0.881  0.00  0.00    +0.009 A 
BRANCH  32  35
ATOM     35  O   UNL     1       4.550  -5.717  -4.200  0.00  0.00    -0.495 OA
ATOM     36  C   UNL     1       5.652  -4.943  -4.677  0.00  0.00    +0.277 C 
ENDBRANCH  32  35
ENDBRANCH  28  29
ENDBRANCH  27  28
ENDBRANCH  22  23
BRANCH  22  37
ATOM     37  C   UNL     1       1.894  -8.140   3.369  0.00  0.00    -0.024 C 
ATOM     38  C   UNL     1       0.603  -8.903   3.070  0.00  0.00    +0.006 C 
ATOM     39  C   UNL     1       3.069  -9.120   3.405  0.00  0.00    +0.006 C 
ENDBRANCH  22  37
ENDBRANCH   1  22
TORSDOF 11
