REMARK  Name = ZINC02956615
REMARK  5 active torsions:
REMARK  status: ('A' for Active; 'I' for Inactive)
REMARK    1  A    between atoms: C_15  and  C_17
REMARK    2  A    between atoms: C_17  and  S_18
REMARK    3  A    between atoms: S_18  and  C_19
REMARK    4  A    between atoms: C_25  and  C_27
REMARK    5  A    between atoms: C_27  and  N_28
REMARK                            x       y       z     vdW  Elec       q    Type
REMARK                         _______ _______ _______ _____ _____    ______ ____
ROOT
ATOM      1  S   UNL     1      -0.906  -4.842  -1.966  0.00  0.00    -0.088 S 
ENDROOT
BRANCH   1   2
ATOM      2  C   UNL     1      -0.689  -6.590  -1.988  0.00  0.00    +0.160 A 
ATOM      3  N   UNL     1       0.189  -7.347  -1.346  0.00  0.00    -0.133 NA
ATOM      4  N   UNL     1       0.208  -8.602  -1.476  0.00  0.00    -0.125 NA
ATOM      5  C   UNL     1      -0.646  -9.239  -2.261  0.00  0.00    +0.188 A 
ATOM      6  S   UNL     1      -1.595  -7.852  -2.879  0.00  0.00    -0.024 S 
ATOM      7  N   UNL     1      -0.773 -10.600  -2.526  0.00  0.00    -0.265 N 
ATOM      8  C   UNL     1       0.058 -11.482  -1.937  0.00  0.00    +0.202 C 
ATOM      9  O   UNL     1       0.917 -11.091  -1.176  0.00  0.00    -0.277 OA
ATOM     10  H   UNL     1      -1.461 -10.913  -3.135  0.00  0.00    +0.157 HD
BRANCH   8  11
ATOM     11  C   UNL     1      -0.080 -12.955  -2.224  0.00  0.00    +0.019 C 
BRANCH  11  12
ATOM     12  N   UNL     1       0.934 -13.699  -1.466  0.00  0.00    +0.385 N 
ATOM     13  C   UNL     1       2.271 -13.326  -1.944  0.00  0.00    -0.078 C 
ATOM     14  C   UNL     1       3.334 -14.037  -1.104  0.00  0.00    -0.019 C 
ATOM     15  C   UNL     1       3.150 -15.551  -1.232  0.00  0.00    -0.004 C 
ATOM     16  C   UNL     1       1.727 -15.920  -0.801  0.00  0.00    -0.019 C 
ATOM     17  C   UNL     1       0.724 -15.140  -1.653  0.00  0.00    -0.078 C 
ATOM     18  H   UNL     1       0.854 -13.472  -0.487  0.00  0.00    -0.081 HD
ENDBRANCH  11  12
ENDBRANCH   8  11
ENDBRANCH   1   2
BRANCH   1  19
ATOM     19  C   UNL     1       0.385  -4.253  -0.836  0.00  0.00    +0.173 C 
BRANCH  19  34
ATOM     20  C   UNL     1       2.802  -4.795   1.981  0.00  0.00    +0.002 A 
ATOM     21  C   UNL     1       2.733  -4.389   3.300  0.00  0.00    +0.001 A 
ATOM     22  C   UNL     1       2.056  -3.228   3.635  0.00  0.00    +0.017 A 
ATOM     23  C   UNL     1       1.451  -2.478   2.643  0.00  0.00    +0.035 A 
ATOM     24  C   UNL     1       1.518  -2.884   1.308  0.00  0.00    +0.055 A 
ATOM     25  C   UNL     1       2.198  -4.049   0.985  0.00  0.00    +0.025 A 
ATOM     26  N   UNL     1       0.908  -2.121   0.305  0.00  0.00    -0.237 N 
ATOM     27  C   UNL     1       0.902  -0.721   0.342  0.00  0.00    +0.055 A 
ATOM     28  C   UNL     1       1.042   0.010  -0.828  0.00  0.00    +0.025 A 
ATOM     29  C   UNL     1       1.036   1.392  -0.784  0.00  0.00    +0.002 A 
ATOM     30  C   UNL     1       0.893   2.054   0.421  0.00  0.00    +0.001 A 
ATOM     31  C   UNL     1       0.753   1.335   1.595  0.00  0.00    +0.017 A 
ATOM     32  C   UNL     1       0.757  -0.048   1.556  0.00  0.00    +0.035 A 
ATOM     33  S   UNL     1       0.581  -0.994   3.038  0.00  0.00    -0.086 S 
ATOM     34  C   UNL     1       0.309  -2.752  -0.725  0.00  0.00    +0.234 C 
ATOM     35  O   UNL     1      -0.290  -2.111  -1.563  0.00  0.00    -0.274 OA
ENDBRANCH  19  34
ENDBRANCH   1  19
TORSDOF 5
