REMARK  Name = ZINC39578361
REMARK  9 active torsions:
REMARK  status: ('A' for Active; 'I' for Inactive)
REMARK    1  A    between atoms: C_1  and  C_2
REMARK    2  A    between atoms: C_2  and  C_4
REMARK    3  A    between atoms: C_2  and  S_20
REMARK    4  A    between atoms: N_6  and  C_7
REMARK    5  A    between atoms: C_7  and  C_8
REMARK    6  A    between atoms: C_7  and  C_14
REMARK    7  A    between atoms: S_20  and  C_21
REMARK    8  A    between atoms: C_24  and  C_27
REMARK    9  A    between atoms: N_25  and  N_26
REMARK                            x       y       z     vdW  Elec       q    Type
REMARK                         _______ _______ _______ _____ _____    ______ ____
ROOT
ATOM      1  C   UNL     1      -0.019   1.526   0.010  0.00  0.00    +0.029 C 
ATOM      2  C   UNL     1       0.002  -0.004   0.002  0.00  0.00    +0.137 C 
ENDROOT
BRANCH   2   3
ATOM      3  C   UNL     1       0.731  -0.503   1.223  0.00  0.00    +0.227 C 
ATOM      4  O   UNL     1       1.911  -0.775   1.156  0.00  0.00    -0.275 OA
ATOM      5  N   UNL     1       0.071  -0.647   2.389  0.00  0.00    -0.304 N 
ATOM      6  H   UNL     1      -0.872  -0.430   2.443  0.00  0.00    +0.150 HD
BRANCH   5   7
ATOM      7  C   UNL     1       0.780  -1.133   3.576  0.00  0.00    +0.134 C 
BRANCH   7   8
ATOM      8  C   UNL     1       1.455   0.025   4.267  0.00  0.00    -0.023 A 
ATOM      9  C   UNL     1       0.805   1.240   4.373  0.00  0.00    +0.006 A 
ATOM     10  C   UNL     1       1.423   2.301   5.007  0.00  0.00    +0.000 A 
ATOM     11  C   UNL     1       2.692   2.147   5.534  0.00  0.00    +0.000 A 
ATOM     12  C   UNL     1       3.341   0.932   5.428  0.00  0.00    +0.000 A 
ATOM     13  C   UNL     1       2.721  -0.131   4.799  0.00  0.00    +0.006 A 
ENDBRANCH   7   8
BRANCH   7  14
ATOM     14  C   UNL     1      -0.203  -1.777   4.520  0.00  0.00    -0.023 A 
ATOM     15  C   UNL     1      -1.451  -1.213   4.708  0.00  0.00    +0.006 A 
ATOM     16  C   UNL     1      -2.353  -1.804   5.574  0.00  0.00    +0.000 A 
ATOM     17  C   UNL     1      -2.006  -2.959   6.250  0.00  0.00    +0.000 A 
ATOM     18  C   UNL     1      -0.758  -3.523   6.061  0.00  0.00    +0.000 A 
ATOM     19  C   UNL     1       0.142  -2.934   5.192  0.00  0.00    +0.006 A 
ENDBRANCH   7  14
ENDBRANCH   5   7
ENDBRANCH   2   3
BRANCH   2  20
ATOM     20  S   UNL     1       0.851  -0.589  -1.490  0.00  0.00    -0.072 S 
BRANCH  20  21
ATOM     21  C   UNL     1      -0.189  -0.057  -2.809  0.00  0.00    +0.209 A 
ATOM     22  N   UNL     1      -1.312   0.614  -2.696  0.00  0.00    -0.121 NA
ATOM     23  N   UNL     1      -1.808   0.835  -3.860  0.00  0.00    -0.132 NA
ATOM     24  C   UNL     1      -1.040   0.322  -4.779  0.00  0.00    +0.154 A 
ATOM     25  N   UNL     1       0.022  -0.259  -4.143  0.00  0.00    -0.228 N 
BRANCH  24  26
ATOM     26  C   UNL     1      -1.274   0.367  -6.267  0.00  0.00    +0.059 C 
ATOM     27  C   UNL     1      -1.328   1.824  -6.731  0.00  0.00    +0.011 C 
ATOM     28  C   UNL     1      -1.566   1.869  -8.242  0.00  0.00    +0.001 C 
ATOM     29  C   UNL     1      -2.892   1.179  -8.570  0.00  0.00    +0.000 C 
ATOM     30  C   UNL     1      -2.837  -0.277  -8.106  0.00  0.00    +0.001 C 
ATOM     31  C   UNL     1      -2.599  -0.323  -6.595  0.00  0.00    +0.011 C 
ENDBRANCH  24  26
BRANCH  25  32
ATOM     32  N   UNL     1       1.075  -0.910  -4.721  0.00  0.00    -0.295 N 
ATOM     33  H   UNL     1       0.878  -1.894  -4.827  0.00  0.00    +0.163 HD
ATOM     34  H   UNL     1       1.316  -0.492  -5.607  0.00  0.00    +0.163 HD
ENDBRANCH  25  32
ENDBRANCH  20  21
ENDBRANCH   2  20
TORSDOF 8
