REMARK  Name = ZINC11898379
REMARK  9 active torsions:
REMARK  status: ('A' for Active; 'I' for Inactive)
REMARK    1  A    between atoms: C_1  and  C_2
REMARK    2  A    between atoms: C_4  and  C_32
REMARK    3  A    between atoms: C_6  and  N_8
REMARK    4  A    between atoms: C_9  and  C_11
REMARK    5  A    between atoms: N_13  and  C_14
REMARK    6  A    between atoms: C_14  and  C_15
REMARK    7  A    between atoms: C_15  and  C_17
REMARK    8  A    between atoms: C_15  and  N_62
REMARK    9  A    between atoms: N_21  and  C_22
REMARK                            x       y       z     vdW  Elec       q    Type
REMARK                         _______ _______ _______ _____ _____    ______ ____
ROOT
ATOM      1  C   UNL     1      -1.883  -0.500  -0.033  0.00  0.00    -0.003 C 
ENDROOT
BRANCH   1  11
ATOM      2  C   UNL     1      -0.986  -2.021   1.627  0.00  0.00    -0.073 C 
ATOM      3  C   UNL     1      -0.975  -3.502   2.007  0.00  0.00    +0.017 C 
ATOM      4  C   UNL     1      -0.307  -4.306   0.922  0.00  0.00    -0.048 A 
ATOM      5  C   UNL     1       0.118  -5.593   1.218  0.00  0.00    +0.004 A 
ATOM      6  C   UNL     1       0.730  -6.365   0.252  0.00  0.00    +0.000 A 
ATOM      7  C   UNL     1       0.922  -5.854  -1.018  0.00  0.00    +0.000 A 
ATOM      8  C   UNL     1       0.502  -4.572  -1.314  0.00  0.00    +0.002 A 
ATOM      9  C   UNL     1      -0.113  -3.795  -0.343  0.00  0.00    -0.061 A 
ATOM     10  C   UNL     1      -0.550  -2.401  -0.713  0.00  0.00    -0.042 C 
ATOM     11  N   UNL     1      -1.538  -1.909   0.262  0.00  0.00    +0.389 N 
ATOM     12  H   UNL     1      -2.388  -2.482   0.196  0.00  0.00    -0.080 HD
ENDBRANCH   1  11
BRANCH   1  13
ATOM     13  C   UNL     1      -0.666   0.377   0.113  0.00  0.00    +0.006 A 
ATOM     14  C   UNL     1       0.587  -0.046   0.378  0.00  0.00    +0.021 A 
ATOM     15  C   UNL     1       1.415   1.092   0.430  0.00  0.00    +0.019 A 
ATOM     16  C   UNL     1       0.636   2.168   0.195  0.00  0.00    +0.085 A 
ATOM     17  N   UNL     1      -0.642   1.736  -0.001  0.00  0.00    -0.355 N 
ATOM     18  C   UNL     1      -1.797   2.589  -0.291  0.00  0.00    +0.148 C 
ENDBRANCH   1  13
BRANCH   1  19
ATOM     19  C   UNL     1      -2.412  -0.403  -1.465  0.00  0.00    +0.095 C 
BRANCH  19  22
ATOM     20  C   UNL     1      -4.109  -1.480  -2.843  0.00  0.00    +0.299 C 
ATOM     21  O   UNL     1      -3.681  -0.866  -3.798  0.00  0.00    -0.265 OA
ATOM     22  N   UNL     1      -3.543  -1.319  -1.631  0.00  0.00    -0.309 N 
ATOM     23  H   UNL     1      -3.885  -1.810  -0.867  0.00  0.00    +0.149 HD
BRANCH  20  25
ATOM     24  N   UNL     1      -5.828  -2.575  -4.225  0.00  0.00    -0.278 N 
ATOM     25  C   UNL     1      -5.262  -2.414  -3.012  0.00  0.00    +0.303 C 
ATOM     26  O   UNL     1      -5.690  -3.028  -2.057  0.00  0.00    -0.265 OA
ATOM     27  H   UNL     1      -5.448  -2.131  -4.999  0.00  0.00    +0.155 HD
BRANCH  24  33
ATOM     28  C   UNL     1     -10.132  -3.472  -6.422  0.00  0.00    +0.044 C 
ATOM     29  C   UNL     1      -9.064  -3.838  -5.423  0.00  0.00    -0.048 A 
ATOM     30  C   UNL     1      -9.206  -4.973  -4.645  0.00  0.00    +0.006 A 
ATOM     31  C   UNL     1      -8.229  -5.312  -3.728  0.00  0.00    -0.048 A 
ATOM     32  C   UNL     1      -7.107  -4.520  -3.586  0.00  0.00    +0.026 A 
ATOM     33  C   UNL     1      -6.961  -3.379  -4.366  0.00  0.00    +0.034 A 
ATOM     34  C   UNL     1      -7.947  -3.038  -5.283  0.00  0.00    +0.026 A 
ATOM     35  C   UNL     1      -8.388  -6.550  -2.882  0.00  0.00    +0.044 C 
ENDBRANCH  24  33
ENDBRANCH  20  25
ENDBRANCH  19  22
ENDBRANCH   1  19
TORSDOF 6
