REMARK  Name = ZINC38686356
REMARK  9 active torsions:
REMARK  status: ('A' for Active; 'I' for Inactive)
REMARK    1  A    between atoms: C_3  and  C_6
REMARK    2  A    between atoms: C_6  and  O_8
REMARK    3  A    between atoms: O_8  and  C_9
REMARK    4  A    between atoms: C_16  and  N_37
REMARK    5  A    between atoms: C_17  and  C_35
REMARK    6  A    between atoms: C_18  and  C_20
REMARK    7  A    between atoms: C_23  and  O_26
REMARK    8  A    between atoms: O_26  and  C_27
REMARK    9  A    between atoms: C_27  and  C_28
REMARK                            x       y       z     vdW  Elec       q    Type
REMARK                         _______ _______ _______ _____ _____    ______ ____
ROOT
ATOM      1  C   UNL     1       5.956   1.265  -0.014  0.00  0.00    +0.135 A 
ATOM      2  C   UNL     1       6.133   2.639   0.069  0.00  0.00    +0.047 A 
ATOM      3  C   UNL     1       7.407   3.170   0.094  0.00  0.00    +0.012 A 
ATOM      4  C   UNL     1       8.511   2.337   0.036  0.00  0.00    +0.008 A 
ATOM      5  C   UNL     1       8.340   0.964  -0.047  0.00  0.00    +0.138 A 
ATOM      6  C   UNL     1       7.059   0.428  -0.066  0.00  0.00    +0.093 A 
ATOM      7  O   UNL     1       9.409   0.132  -0.105  0.00  0.00    -0.441 OA
ATOM      8  C   UNL     1      10.611   0.610  -0.466  0.00  0.00    +0.199 C 
ATOM      9  C   UNL     1      10.904   1.931  -0.410  0.00  0.00    +0.098 C 
ATOM     10  C   UNL     1       9.892   2.936   0.064  0.00  0.00    +0.098 C 
ENDROOT
BRANCH  10  11
ATOM     11  C   UNL     1      10.226   3.354   1.473  0.00  0.00    -0.034 A 
ATOM     12  C   UNL     1      10.252   2.413   2.485  0.00  0.00    +0.008 A 
ATOM     13  C   UNL     1      10.557   2.794   3.777  0.00  0.00    +0.046 A 
ATOM     14  C   UNL     1      10.838   4.123   4.059  0.00  0.00    +0.121 A 
ATOM     15  C   UNL     1      10.812   5.066   3.042  0.00  0.00    +0.046 A 
ATOM     16  C   UNL     1      10.512   4.679   1.750  0.00  0.00    +0.008 A 
BRANCH  14  17
ATOM     17  O   UNL     1      11.139   4.500   5.330  0.00  0.00    -0.487 OA
BRANCH  17  18
ATOM     18  C   UNL     1      11.418   5.885   5.546  0.00  0.00    +0.264 C 
BRANCH  18  19
ATOM     19  C   UNL     1      11.726   6.113   7.004  0.00  0.00    -0.010 A 
ATOM     20  C   UNL     1      10.707   6.412   7.888  0.00  0.00    +0.008 A 
ATOM     21  C   UNL     1      10.989   6.622   9.224  0.00  0.00    +0.020 A 
ATOM     22  C   UNL     1      12.293   6.531   9.678  0.00  0.00    +0.041 A 
ATOM     23  C   UNL     1      13.313   6.232   8.792  0.00  0.00    +0.020 A 
ATOM     24  C   UNL     1      13.029   6.017   7.457  0.00  0.00    +0.008 A 
ATOM     25 CL   UNL     1      12.649   6.795  11.356  0.00  0.00    -0.084 Cl
ENDBRANCH  18  19
ENDBRANCH  17  18
ENDBRANCH  14  17
ENDBRANCH  10  11
BRANCH   8  26
ATOM     26  N   UNL     1      11.572  -0.267  -0.905  0.00  0.00    -0.328 N 
ATOM     27  H   UNL     1      11.377  -1.216  -0.950  0.00  0.00    +0.145 HD
ATOM     28  H   UNL     1      12.445   0.063  -1.169  0.00  0.00    +0.145 HD
ENDBRANCH   8  26
BRANCH   9  29
ATOM     29  C   UNL     1      12.204   2.379  -0.809  0.00  0.00    +0.101 C 
ATOM     30  N   UNL     1      13.236   2.734  -1.125  0.00  0.00    -0.191 NA
ENDBRANCH   9  29
BRANCH   1  31
ATOM     31  O   UNL     1       4.702   0.741  -0.039  0.00  0.00    -0.422 OA
BRANCH  31  32
ATOM     32  C   UNL     1       4.227   0.182   1.094  0.00  0.00    +0.351 C 
ATOM     33  O   UNL     1       4.946   0.078   2.069  0.00  0.00    -0.244 OA
BRANCH  32  36
ATOM     34  C   UNL     1       0.863  -1.244   1.952  0.00  0.00    +0.008 A 
ATOM     35  C   UNL     1       2.168  -0.896   2.202  0.00  0.00    +0.022 A 
ATOM     36  C   UNL     1       2.845  -0.298   1.149  0.00  0.00    +0.097 A 
ATOM     37  S   UNL     1       1.593  -0.269  -0.121  0.00  0.00    -0.090 S 
ATOM     38  C   UNL     1       0.335  -0.988   0.729  0.00  0.00    +0.046 A 
ENDBRANCH  32  36
ENDBRANCH  31  32
ENDBRANCH   1  31
TORSDOF 9
