REMARK  Name = ZINC12183084
REMARK  6 active torsions:
REMARK  status: ('A' for Active; 'I' for Inactive)
REMARK    1  A    between atoms: C_1  and  C_2
REMARK    2  A    between atoms: C_19  and  C_20
REMARK    3  A    between atoms: C_19  and  N_56
REMARK    4  A    between atoms: C_23  and  O_27
REMARK    5  A    between atoms: C_25  and  O_26
REMARK    6  A    between atoms: O_27  and  C_28
REMARK                            x       y       z     vdW  Elec       q    Type
REMARK                         _______ _______ _______ _____ _____    ______ ____
ROOT
ATOM      1  C   UNL     1     -13.473   7.649  -3.152  0.00  0.00    +0.007 C 
ATOM      2  C   UNL     1     -12.610   6.462  -2.718  0.00  0.00    -0.011 C 
ATOM      3  C   UNL     1     -12.279   6.588  -1.229  0.00  0.00    +0.022 C 
ATOM      4  C   UNL     1     -11.366   5.432  -0.815  0.00  0.00    +0.108 C 
ATOM      5  N   UNL     1     -10.134   5.470  -1.613  0.00  0.00    -0.301 N 
ATOM      6  C   UNL     1     -10.422   5.303  -3.043  0.00  0.00    +0.108 C 
ATOM      7  C   UNL     1     -11.307   6.456  -3.523  0.00  0.00    +0.022 C 
ATOM      8  C   UNL     1      -9.240   4.527  -1.180  0.00  0.00    +0.198 A 
ATOM      9  N   UNL     1      -7.998   4.479  -1.733  0.00  0.00    -0.295 N 
ATOM     10  H   UNL     1      -7.748   5.109  -2.427  0.00  0.00    +0.172 HD
ATOM     11  C   UNL     1      -7.116   3.550  -1.310  0.00  0.00    +0.254 A 
ATOM     12  O   UNL     1      -5.998   3.492  -1.794  0.00  0.00    -0.268 OA
ATOM     13  C   UNL     1      -7.508   2.647  -0.301  0.00  0.00    +0.022 A 
ATOM     14  C   UNL     1      -8.760   2.744   0.219  0.00  0.00    +0.050 A 
ATOM     15  N   UNL     1      -9.596   3.683  -0.235  0.00  0.00    -0.221 NA
ATOM     16  C   UNL     1      -9.241   1.817   1.305  0.00  0.00    +0.037 C 
ATOM     17  C   UNL     1      -8.334   0.588   1.383  0.00  0.00    -0.072 C 
ATOM     18  C   UNL     1      -6.525   1.605   0.158  0.00  0.00    -0.035 C 
ATOM     19  N   UNL     1      -6.939   1.063   1.464  0.00  0.00    +0.386 N 
ATOM     20  H   UNL     1      -6.878   1.805   2.170  0.00  0.00    -0.081 HD
ENDROOT
BRANCH  19  21
ATOM     21  C   UNL     1      -6.045  -0.050   1.856  0.00  0.00    -0.039 C 
BRANCH  21  22
ATOM     22  C   UNL     1      -4.611   0.377   1.677  0.00  0.00    -0.022 A 
ATOM     23  C   UNL     1      -3.902  -0.031   0.563  0.00  0.00    +0.009 A 
ATOM     24  C   UNL     1      -2.589   0.364   0.394  0.00  0.00    +0.046 A 
ATOM     25  C   UNL     1      -1.975   1.163   1.348  0.00  0.00    +0.124 A 
ATOM     26  C   UNL     1      -2.683   1.574   2.466  0.00  0.00    +0.091 A 
ATOM     27  C   UNL     1      -4.003   1.181   2.631  0.00  0.00    +0.122 A 
BRANCH  27  28
ATOM     28  O   UNL     1      -4.700   1.582   3.727  0.00  0.00    -0.506 OA
ATOM     29  H   UNL     1      -5.171   2.419   3.609  0.00  0.00    +0.292 HD
ENDBRANCH  27  28
BRANCH  25  30
ATOM     30  O   UNL     1      -0.682   1.547   1.184  0.00  0.00    -0.495 OA
ATOM     31  C   UNL     1      -0.013   1.086   0.008  0.00  0.00    +0.277 C 
ENDBRANCH  25  30
ENDBRANCH  21  22
ENDBRANCH  19  21
TORSDOF 4
