REMARK  Name = ZINC39677060
REMARK  9 active torsions:
REMARK  status: ('A' for Active; 'I' for Inactive)
REMARK    1  A    between atoms: C_1  and  C_2
REMARK    2  A    between atoms: C_5  and  C_36
REMARK    3  A    between atoms: C_6  and  C_8
REMARK    4  A    between atoms: C_8  and  C_9
REMARK    5  A    between atoms: C_9  and  N_10
REMARK    6  A    between atoms: C_11  and  C_13
REMARK    7  A    between atoms: C_24  and  C_26
REMARK    8  A    between atoms: C_29  and  O_33
REMARK    9  A    between atoms: O_33  and  C_34
REMARK                            x       y       z     vdW  Elec       q    Type
REMARK                         _______ _______ _______ _____ _____    ______ ____
ROOT
ATOM      1  C   UNL     1       2.880  -4.436   5.938  0.00  0.00    +0.100 C 
ATOM      2  C   UNL     1       2.284  -3.815   7.222  0.00  0.00    +0.121 C 
ATOM      3  N   UNL     1       3.151  -4.313   8.315  0.00  0.00    -0.296 N 
ATOM      4  C   UNL     1       4.521  -4.272   7.748  0.00  0.00    +0.115 C 
ATOM      5  C   UNL     1       4.348  -4.733   6.287  0.00  0.00    -0.004 C 
ATOM      6  C   UNL     1       5.279  -3.945   5.372  0.00  0.00    -0.010 C 
ATOM      7  C   UNL     1       6.732  -4.302   5.699  0.00  0.00    -0.082 C 
ATOM      8  N   UNL     1       6.937  -5.744   5.515  0.00  0.00    +0.379 N 
ATOM      9  C   UNL     1       6.105  -6.493   6.464  0.00  0.00    -0.082 C 
ATOM     10  C   UNL     1       4.626  -6.229   6.169  0.00  0.00    -0.010 C 
ATOM     11  C   UNL     1       2.779  -4.714   9.547  0.00  0.00    +0.247 C 
ATOM     12  O   UNL     1       1.599  -4.812   9.824  0.00  0.00    -0.270 OA
ATOM     13  H   UNL     1       6.684  -6.000   4.572  0.00  0.00    -0.086 HD
ATOM     14  H   UNL     1       7.908  -5.967   5.672  0.00  0.00    -0.086 HD
ENDROOT
BRANCH  11  15
ATOM     15  C   UNL     1       3.804  -5.033  10.560  0.00  0.00    +0.040 A 
ATOM     16  C   UNL     1       5.100  -4.528  10.429  0.00  0.00    +0.036 A 
ATOM     17  C   UNL     1       6.054  -4.829  11.377  0.00  0.00    +0.085 A 
ATOM     18  C   UNL     1       5.729  -5.634  12.463  0.00  0.00    +0.157 A 
ATOM     19  C   UNL     1       4.440  -6.138  12.597  0.00  0.00    +0.085 A 
ATOM     20  C   UNL     1       3.479  -5.837  11.656  0.00  0.00    +0.036 A 
ATOM     21 CL   UNL     1       4.039  -7.143  13.955  0.00  0.00    -0.080 Cl
ATOM     22 CL   UNL     1       7.665  -4.202  11.215  0.00  0.00    -0.080 Cl
BRANCH  18  23
ATOM     23  O   UNL     1       6.671  -5.928  13.394  0.00  0.00    -0.492 OA
ATOM     24  C   UNL     1       6.787  -5.036  14.505  0.00  0.00    +0.277 C 
ENDBRANCH  18  23
ENDBRANCH  11  15
BRANCH   1  26
ATOM     25  N   UNL     1       2.675  -3.903   3.531  0.00  0.00    -0.315 N 
ATOM     26  C   UNL     1       2.801  -3.455   4.796  0.00  0.00    +0.218 C 
ATOM     27  O   UNL     1       2.850  -2.264   5.015  0.00  0.00    -0.275 OA
ATOM     28  H   UNL     1       2.635  -4.856   3.356  0.00  0.00    +0.149 HD
BRANCH  25  29
ATOM     29  C   UNL     1       2.598  -2.950   2.421  0.00  0.00    +0.109 C 
BRANCH  29  30
ATOM     30  C   UNL     1       2.459  -3.714   1.102  0.00  0.00    +0.054 C 
BRANCH  30  36
ATOM     31  C   UNL     1      -0.267  -1.001  -2.100  0.00  0.00    +0.044 C 
ATOM     32  C   UNL     1       1.076  -1.437  -1.572  0.00  0.00    -0.050 A 
ATOM     33  C   UNL     1       2.235  -0.937  -2.136  0.00  0.00    +0.003 A 
ATOM     34  C   UNL     1       3.467  -1.336  -1.652  0.00  0.00    +0.004 A 
ATOM     35  C   UNL     1       3.539  -2.235  -0.604  0.00  0.00    -0.047 A 
ATOM     36  C   UNL     1       2.380  -2.734  -0.040  0.00  0.00    -0.043 A 
ATOM     37  C   UNL     1       1.148  -2.331  -0.521  0.00  0.00    +0.007 A 
ATOM     38  C   UNL     1       4.882  -2.671  -0.076  0.00  0.00    +0.044 C 
ENDBRANCH  30  36
ENDBRANCH  29  30
ENDBRANCH  25  29
ENDBRANCH   1  26
TORSDOF 6
