REMARK  Name = ZINC40743380
REMARK  9 active torsions:
REMARK  status: ('A' for Active; 'I' for Inactive)
REMARK    1  A    between atoms: CG_7  and  CB_11
REMARK    2  A    between atoms: CB_11  and  CA_12
REMARK    3  A    between atoms: CA_12  and  C_14
REMARK    4  A    between atoms: CA_12  and  N_17
REMARK    5  A    between atoms: N_17  and  C_18
REMARK    6  A    between atoms: C_18  and  C_19
REMARK    7  A    between atoms: C_24  and  O_25
REMARK    8  A    between atoms: O_25  and  C_26
REMARK    9  A    between atoms: C_26  and  C_27
REMARK                            x       y       z     vdW  Elec       q    Type
REMARK                         _______ _______ _______ _____ _____    ______ ____
ROOT
ATOM      1  N   TRP A   1      -0.552  -2.469  -1.986  0.00  0.00    +0.391 N 
ATOM      2  H1  TRP A   1      -1.410  -2.383  -1.463  0.00  0.00    -0.084 HD
ATOM      3  H2  TRP A   1      -0.021  -1.615  -1.903  0.00  0.00    -0.084 HD
ENDROOT
BRANCH   1   4
ATOM      4  CA  TRP A   1       0.236  -3.589  -1.455  0.00  0.00    +0.048 C 
BRANCH   4   5
ATOM      5  C   TRP A   1      -0.602  -4.842  -1.466  0.00  0.00    +0.343 C 
ATOM      6  O   TRP A   1      -1.796  -4.775  -1.702  0.00  0.00    -0.248 OA
ATOM      7  OXT TRP A   1      -0.085  -5.923  -1.238  0.00  0.00    -0.248 OA
ENDBRANCH   4   5
BRANCH   4   8
ATOM      8  CB  TRP A   1       0.666  -3.275  -0.021  0.00  0.00    +0.032 C 
BRANCH   8  15
ATOM      9  CZ3 TRP A   1      -0.017   1.362   0.009  0.00  0.00    +0.001 A 
ATOM     10  CH2 TRP A   1       1.170   2.083   0.002  0.00  0.00    +0.002 A 
ATOM     11  CZ2 TRP A   1       2.386   1.436  -0.013  0.00  0.00    +0.026 A 
ATOM     12  CE2 TRP A   1       2.428   0.046  -0.021  0.00  0.00    +0.047 A 
ATOM     13  CD2 TRP A   1       1.223  -0.681  -0.013  0.00  0.00    +0.003 A 
ATOM     14  CE3 TRP A   1       0.002  -0.004   0.002  0.00  0.00    +0.010 A 
ATOM     15  CG  TRP A   1       1.604  -2.095  -0.025  0.00  0.00    -0.023 A 
ATOM     16  CD1 TRP A   1       2.945  -2.141  -0.038  0.00  0.00    +0.087 A 
ATOM     17  NE1 TRP A   1       3.455  -0.871  -0.036  0.00  0.00    -0.360 N 
ATOM     18  HE1 TRP A   1       4.399  -0.650  -0.044  0.00  0.00    +0.165 HD
ENDBRANCH   8  15
ENDBRANCH   4   8
ENDBRANCH   1   4
BRANCH   1  19
ATOM     19  C   UNK A   0      -0.863  -2.716  -3.401  0.00  0.00    -0.042 C 
BRANCH  19  20
ATOM     20  C   UNK A   0      -1.672  -1.567  -3.945  0.00  0.00    -0.021 A 
ATOM     21  C   UNK A   0      -3.044  -1.680  -4.060  0.00  0.00    +0.025 A 
ATOM     22  C   UNK A   0      -3.786  -0.625  -4.560  0.00  0.00    +0.041 A 
ATOM     23  C   UNK A   0      -3.156   0.545  -4.946  0.00  0.00    +0.023 A 
ATOM     24  C   UNK A   0      -1.785   0.662  -4.832  0.00  0.00    +0.047 A 
ATOM     25  C   UNK A   0      -1.039  -0.392  -4.326  0.00  0.00    +0.122 A 
ATOM     26 CL   UNK A   0      -5.510  -0.770  -4.705  0.00  0.00    -0.084 Cl
BRANCH  25  27
ATOM     27  O   UNK A   0       0.310  -0.277  -4.208  0.00  0.00    -0.487 OA
BRANCH  27  28
ATOM     28  C   UNK A   0       0.894   0.961  -4.619  0.00  0.00    +0.268 C 
BRANCH  28  29
ATOM     29  C   UNK A   0       2.386   0.904  -4.417  0.00  0.00    +0.043 A 
ATOM     30  C   UNK A   0       2.937   1.305  -3.211  0.00  0.00    +0.131 A 
ATOM     31  C   UNK A   0       4.308   1.253  -3.026  0.00  0.00    +0.039 A 
ATOM     32  C   UNK A   0       5.126   0.800  -4.045  0.00  0.00    +0.004 A 
ATOM     33  C   UNK A   0       4.576   0.400  -5.248  0.00  0.00    +0.020 A 
ATOM     34  C   UNK A   0       3.205   0.447  -5.432  0.00  0.00    +0.050 A 
ATOM     35 CL   UNK A   0       2.514  -0.063  -6.941  0.00  0.00    -0.083 Cl
ATOM     36  F   UNK A   0       2.138   1.748  -2.216  0.00  0.00    -0.205 F 
ENDBRANCH  28  29
ENDBRANCH  27  28
ENDBRANCH  25  27
ENDBRANCH  19  20
ENDBRANCH   1  19
TORSDOF 9
