REMARK  Name = ZINC25676541
REMARK  5 active torsions:
REMARK  status: ('A' for Active; 'I' for Inactive)
REMARK    1  A    between atoms: C_1  and  N_2
REMARK    2  A    between atoms: N_2  and  C_3
REMARK    3  A    between atoms: C_11  and  C_13
REMARK    4  A    between atoms: N_19  and  S_20
REMARK    5  A    between atoms: S_20  and  C_23
REMARK                            x       y       z     vdW  Elec       q    Type
REMARK                         _______ _______ _______ _____ _____    ______ ____
ROOT
ATOM      1  C   UNL     1      -0.674   1.132   0.009  0.00  0.00    +0.166 C 
ATOM      2  C   UNL     1      -1.385   1.079  -1.347  0.00  0.00    +0.030 C 
ATOM      3  C   UNL     1      -2.899   0.986  -1.118  0.00  0.00    +0.003 C 
ATOM      4  C   UNL     1      -3.381   2.228  -0.364  0.00  0.00    +0.017 C 
ATOM      5  C   UNL     1      -2.689   2.293   1.001  0.00  0.00    +0.110 C 
ATOM      6  N   UNL     1      -1.235   2.237   0.798  0.00  0.00    -0.165 NA
ENDROOT
BRANCH   1   9
ATOM      7  C   UNL     1       1.239  -0.645   1.111  0.00  0.00    +0.132 C 
ATOM      8  N   UNL     1       1.698   0.505   0.328  0.00  0.00    -0.299 N 
ATOM      9  C   UNL     1       0.801   1.360  -0.203  0.00  0.00    +0.235 C 
ATOM     10  O   UNL     1       1.180   2.312  -0.851  0.00  0.00    -0.274 OA
BRANCH   8  11
ATOM     11  C   UNL     1       3.131   0.727   0.122  0.00  0.00    +0.098 C 
ATOM     12  C   UNL     1       3.736  -0.485  -0.606  0.00  0.00    +0.046 C 
ATOM     13  C   UNL     1       5.285  -0.371  -0.532  0.00  0.00    +0.168 C 
ATOM     14  S   UNL     1       5.498   0.215   1.202  0.00  0.00    -0.029 S 
ATOM     15  O   UNL     1       5.682  -0.910   2.050  0.00  0.00    -0.174 OA
ATOM     16  O   UNL     1       6.452   1.268   1.220  0.00  0.00    -0.174 OA
ATOM     17  C   UNL     1       3.824   0.918   1.494  0.00  0.00    +0.188 C 
ENDBRANCH   8  11
ENDBRANCH   1   9
BRANCH   6  18
ATOM     18  S   UNL     1      -0.247   3.398   1.444  0.00  0.00    +0.062 S 
ATOM     19  O   UNL     1      -0.910   3.899   2.598  0.00  0.00    -0.153 OA
ATOM     20  O   UNL     1       1.057   2.838   1.499  0.00  0.00    -0.153 OA
BRANCH  18  21
ATOM     21  C   UNL     1      -0.177   4.726   0.288  0.00  0.00    +0.106 A 
ATOM     22  C   UNL     1       0.908   4.848  -0.559  0.00  0.00    +0.029 A 
ATOM     23  C   UNL     1       0.961   5.886  -1.470  0.00  0.00    +0.017 A 
ATOM     24  C   UNL     1      -0.067   6.810  -1.526  0.00  0.00    +0.018 A 
ATOM     25  C   UNL     1      -1.151   6.691  -0.674  0.00  0.00    +0.017 A 
ATOM     26  C   UNL     1      -1.205   5.649   0.233  0.00  0.00    +0.029 A 
ATOM     27 BR   UNL     1       0.008   8.236  -2.766  0.00  0.00    -0.050 Br
ENDBRANCH  18  21
ENDBRANCH   6  18
TORSDOF 4
