REMARK  Name = ZINC20584300
REMARK  8 active torsions:
REMARK  status: ('A' for Active; 'I' for Inactive)
REMARK    1  A    between atoms: C_1  and  C_2
REMARK    2  A    between atoms: C_2  and  C_3
REMARK    3  A    between atoms: C_6  and  N_9
REMARK    4  A    between atoms: C_11  and  C_16
REMARK    5  A    between atoms: C_22  and  C_24
REMARK    6  A    between atoms: C_24  and  S_25
REMARK    7  A    between atoms: S_25  and  C_26
REMARK    8  A    between atoms: C_26  and  C_27
REMARK                            x       y       z     vdW  Elec       q    Type
REMARK                         _______ _______ _______ _____ _____    ______ ____
ROOT
ATOM      1  C   UNL     1      -6.875   5.197   6.564  0.00  0.00    +0.109 A 
ATOM      2  N   UNL     1      -5.718   4.566   6.611  0.00  0.00    -0.144 NA
ATOM      3  N   UNL     1      -5.120   4.239   5.548  0.00  0.00    -0.126 NA
ATOM      4  C   UNL     1      -5.618   4.511   4.354  0.00  0.00    +0.188 A 
ATOM      5  S   UNL     1      -7.092   5.324   4.793  0.00  0.00    -0.035 S 
ATOM      6  N   UNL     1      -5.103   4.230   3.093  0.00  0.00    -0.263 N 
ATOM      7  C   UNL     1      -3.924   3.586   2.975  0.00  0.00    +0.229 C 
ATOM      8  O   UNL     1      -3.313   3.253   3.969  0.00  0.00    -0.275 OA
ATOM      9  H   UNL     1      -5.657   4.532   2.192  0.00  0.00    +0.157 HD
ENDROOT
BRANCH   1  12
ATOM     10  N   UNL     1      -8.173   5.089   9.972  0.00  0.00    -0.271 N 
ATOM     11  C   UNL     1      -8.149   4.514   8.622  0.00  0.00    +0.124 C 
ATOM     12  C   UNL     1      -7.760   5.678   7.684  0.00  0.00    +0.073 C 
ATOM     13  C   UNL     1      -6.981   6.609   8.643  0.00  0.00    +0.108 C 
ATOM     14  C   UNL     1      -7.520   6.263  10.014  0.00  0.00    +0.220 C 
ATOM     15  O   UNL     1      -7.383   6.946  11.007  0.00  0.00    -0.275 OA
BRANCH  10  19
ATOM     16  C   UNL     1     -10.030   3.312  13.250  0.00  0.00    -0.048 A 
ATOM     17  C   UNL     1     -10.164   2.750  11.994  0.00  0.00    +0.005 A 
ATOM     18  C   UNL     1      -9.549   3.337  10.905  0.00  0.00    +0.024 A 
ATOM     19  C   UNL     1      -8.797   4.492  11.073  0.00  0.00    +0.036 A 
ATOM     20  C   UNL     1      -8.661   5.051  12.337  0.00  0.00    +0.024 A 
ATOM     21  C   UNL     1      -9.283   4.463  13.421  0.00  0.00    +0.005 A 
BRANCH  16  23
ATOM     22  C   UNL     1      -9.751   1.651  15.071  0.00  0.00    +0.009 C 
ATOM     23  C   UNL     1     -10.701   2.669  14.436  0.00  0.00    +0.032 C 
ENDBRANCH  16  23
ENDBRANCH  10  19
ENDBRANCH   1  12
BRANCH   7  24
ATOM     24  C   UNL     1      -3.365   3.282   1.609  0.00  0.00    +0.165 C 
BRANCH  24  25
ATOM     25  S   UNL     1      -1.781   2.416   1.784  0.00  0.00    -0.147 S 
BRANCH  25  26
ATOM     26  C   UNL     1      -1.249   2.126   0.074  0.00  0.00    +0.104 C 
BRANCH  26  27
ATOM     27  C   UNL     1       0.074   1.404   0.075  0.00  0.00    -0.036 A 
ATOM     28  C   UNL     1       0.106   0.022   0.075  0.00  0.00    +0.006 A 
ATOM     29  C   UNL     1       1.319  -0.641   0.071  0.00  0.00    +0.022 A 
ATOM     30  C   UNL     1       2.501   0.077   0.066  0.00  0.00    +0.059 A 
ATOM     31  C   UNL     1       2.468   1.462   0.065  0.00  0.00    +0.060 A 
ATOM     32  C   UNL     1       1.254   2.124   0.070  0.00  0.00    +0.026 A 
ATOM     33 CL   UNL     1       3.950   2.365   0.059  0.00  0.00    -0.082 Cl
ATOM     34 CL   UNL     1       4.024  -0.755   0.060  0.00  0.00    -0.082 Cl
ENDBRANCH  26  27
ENDBRANCH  25  26
ENDBRANCH  24  25
ENDBRANCH   7  24
TORSDOF 7
