REMARK  Name = ZINC36484923
REMARK  12 active torsions:
REMARK  status: ('A' for Active; 'I' for Inactive)
REMARK    1  A    between atoms: C_1  and  C_2
REMARK    2  A    between atoms: C_2  and  C_3
REMARK    3  A    between atoms: C_3  and  C_4
REMARK    4  A    between atoms: C_3  and  C_6
REMARK    5  A    between atoms: C_4  and  C_5
REMARK    6  A    between atoms: C_6  and  C_8
REMARK    7  A    between atoms: C_6  and  N_17
REMARK    8  A    between atoms: N_10  and  C_11
REMARK    9  A    between atoms: N_17  and  C_18
REMARK   10  A    between atoms: C_25  and  C_27
REMARK   11  A    between atoms: C_28  and  O_34
REMARK   12  A    between atoms: C_32  and  O_33
REMARK                            x       y       z     vdW  Elec       q    Type
REMARK                         _______ _______ _______ _____ _____    ______ ____
ROOT
ATOM      1  N   UNL     1       0.124   1.527  -2.553  0.00  0.00    -0.255 N 
ATOM      2  C   UNL     1      -0.937   2.357  -2.518  0.00  0.00    +0.259 C 
ATOM      3  O   UNL     1      -0.772   3.548  -2.334  0.00  0.00    -0.269 OA
ENDROOT
BRANCH   1   4
ATOM      4  C   UNL     1       1.393   2.000  -2.207  0.00  0.00    +0.039 A 
ATOM      5  C   UNL     1       2.520   1.236  -2.485  0.00  0.00    +0.023 A 
ATOM      6  C   UNL     1       3.773   1.706  -2.143  0.00  0.00    +0.003 A 
ATOM      7  C   UNL     1       3.907   2.935  -1.524  0.00  0.00    +0.020 A 
ATOM      8  C   UNL     1       2.787   3.699  -1.245  0.00  0.00    +0.043 A 
ATOM      9  C   UNL     1       1.531   3.236  -1.590  0.00  0.00    +0.043 A 
ATOM     10 CL   UNL     1       2.961   5.241  -0.468  0.00  0.00    -0.083 Cl
ENDBRANCH   1   4
BRANCH   2  11
ATOM     11  C   UNL     1      -2.297   1.823  -2.702  0.00  0.00    +0.120 A 
ATOM     12  C   UNL     1      -3.140   1.641  -1.597  0.00  0.00    +0.133 A 
ATOM     13  C   UNL     1      -4.418   1.138  -1.782  0.00  0.00    +0.046 A 
ATOM     14  C   UNL     1      -4.862   0.816  -3.050  0.00  0.00    +0.007 A 
ATOM     15  C   UNL     1      -4.039   0.991  -4.147  0.00  0.00    +0.046 A 
ATOM     16  C   UNL     1      -2.760   1.498  -3.986  0.00  0.00    +0.133 A 
BRANCH  16  17
ATOM     17  O   UNL     1      -1.956   1.674  -5.064  0.00  0.00    -0.506 OA
ATOM     18  H   UNL     1      -1.360   0.932  -5.236  0.00  0.00    +0.292 HD
ENDBRANCH  16  17
BRANCH  12  19
ATOM     19  O   UNL     1      -2.707   1.956  -0.350  0.00  0.00    -0.506 OA
ATOM     20  H   UNL     1      -2.889   2.869  -0.089  0.00  0.00    +0.292 HD
ENDBRANCH  12  19
ENDBRANCH   2  11
BRANCH   1  21
ATOM     21  C   UNL     1      -0.053   0.129  -2.953  0.00  0.00    +0.170 C 
BRANCH  21  22
ATOM     22  C   UNL     1       0.989  -0.236  -3.978  0.00  0.00    +0.234 C 
ATOM     23  O   UNL     1       1.598   0.636  -4.561  0.00  0.00    -0.274 OA
ATOM     24  N   UNL     1       1.246  -1.532  -4.247  0.00  0.00    -0.311 N 
ATOM     25  H   UNL     1       0.716  -2.228  -3.828  0.00  0.00    +0.149 HD
BRANCH  24  26
ATOM     26  C   UNL     1       2.324  -1.888  -5.172  0.00  0.00    +0.073 C 
ATOM     27  C   UNL     1       1.799  -1.846  -6.608  0.00  0.00    +0.022 C 
ATOM     28  C   UNL     1       2.926  -2.218  -7.574  0.00  0.00    +0.002 C 
ATOM     29  C   UNL     1       3.426  -3.629  -7.255  0.00  0.00    +0.000 C 
ATOM     30  C   UNL     1       3.951  -3.671  -5.819  0.00  0.00    +0.002 C 
ATOM     31  C   UNL     1       2.824  -3.299  -4.853  0.00  0.00    +0.022 C 
ENDBRANCH  24  26
ENDBRANCH  21  22
BRANCH  21  32
ATOM     32  C   UNL     1       0.098  -0.775  -1.728  0.00  0.00    +0.018 C 
BRANCH  32  34
ATOM     33  C   UNL     1       2.532  -1.334  -1.787  0.00  0.00    +0.004 C 
ATOM     34  C   UNL     1       1.454  -0.519  -1.069  0.00  0.00    +0.002 C 
ENDBRANCH  32  34
BRANCH  32  35
ATOM     35  C   UNL     1      -1.020  -0.471  -0.729  0.00  0.00    +0.002 C 
ATOM     36  C   UNL     1      -2.359  -0.939  -1.303  0.00  0.00    +0.004 C 
ENDBRANCH  32  35
ENDBRANCH  21  32
ENDBRANCH   1  21
TORSDOF 10
