REMARK  Name = ZINC65404265
REMARK  4 active torsions:
REMARK  status: ('A' for Active; 'I' for Inactive)
REMARK    1  A    between atoms: C_1  and  O_2
REMARK    2  A    between atoms: O_2  and  C_3
REMARK    3  A    between atoms: C_4  and  C_13
REMARK    4  A    between atoms: C_21  and  C_25
REMARK                            x       y       z     vdW  Elec       q    Type
REMARK                         _______ _______ _______ _____ _____    ______ ____
ROOT
ATOM      1  C   UNL     1       0.044  -2.823  -0.030  0.00  0.00    +0.068 C 
ATOM      2  C   UNL     1      -1.034  -3.742   0.553  0.00  0.00    +0.109 C 
ATOM      3  C   UNL     1      -0.432  -4.913   1.275  0.00  0.00    +0.219 C 
ATOM      4  O   UNL     1      -0.944  -5.285   2.310  0.00  0.00    -0.275 OA
ATOM      5  N   UNL     1       0.655  -5.568   0.817  0.00  0.00    -0.269 N 
ATOM      6  C   UNL     1       1.359  -5.002  -0.257  0.00  0.00    +0.151 A 
ATOM      7  C   UNL     1       1.090  -3.683  -0.694  0.00  0.00    +0.023 A 
ATOM      8  C   UNL     1       1.900  -3.413  -1.727  0.00  0.00    +0.045 A 
ATOM      9  N   UNL     1       2.670  -4.506  -1.941  0.00  0.00    -0.279 N 
ATOM     10  H   UNL     1       3.349  -4.598  -2.627  0.00  0.00    +0.189 HD
ATOM     11  N   UNL     1       2.313  -5.484  -0.995  0.00  0.00    -0.158 NA
ATOM     12  H   UNL     1       0.942  -6.403   1.219  0.00  0.00    +0.156 HD
ENDROOT
BRANCH   1  14
ATOM     13  C   UNL     1       0.624  -0.617   1.039  0.00  0.00    +0.219 A 
ATOM     14  C   UNL     1       0.676  -2.016   1.075  0.00  0.00    +0.023 A 
ATOM     15  C   UNL     1       1.298  -2.647   2.111  0.00  0.00    +0.019 A 
ATOM     16  C   UNL     1       1.875  -1.855   3.124  0.00  0.00    +0.001 A 
ATOM     17  C   UNL     1       2.532  -2.438   4.219  0.00  0.00    +0.010 A 
ATOM     18  C   UNL     1       3.079  -1.641   5.178  0.00  0.00    +0.001 A 
ATOM     19  C   UNL     1       2.995  -0.253   5.087  0.00  0.00    +0.002 A 
ATOM     20  C   UNL     1       2.365   0.345   4.039  0.00  0.00    +0.028 A 
ATOM     21  C   UNL     1       1.789  -0.445   3.029  0.00  0.00    +0.075 A 
ATOM     22  N   UNL     1       1.170   0.117   1.984  0.00  0.00    -0.213 NA
BRANCH  13  24
ATOM     23  C   UNL     1      -0.017   1.425   0.010  0.00  0.00    +0.279 C 
ATOM     24  O   UNL     1       0.002  -0.004   0.002  0.00  0.00    -0.479 OA
ENDBRANCH  13  24
ENDBRANCH   1  14
BRANCH   8  25
ATOM     25  C   UNL     1       1.946  -2.125  -2.508  0.00  0.00    +0.038 C 
ATOM     26  C   UNL     1       2.189  -2.326  -4.013  0.00  0.00    +0.010 C 
ATOM     27  C   UNL     1       3.110  -1.096  -3.949  0.00  0.00    +0.001 C 
ATOM     28  C   UNL     1       3.315  -1.425  -2.461  0.00  0.00    +0.010 C 
ENDBRANCH   8  25
TORSDOF 3
