REMARK  Name = ZINC22325139
REMARK  11 active torsions:
REMARK  status: ('A' for Active; 'I' for Inactive)
REMARK    1  A    between atoms: C_1  and  C_2
REMARK    2  A    between atoms: C_5  and  S_8
REMARK    3  A    between atoms: S_8  and  N_11
REMARK    4  A    between atoms: N_11  and  C_12
REMARK    5  A    between atoms: N_11  and  C_30
REMARK    6  A    between atoms: C_12  and  C_13
REMARK    7  A    between atoms: N_15  and  C_16
REMARK    8  A    between atoms: C_16  and  C_18
REMARK    9  A    between atoms: C_16  and  C_19
REMARK   10  A    between atoms: C_22  and  N_25
REMARK   11  A    between atoms: C_35  and  C_36
REMARK                            x       y       z     vdW  Elec       q    Type
REMARK                         _______ _______ _______ _____ _____    ______ ____
ROOT
ATOM      1  N   UNL     1      -1.694   8.893   2.951  0.00  0.00    -0.194 N 
ENDROOT
BRANCH   1   2
ATOM      2  C   UNL     1      -0.788   8.740   4.005  0.00  0.00    +0.055 A 
ATOM      3  C   UNL     1       0.579   8.796   3.761  0.00  0.00    +0.026 A 
ATOM      4  C   UNL     1       1.471   8.644   4.803  0.00  0.00    +0.022 A 
ATOM      5  C   UNL     1       1.006   8.437   6.090  0.00  0.00    +0.041 A 
ATOM      6  C   UNL     1      -0.355   8.380   6.336  0.00  0.00    +0.025 A 
ATOM      7  C   UNL     1      -1.252   8.538   5.298  0.00  0.00    -0.026 A 
ATOM      8  C   UNL     1      -2.734   8.483   5.567  0.00  0.00    +0.046 C 
ATOM      9 CL   UNL     1       2.131   8.247   7.399  0.00  0.00    -0.084 Cl
ENDBRANCH   1   2
BRANCH   1  10
ATOM     10  S   UNL     1      -2.303  10.391   2.594  0.00  0.00    +0.075 S 
ATOM     11  O   UNL     1      -1.346  11.338   3.051  0.00  0.00    -0.150 OA
ATOM     12  O   UNL     1      -2.738  10.341   1.242  0.00  0.00    -0.150 OA
BRANCH  10  17
ATOM     13  C   UNL     1      -7.243  11.162   5.971  0.00  0.00    +0.044 C 
ATOM     14  C   UNL     1      -6.009  10.970   5.127  0.00  0.00    -0.050 A 
ATOM     15  C   UNL     1      -4.801  11.499   5.539  0.00  0.00    +0.005 A 
ATOM     16  C   UNL     1      -3.669  11.323   4.766  0.00  0.00    +0.029 A 
ATOM     17  C   UNL     1      -3.745  10.616   3.580  0.00  0.00    +0.109 A 
ATOM     18  C   UNL     1      -4.955  10.091   3.165  0.00  0.00    +0.029 A 
ATOM     19  C   UNL     1      -6.086  10.263   3.941  0.00  0.00    +0.005 A 
ENDBRANCH  10  17
ENDBRANCH   1  10
BRANCH   1  20
ATOM     20  C   UNL     1      -2.105   7.729   2.163  0.00  0.00    +0.227 C 
BRANCH  20  21
ATOM     21  C   UNL     1      -1.097   7.481   1.070  0.00  0.00    +0.233 C 
ATOM     22  O   UNL     1      -0.131   8.206   0.960  0.00  0.00    -0.274 OA
ATOM     23  N   UNL     1      -1.270   6.454   0.215  0.00  0.00    -0.307 N 
ATOM     24  H   UNL     1      -2.146   5.796   0.315  0.00  0.00    +0.149 HD
BRANCH  23  25
ATOM     25  C   UNL     1      -0.291   6.213  -0.848  0.00  0.00    +0.100 C 
ATOM     26  C   UNL     1      -0.627   7.086  -2.059  0.00  0.00    +0.033 C 
BRANCH  25  27
ATOM     27  C   UNL     1      -0.331   4.761  -1.249  0.00  0.00    -0.027 A 
ATOM     28  C   UNL     1       0.845   4.088  -1.522  0.00  0.00    +0.007 A 
ATOM     29  C   UNL     1       0.812   2.757  -1.890  0.00  0.00    +0.023 A 
ATOM     30  C   UNL     1      -0.406   2.095  -1.985  0.00  0.00    +0.030 A 
ATOM     31  C   UNL     1      -1.586   2.775  -1.714  0.00  0.00    +0.023 A 
ATOM     32  C   UNL     1      -1.545   4.105  -1.343  0.00  0.00    +0.007 A 
BRANCH  30  33
ATOM     33  N   UNL     1      -0.443   0.749  -2.357  0.00  0.00    -0.330 N 
ATOM     34  C   UNL     1      -0.990  -0.091  -1.261  0.00  0.00    +0.105 C 
ATOM     35  C   UNL     1      -1.444  -1.379  -1.994  0.00  0.00    +0.020 C 
ATOM     36  C   UNL     1      -2.003  -0.837  -3.330  0.00  0.00    +0.020 C 
ATOM     37  C   UNL     1      -1.345   0.543  -3.511  0.00  0.00    +0.105 C 
ENDBRANCH  30  33
ENDBRANCH  25  27
ENDBRANCH  23  25
ENDBRANCH  20  21
ENDBRANCH   1  20
TORSDOF 8
