REMARK  Name = ZINC07767907
REMARK  3 active torsions:
REMARK  status: ('A' for Active; 'I' for Inactive)
REMARK    1  A    between atoms: C_4  and  C_7
REMARK    2  A    between atoms: C_7  and  N_8
REMARK    3  A    between atoms: C_10  and  C_15
REMARK                            x       y       z     vdW  Elec       q    Type
REMARK                         _______ _______ _______ _____ _____    ______ ____
ROOT
ATOM      1  N   UNL     1       4.152  -0.952   1.338  0.00  0.00    -0.296 N 
ATOM      2  C   UNL     1       4.988  -0.031   2.116  0.00  0.00    +0.121 C 
ATOM      3  C   UNL     1       5.545  -0.870   3.288  0.00  0.00    +0.101 C 
ATOM      4  C   UNL     1       4.472  -1.975   3.423  0.00  0.00    +0.110 C 
ATOM      5  C   UNL     1       3.838  -2.048   2.051  0.00  0.00    +0.217 C 
ATOM      6  O   UNL     1       3.148  -2.962   1.652  0.00  0.00    -0.276 OA
ENDROOT
BRANCH   3   7
ATOM      7  C   UNL     1       5.633  -0.046   4.547  0.00  0.00    +0.224 C 
ATOM      8  O   UNL     1       5.286   1.116   4.537  0.00  0.00    -0.275 OA
ATOM      9  N   UNL     1       6.097  -0.601   5.684  0.00  0.00    -0.264 N 
ATOM     10  C   UNL     1       6.178   0.156   6.841  0.00  0.00    +0.165 A 
ATOM     11  N   UNL     1       5.848   1.413   7.028  0.00  0.00    -0.225 NA
ATOM     12  C   UNL     1       5.981   2.029   8.222  0.00  0.00    +0.080 A 
ATOM     13  C   UNL     1       5.667   3.367   8.555  0.00  0.00    +0.029 A 
ATOM     14  C   UNL     1       5.865   3.838   9.826  0.00  0.00    +0.002 A 
ATOM     15  C   UNL     1       6.377   3.026  10.828  0.00  0.00    +0.001 A 
ATOM     16  C   UNL     1       6.695   1.712  10.539  0.00  0.00    +0.017 A 
ATOM     17  C   UNL     1       6.501   1.232   9.268  0.00  0.00    +0.041 A 
ATOM     18  S   UNL     1       6.750  -0.332   8.463  0.00  0.00    -0.052 S 
ATOM     19  H   UNL     1       6.374  -1.530   5.692  0.00  0.00    +0.157 HD
ENDBRANCH   3   7
BRANCH   1  20
ATOM     20  C   UNL     1       3.711  -0.707  -0.038  0.00  0.00    +0.142 C 
BRANCH  20  24
ATOM     21  C   UNL     1      -0.017   1.378   0.010  0.00  0.00    +0.000 A 
ATOM     22  C   UNL     1       1.171   2.086   0.002  0.00  0.00    +0.000 A 
ATOM     23  C   UNL     1       2.377   1.411  -0.013  0.00  0.00    +0.005 A 
ATOM     24  C   UNL     1       2.396   0.029  -0.020  0.00  0.00    -0.030 A 
ATOM     25  C   UNL     1       1.208  -0.679  -0.012  0.00  0.00    +0.005 A 
ATOM     26  C   UNL     1       0.002  -0.004   0.002  0.00  0.00    +0.000 A 
ENDBRANCH  20  24
ENDBRANCH   1  20
TORSDOF 3
