REMARK  Name = ZINC39640394
REMARK  9 active torsions:
REMARK  status: ('A' for Active; 'I' for Inactive)
REMARK    1  A    between atoms: C_1  and  C_2
REMARK    2  A    between atoms: C_2  and  C_4
REMARK    3  A    between atoms: C_2  and  O_19
REMARK    4  A    between atoms: N_6  and  C_7
REMARK    5  A    between atoms: C_10  and  N_13
REMARK    6  A    between atoms: O_19  and  C_20
REMARK    7  A    between atoms: C_20  and  C_22
REMARK    8  A    between atoms: C_22  and  N_23
REMARK    9  A    between atoms: C_24  and  C_26
REMARK                            x       y       z     vdW  Elec       q    Type
REMARK                         _______ _______ _______ _____ _____    ______ ____
ROOT
ATOM      1  C   UNL     1       0.008   1.526   0.008  0.00  0.00    +0.062 C 
ATOM      2  C   UNL     1      -0.001  -0.004   0.002  0.00  0.00    +0.259 C 
ENDROOT
BRANCH   2   3
ATOM      3  C   UNL     1       0.723  -0.515   1.222  0.00  0.00    +0.258 C 
ATOM      4  O   UNL     1       1.754  -1.141   1.097  0.00  0.00    -0.271 OA
ATOM      5  N   UNL     1       0.223  -0.277   2.451  0.00  0.00    -0.282 N 
ATOM      6  H   UNL     1      -0.566   0.278   2.554  0.00  0.00    +0.155 HD
BRANCH   5   7
ATOM      7  C   UNL     1       0.844  -0.830   3.579  0.00  0.00    +0.034 A 
ATOM      8  C   UNL     1       0.077  -1.245   4.660  0.00  0.00    +0.025 A 
ATOM      9  C   UNL     1       0.689  -1.790   5.771  0.00  0.00    +0.025 A 
ATOM     10  C   UNL     1       2.070  -1.923   5.808  0.00  0.00    +0.030 A 
ATOM     11  C   UNL     1       2.837  -1.508   4.727  0.00  0.00    +0.025 A 
ATOM     12  C   UNL     1       2.225  -0.968   3.613  0.00  0.00    +0.025 A 
BRANCH  10  13
ATOM     13  N   UNL     1       2.690  -2.476   6.934  0.00  0.00    -0.330 N 
ATOM     14  C   UNL     1       4.155  -2.506   7.043  0.00  0.00    +0.105 C 
ATOM     15  C   UNL     1       4.565  -1.856   8.368  0.00  0.00    +0.019 C 
ATOM     16  C   UNL     1       3.834  -2.551   9.520  0.00  0.00    +0.003 C 
ATOM     17  C   UNL     1       2.323  -2.380   9.345  0.00  0.00    +0.019 C 
ATOM     18  C   UNL     1       1.888  -3.030   8.033  0.00  0.00    +0.105 C 
ENDBRANCH  10  13
ENDBRANCH   5   7
ENDBRANCH   2   3
BRANCH   2  19
ATOM     19  O   UNL     1       0.655  -0.480  -1.175  0.00  0.00    -0.451 OA
BRANCH  19  20
ATOM     20  C   UNL     1      -0.108  -0.675  -2.261  0.00  0.00    +0.325 C 
ATOM     21  O   UNL     1      -1.294  -0.449  -2.215  0.00  0.00    -0.249 OA
BRANCH  20  22
ATOM     22  C   UNL     1       0.514  -1.175  -3.539  0.00  0.00    +0.225 C 
BRANCH  22  23
ATOM     23  N   UNL     1      -0.521  -1.304  -4.569  0.00  0.00    -0.304 N 
ATOM     24  C   UNL     1      -0.194  -1.738  -5.802  0.00  0.00    +0.220 C 
ATOM     25  O   UNL     1       0.957  -2.022  -6.060  0.00  0.00    -0.275 OA
ATOM     26  H   UNL     1      -1.441  -1.077  -4.362  0.00  0.00    +0.149 HD
BRANCH  24  27
ATOM     27  C   UNL     1      -1.258  -1.871  -6.861  0.00  0.00    +0.048 C 
ATOM     28  C   UNL     1      -2.325  -2.862  -6.390  0.00  0.00    +0.019 C 
ATOM     29  C   UNL     1      -3.405  -2.997  -7.465  0.00  0.00    -0.009 C 
ATOM     30  C   UNL     1      -2.774  -3.505  -8.762  0.00  0.00    +0.007 C 
ATOM     31  C   UNL     1      -1.708  -2.514  -9.233  0.00  0.00    -0.009 C 
ATOM     32  C   UNL     1      -0.627  -2.379  -8.158  0.00  0.00    +0.019 C 
ATOM     33  C   UNL     1      -2.353  -1.149  -9.480  0.00  0.00    +0.007 C 
ATOM     34  C   UNL     1      -2.985  -0.641  -8.183  0.00  0.00    -0.009 C 
ATOM     35  C   UNL     1      -4.051  -1.632  -7.712  0.00  0.00    +0.007 C 
ATOM     36  C   UNL     1      -1.905  -0.506  -7.108  0.00  0.00    +0.019 C 
ENDBRANCH  24  27
ENDBRANCH  22  23
ENDBRANCH  20  22
ENDBRANCH  19  20
ENDBRANCH   2  19
TORSDOF 8
