REMARK  Name = ZINC49723390
REMARK  9 active torsions:
REMARK  status: ('A' for Active; 'I' for Inactive)
REMARK    1  A    between atoms: C_1  and  C_2
REMARK    2  A    between atoms: C_5  and  N_9
REMARK    3  A    between atoms: C_6  and  C_8
REMARK    4  A    between atoms: C_10  and  C_30
REMARK    5  A    between atoms: C_12  and  C_15
REMARK    6  A    between atoms: C_13  and  C_14
REMARK    7  A    between atoms: C_25  and  C_27
REMARK    8  A    between atoms: C_27  and  C_28
REMARK    9  A    between atoms: C_27  and  C_29
REMARK                            x       y       z     vdW  Elec       q    Type
REMARK                         _______ _______ _______ _____ _____    ______ ____
ROOT
ATOM      1  C   UNL     1       1.624  -7.385  -0.011  0.00  0.00    +0.026 C 
ATOM      2  C   UNL     1       1.188  -8.585  -0.535  0.00  0.00    +0.079 C 
ATOM      3  C   UNL     1      -0.133  -8.713  -1.210  0.00  0.00    +0.132 C 
ATOM      4  N   UNL     1      -0.680  -7.750  -1.905  0.00  0.00    -0.385 N 
ATOM      5  N   UNL     1      -0.736  -9.975  -1.026  0.00  0.00    -0.154 N 
ATOM      6  C   UNL     1       0.090 -11.037  -0.725  0.00  0.00    +0.181 C 
ATOM      7  N   UNL     1       1.377 -11.005  -0.491  0.00  0.00    -0.152 NA
ATOM      8  C   UNL     1       2.014  -9.815  -0.461  0.00  0.00    +0.273 C 
ATOM      9  O   UNL     1       3.229  -9.751  -0.371  0.00  0.00    -0.268 OA
ATOM     10  S   UNL     1      -1.045 -12.400  -0.720  0.00  0.00    -0.038 S 
ATOM     11  C   UNL     1      -2.538 -11.463  -1.015  0.00  0.00    +0.102 C 
ATOM     12  N   UNL     1      -2.083 -10.248  -1.132  0.00  0.00    -0.169 NA
ATOM     13  H   UNL     1      -0.186  -6.932  -2.073  0.00  0.00    +0.157 HD
ATOM     14  H   UNL     1      -1.579  -7.855  -2.254  0.00  0.00    +0.157 HD
ENDROOT
BRANCH   1  18
ATOM     15  N   UNL     1      -0.061  -4.219   0.149  0.00  0.00    -0.317 N 
ATOM     16  C   UNL     1      -1.147  -5.050   0.198  0.00  0.00    +0.022 A 
ATOM     17  C   UNL     1      -0.729  -6.325   0.149  0.00  0.00    +0.031 A 
ATOM     18  C   UNL     1       0.738  -6.280   0.062  0.00  0.00    -0.003 A 
ATOM     19  C   UNL     1       1.076  -4.937   0.062  0.00  0.00    +0.028 A 
ATOM     20  C   UNL     1       2.473  -4.376  -0.019  0.00  0.00    +0.064 C 
ATOM     21  C   UNL     1      -2.583  -4.604   0.292  0.00  0.00    +0.064 C 
BRANCH  15  26
ATOM     22  C   UNL     1      -0.314   1.449   0.272  0.00  0.00    +0.044 C 
ATOM     23  C   UNL     1      -0.247  -0.056   0.239  0.00  0.00    -0.050 A 
ATOM     24  C   UNL     1      -0.293  -0.723  -0.972  0.00  0.00    +0.005 A 
ATOM     25  C   UNL     1      -0.232  -2.102  -1.005  0.00  0.00    +0.026 A 
ATOM     26  C   UNL     1      -0.123  -2.819   0.179  0.00  0.00    +0.049 A 
ATOM     27  C   UNL     1      -0.077  -2.147   1.393  0.00  0.00    -0.026 A 
ATOM     28  C   UNL     1      -0.133  -0.767   1.419  0.00  0.00    +0.008 A 
ATOM     29  C   UNL     1       0.040  -2.922   2.680  0.00  0.00    +0.046 C 
ENDBRANCH  15  26
ENDBRANCH   1  18
BRANCH  11  30
ATOM     30  C   UNL     1      -3.960 -11.953  -1.106  0.00  0.00    +0.040 C 
ATOM     31  C   UNL     1      -4.560 -12.042   0.299  0.00  0.00    +0.014 C 
ATOM     32  C   UNL     1      -4.783 -10.978  -1.951  0.00  0.00    +0.014 C 
ENDBRANCH  11  30
TORSDOF 3
