REMARK  Name = ZINC20348287
REMARK  10 active torsions:
REMARK  status: ('A' for Active; 'I' for Inactive)
REMARK    1  A    between atoms: C_1  and  C_2
REMARK    2  A    between atoms: C_2  and  O_3
REMARK    3  A    between atoms: O_3  and  C_4
REMARK    4  A    between atoms: C_4  and  C_6
REMARK    5  A    between atoms: C_7  and  C_27
REMARK    6  A    between atoms: C_9  and  S_22
REMARK    7  A    between atoms: C_10  and  C_20
REMARK    8  A    between atoms: C_11  and  C_13
REMARK    9  A    between atoms: S_22  and  C_23
REMARK   10  A    between atoms: C_23  and  C_24
REMARK                            x       y       z     vdW  Elec       q    Type
REMARK                         _______ _______ _______ _____ _____    ______ ____
ROOT
ATOM      1  C   UNL     1       5.896   3.764   0.693  0.00  0.00    +0.071 C 
ATOM      2  C   UNL     1       4.799   4.257   0.061  0.00  0.00    +0.050 C 
ATOM      3  N   UNL     1       3.974   3.427  -0.667  0.00  0.00    -0.308 N 
ATOM      4  C   UNL     1       4.022   2.066  -0.470  0.00  0.00    +0.080 C 
ATOM      5  C   UNL     1       5.090   1.490   0.142  0.00  0.00    +0.069 C 
ATOM      6  C   UNL     1       6.255   2.308   0.622  0.00  0.00    +0.100 C 
ATOM      7  H   UNL     1       3.279   3.852  -1.405  0.00  0.00    +0.153 HD
ENDROOT
BRANCH   6   8
ATOM      8  C   UNL     1       7.411   2.128  -0.328  0.00  0.00    -0.034 A 
ATOM      9  C   UNL     1       7.272   2.477  -1.659  0.00  0.00    +0.006 A 
ATOM     10  C   UNL     1       8.334   2.318  -2.529  0.00  0.00    +0.020 A 
ATOM     11  C   UNL     1       9.532   1.800  -2.072  0.00  0.00    +0.041 A 
ATOM     12  C   UNL     1       9.668   1.445  -0.742  0.00  0.00    +0.020 A 
ATOM     13  C   UNL     1       8.608   1.610   0.130  0.00  0.00    +0.006 A 
ATOM     14 CL   UNL     1      10.863   1.593  -3.167  0.00  0.00    -0.084 Cl
ENDBRANCH   6   8
BRANCH   2  15
ATOM     15  C   UNL     1       4.490   5.699   0.151  0.00  0.00    -0.003 A 
ATOM     16  C   UNL     1       3.338   6.129   0.813  0.00  0.00    +0.010 A 
ATOM     17  C   UNL     1       3.059   7.477   0.898  0.00  0.00    +0.001 A 
ATOM     18  C   UNL     1       3.910   8.402   0.319  0.00  0.00    +0.000 A 
ATOM     19  C   UNL     1       5.051   7.982  -0.343  0.00  0.00    +0.001 A 
ATOM     20  C   UNL     1       5.345   6.637  -0.430  0.00  0.00    +0.010 A 
ENDBRANCH   2  15
BRANCH   1  21
ATOM     21  C   UNL     1       6.715   4.639   1.432  0.00  0.00    +0.338 C 
ATOM     22  O   UNL     1       6.376   5.797   1.597  0.00  0.00    -0.245 OA
BRANCH  21  23
ATOM     23  O   UNL     1       7.876   4.194   1.958  0.00  0.00    -0.462 OA
BRANCH  23  25
ATOM     24  C   UNL     1       9.926   4.455   3.211  0.00  0.00    +0.048 C 
ATOM     25  C   UNL     1       8.657   5.136   2.696  0.00  0.00    +0.229 C 
ENDBRANCH  23  25
ENDBRANCH  21  23
ENDBRANCH   1  21
BRANCH   5  26
ATOM     26  C   UNL     1       5.105   0.071   0.335  0.00  0.00    +0.098 C 
ATOM     27  N   UNL     1       5.117  -1.054   0.488  0.00  0.00    -0.191 NA
ENDBRANCH   5  26
BRANCH   4  28
ATOM     28  S   UNL     1       2.687   1.058  -1.024  0.00  0.00    -0.100 S 
BRANCH  28  29
ATOM     29  C   UNL     1       1.606   2.327  -1.728  0.00  0.00    +0.171 C 
BRANCH  29  30
ATOM     30  C   UNL     1       0.362   1.678  -2.279  0.00  0.00    +0.221 C 
ATOM     31  O   UNL     1       0.221   0.476  -2.203  0.00  0.00    -0.275 OA
ATOM     32  N   UNL     1      -0.590   2.433  -2.861  0.00  0.00    -0.329 N 
ATOM     33  H   UNL     1      -1.498   1.959  -3.263  0.00  0.00    +0.145 HD
ATOM     34  H   UNL     1      -0.460   3.523  -2.934  0.00  0.00    +0.145 HD
ENDBRANCH  29  30
ENDBRANCH  28  29
ENDBRANCH   4  28
TORSDOF 9
