REMARK  Name = ZINC10786371
REMARK  7 active torsions:
REMARK  status: ('A' for Active; 'I' for Inactive)
REMARK    1  A    between atoms: C_1  and  O_2
REMARK    2  A    between atoms: O_2  and  C_3
REMARK    3  A    between atoms: N_12  and  C_13
REMARK    4  A    between atoms: C_13  and  C_14
REMARK    5  A    between atoms: C_20  and  C_22
REMARK    6  A    between atoms: N_28  and  S_29
REMARK    7  A    between atoms: S_29  and  C_32
REMARK                            x       y       z     vdW  Elec       q    Type
REMARK                         _______ _______ _______ _____ _____    ______ ____
ROOT
ATOM      1  C   UNL     1       2.194   2.911  -0.532  0.00  0.00    +0.121 A 
ATOM      2  C   UNL     1       1.186   2.044  -0.122  0.00  0.00    +0.048 A 
ATOM      3  C   UNL     1      -0.085   2.491   0.125  0.00  0.00    +0.032 A 
ATOM      4  C   UNL     1      -0.413   3.859  -0.020  0.00  0.00    +0.081 A 
ATOM      5  C   UNL     1       0.633   4.712  -0.438  0.00  0.00    +0.044 A 
ATOM      6  C   UNL     1       1.904   4.259  -0.690  0.00  0.00    +0.063 A 
ATOM      7  S   UNL     1      -0.172   6.294  -0.502  0.00  0.00    -0.052 S 
ATOM      8  C   UNL     1      -1.792   5.743   0.013  0.00  0.00    +0.168 A 
ATOM      9  N   UNL     1      -1.608   4.456   0.187  0.00  0.00    -0.224 NA
ATOM     10  N   UNL     1      -2.949   6.487   0.185  0.00  0.00    -0.247 N 
ATOM     11  C   UNL     1      -2.938   7.814  -0.047  0.00  0.00    +0.240 C 
ATOM     12  O   UNL     1      -1.897   8.373  -0.320  0.00  0.00    -0.273 OA
ENDROOT
BRANCH  11  13
ATOM     13  C   UNL     1      -4.219   8.604   0.032  0.00  0.00    +0.166 C 
ATOM     14  C   UNL     1      -4.074   9.715   1.076  0.00  0.00    +0.030 C 
ATOM     15  C   UNL     1      -5.324  10.598   1.054  0.00  0.00    +0.003 C 
ATOM     16  C   UNL     1      -5.467  11.247  -0.325  0.00  0.00    +0.017 C 
ATOM     17  C   UNL     1      -5.628  10.153  -1.385  0.00  0.00    +0.110 C 
ATOM     18  N   UNL     1      -4.503   9.213  -1.274  0.00  0.00    -0.164 NA
BRANCH  18  19
ATOM     19  S   UNL     1      -3.572   8.852  -2.595  0.00  0.00    +0.068 S 
ATOM     20  O   UNL     1      -2.987   7.581  -2.344  0.00  0.00    -0.152 OA
ATOM     21  O   UNL     1      -4.373   9.109  -3.740  0.00  0.00    -0.152 OA
BRANCH  19  22
ATOM     22  C   UNL     1      -2.249  10.016  -2.634  0.00  0.00    +0.143 A 
ATOM     23  C   UNL     1      -0.975   9.874  -2.196  0.00  0.00    +0.036 A 
ATOM     24  C   UNL     1      -0.097  10.933  -2.334  0.00  0.00    +0.010 A 
ATOM     25  C   UNL     1      -0.539  12.085  -2.894  0.00  0.00    +0.047 A 
ATOM     26  S   UNL     1      -2.243  11.690  -3.254  0.00  0.00    -0.077 S 
ENDBRANCH  19  22
ENDBRANCH  18  19
ENDBRANCH  11  13
BRANCH   1  28
ATOM     27  C   UNL     1       3.664   1.043  -0.593  0.00  0.00    +0.277 C 
ATOM     28  O   UNL     1       3.447   2.444  -0.777  0.00  0.00    -0.495 OA
ENDBRANCH   1  28
BRANCH  10  29
ATOM     29  C   UNL     1      -4.184   5.830   0.619  0.00  0.00    +0.147 C 
BRANCH  29  30
ATOM     30  C   UNL     1      -4.329   5.966   2.136  0.00  0.00    +0.136 C 
ATOM     31  C   UNL     1      -5.643   5.307   2.599  0.00  0.00    +0.035 C 
ATOM     32  C   UNL     1      -5.189   4.228   3.612  0.00  0.00    +0.031 C 
ATOM     33  C   UNL     1      -3.783   4.737   4.021  0.00  0.00    +0.160 C 
ATOM     34  O   UNL     1      -3.251   5.279   2.793  0.00  0.00    -0.375 OA
ENDBRANCH  29  30
ENDBRANCH  10  29
TORSDOF 6
