REMARK  Name = ZINC04125163
REMARK  7 active torsions:
REMARK  status: ('A' for Active; 'I' for Inactive)
REMARK    1  A    between atoms: C_1  and  C_2
REMARK    2  A    between atoms: C_3  and  C_18
REMARK    3  A    between atoms: N_10  and  C_11
REMARK    4  A    between atoms: C_11  and  C_12
REMARK    5  A    between atoms: C_29  and  C_30
REMARK    6  A    between atoms: C_29  and  N_68
REMARK    7  A    between atoms: C_36  and  O_38
REMARK                            x       y       z     vdW  Elec       q    Type
REMARK                         _______ _______ _______ _____ _____    ______ ____
ROOT
ATOM      1  C   UNL     1       4.434   7.116  -7.594  0.00  0.00    +0.226 C 
ATOM      2  N   UNL     1       3.081   6.719  -7.164  0.00  0.00    -0.313 N 
ATOM      3  C   UNL     1       2.959   6.269  -5.872  0.00  0.00    +0.080 A 
ATOM      4  C   UNL     1       4.034   5.714  -5.166  0.00  0.00    +0.067 A 
ATOM      5  C   UNL     1       3.744   5.277  -3.814  0.00  0.00    -0.027 A 
ATOM      6  C   UNL     1       2.467   5.460  -3.399  0.00  0.00    -0.021 A 
ATOM      7  S   UNL     1       1.643   6.207  -4.779  0.00  0.00    -0.080 S 
ATOM      8  C   UNL     1       1.906   5.099  -2.060  0.00  0.00    -0.035 C 
ATOM      9  C   UNL     1       4.221   4.740  -1.445  0.00  0.00    -0.073 C 
ATOM     10  C   UNL     1       4.766   4.649  -2.873  0.00  0.00    +0.018 C 
ATOM     11  C   UNL     1       5.341   5.635  -5.868  0.00  0.00    +0.220 C 
ATOM     12  N   UNL     1       5.458   6.261  -7.006  0.00  0.00    -0.223 NA
ATOM     13  H   UNL     1       2.318   6.773  -7.761  0.00  0.00    +0.149 HD
ATOM     14  N   UNL     1       2.859   4.171  -1.403  0.00  0.00    +0.386 N 
ATOM     15  H   UNL     1       2.854   3.276  -1.906  0.00  0.00    -0.081 HD
ENDROOT
BRANCH   1  18
ATOM     16  C   UNL     1       7.198   8.378  -6.961  0.00  0.00    +0.064 C 
ATOM     17  C   UNL     1       5.875   9.096  -6.899  0.00  0.00    +0.024 A 
ATOM     18  C   UNL     1       4.684   8.541  -7.175  0.00  0.00    +0.023 A 
ATOM     19  C   UNL     1       3.673   9.587  -6.998  0.00  0.00    +0.007 A 
ATOM     20  C   UNL     1       2.283   9.625  -7.125  0.00  0.00    +0.010 A 
ATOM     21  C   UNL     1       1.611  10.787  -6.874  0.00  0.00    +0.001 A 
ATOM     22  C   UNL     1       2.297  11.930  -6.487  0.00  0.00    +0.002 A 
ATOM     23  C   UNL     1       3.668  11.914  -6.350  0.00  0.00    +0.026 A 
ATOM     24  C   UNL     1       4.373  10.741  -6.601  0.00  0.00    +0.050 A 
ATOM     25  N   UNL     1       5.709  10.410  -6.554  0.00  0.00    -0.339 N 
BRANCH  25  26
ATOM     26  C   UNL     1       6.791  11.327  -6.189  0.00  0.00    +0.157 C 
BRANCH  26  27
ATOM     27  C   UNL     1       7.304  12.018  -7.426  0.00  0.00    -0.028 A 
ATOM     28  C   UNL     1       8.341  11.459  -8.150  0.00  0.00    +0.005 A 
ATOM     29  C   UNL     1       8.807  12.090  -9.288  0.00  0.00    +0.000 A 
ATOM     30  C   UNL     1       8.245  13.285  -9.696  0.00  0.00    +0.000 A 
ATOM     31  C   UNL     1       7.211  13.846  -8.969  0.00  0.00    +0.000 A 
ATOM     32  C   UNL     1       6.741  13.212  -7.834  0.00  0.00    +0.005 A 
ENDBRANCH  26  27
ENDBRANCH  25  26
ENDBRANCH   1  18
BRANCH  11  33
ATOM     33  O   UNL     1       6.375   4.937  -5.344  0.00  0.00    -0.492 OA
ATOM     34  H   UNL     1       7.176   4.955  -5.886  0.00  0.00    +0.294 HD
ENDBRANCH  11  33
BRANCH  14  35
ATOM     35  C   UNL     1       2.451   3.937  -0.001  0.00  0.00    -0.043 C 
BRANCH  35  36
ATOM     36  C   UNL     1       1.156   3.165   0.008  0.00  0.00    -0.064 A 
ATOM     37  C   UNL     1       1.175   1.783   0.000  0.00  0.00    +0.002 A 
ATOM     38  C   UNL     1      -0.013   1.076   0.008  0.00  0.00    +0.000 A 
ATOM     39  C   UNL     1      -1.219   1.751   0.017  0.00  0.00    +0.000 A 
ATOM     40  C   UNL     1      -1.238   3.133   0.030  0.00  0.00    +0.000 A 
ATOM     41  C   UNL     1      -0.050   3.840   0.022  0.00  0.00    +0.002 A 
ENDBRANCH  35  36
ENDBRANCH  14  35
TORSDOF 6
