REMARK  Name = ZINC25453501
REMARK  6 active torsions:
REMARK  status: ('A' for Active; 'I' for Inactive)
REMARK    1  A    between atoms: C_3  and  S_27
REMARK    2  A    between atoms: C_6  and  N_7
REMARK    3  A    between atoms: N_13  and  C_16
REMARK    4  A    between atoms: C_16  and  C_17
REMARK    5  A    between atoms: C_20  and  C_22
REMARK    6  A    between atoms: S_27  and  N_30
REMARK                            x       y       z     vdW  Elec       q    Type
REMARK                         _______ _______ _______ _____ _____    ______ ____
ROOT
ATOM      1  N   UNL     1      -1.150  -0.694   0.111  0.00  0.00    -0.269 N 
ATOM      2  C   UNL     1      -0.159  -0.044  -0.529  0.00  0.00    +0.307 C 
ATOM      3  O   UNL     1       0.684  -0.672  -1.141  0.00  0.00    -0.252 OA
ATOM      4  N   UNL     1      -0.100   1.302  -0.491  0.00  0.00    -0.283 N 
ATOM      5  C   UNL     1      -1.174   2.086   0.137  0.00  0.00    +0.124 C 
ATOM      6  C   UNL     1      -0.535   3.063   1.137  0.00  0.00    +0.104 C 
ATOM      7  N   UNL     1       0.493   3.857   0.450  0.00  0.00    -0.294 NA
ATOM      8  C   UNL     1       1.585   3.005  -0.040  0.00  0.00    +0.104 C 
ATOM      9  C   UNL     1       1.036   2.025  -1.083  0.00  0.00    +0.124 C 
ATOM     10  H   UNL     1      -1.981  -0.128   0.557  0.00  0.00    +0.156 HD
ENDROOT
BRANCH   1  16
ATOM     11  C   UNL     1       0.091  -2.758   0.292  0.00  0.00    +0.025 A 
ATOM     12  C   UNL     1       0.114  -4.136   0.393  0.00  0.00    +0.030 A 
ATOM     13  C   UNL     1      -1.071  -4.850   0.401  0.00  0.00    +0.105 A 
ATOM     14  C   UNL     1      -2.281  -4.187   0.313  0.00  0.00    +0.030 A 
ATOM     15  C   UNL     1      -2.311  -2.810   0.216  0.00  0.00    +0.025 A 
ATOM     16  C   UNL     1      -1.124  -2.090   0.209  0.00  0.00    +0.035 A 
BRANCH  13  17
ATOM     17  S   UNL     1      -1.037  -6.607   0.524  0.00  0.00    +0.056 S 
ATOM     18  O   UNL     1       0.196  -6.947   1.143  0.00  0.00    -0.153 OA
ATOM     19  O   UNL     1      -2.292  -7.001   1.060  0.00  0.00    -0.153 OA
BRANCH  17  20
ATOM     20  N   UNL     1      -0.972  -7.205  -1.019  0.00  0.00    -0.204 NA
ATOM     21  H   UNL     1      -0.949  -8.304  -0.986  0.00  0.00    +0.144 HD
ATOM     22  H   UNL     1      -0.064  -6.834  -1.518  0.00  0.00    +0.144 HD
ENDBRANCH  17  20
ENDBRANCH  13  17
ENDBRANCH   1  16
BRANCH   7  23
ATOM     23  C   UNL     1       1.007   4.921   1.321  0.00  0.00    +0.140 C 
BRANCH  23  24
ATOM     24  C   UNL     1      -0.092   5.913   1.604  0.00  0.00    +0.063 A 
ATOM     25  C   UNL     1      -0.843   5.793   2.729  0.00  0.00    +0.071 A 
ATOM     26  S   UNL     1      -1.944   7.190   2.544  0.00  0.00    -0.075 S 
ATOM     27  C   UNL     1      -1.291   7.777   0.986  0.00  0.00    +0.109 A 
ATOM     28  N   UNL     1      -0.329   6.892   0.760  0.00  0.00    -0.243 NA
BRANCH  27  29
ATOM     29  C   UNL     1      -1.710   8.935   0.170  0.00  0.00    +0.014 A 
ATOM     30  C   UNL     1      -2.757   9.757   0.582  0.00  0.00    +0.018 A 
ATOM     31  C   UNL     1      -3.110  10.807  -0.191  0.00  0.00    +0.046 A 
ATOM     32  S   UNL     1      -1.965  10.678  -1.554  0.00  0.00    -0.104 S 
ATOM     33  C   UNL     1      -1.076   9.230  -1.008  0.00  0.00    +0.055 A 
ENDBRANCH  27  29
ENDBRANCH  23  24
ENDBRANCH   7  23
TORSDOF 6
