REMARK  Name = ZINC59333636
REMARK  13 active torsions:
REMARK  status: ('A' for Active; 'I' for Inactive)
REMARK    1  A    between atoms: C_1  and  C_2
REMARK    2  A    between atoms: C_2  and  O_3
REMARK    3  A    between atoms: O_3  and  C_4
REMARK    4  A    between atoms: C_6  and  C_32
REMARK    5  A    between atoms: C_7  and  O_31
REMARK    6  A    between atoms: C_8  and  C_10
REMARK    7  A    between atoms: C_10  and  N_11
REMARK    8  A    between atoms: N_14  and  C_17
REMARK    9  A    between atoms: C_17  and  C_18
REMARK   10  A    between atoms: C_20  and  C_23
REMARK   11  A    between atoms: C_26  and  O_29
REMARK   12  A    between atoms: O_29  and  C_30
REMARK   13  A    between atoms: C_32  and  C_33
REMARK                            x       y       z     vdW  Elec       q    Type
REMARK                         _______ _______ _______ _____ _____    ______ ____
ROOT
ATOM      1  N   UNL     1       3.681  -4.564   3.413  0.00  0.00    +0.384 N 
ATOM      2  C   UNL     1       3.728  -5.532   2.309  0.00  0.00    -0.063 C 
ATOM      3  C   UNL     1       5.186  -5.807   1.933  0.00  0.00    +0.066 C 
ATOM      4  N   UNL     1       5.899  -6.337   3.104  0.00  0.00    -0.297 NA
ATOM      5  C   UNL     1       5.839  -5.389   4.225  0.00  0.00    +0.066 C 
ATOM      6  C   UNL     1       4.376  -5.118   4.582  0.00  0.00    -0.063 C 
ATOM      7  H   UNL     1       4.132  -3.707   3.128  0.00  0.00    -0.081 HD
ENDROOT
BRANCH   1   8
ATOM      8  C   UNL     1       2.281  -4.287   3.761  0.00  0.00    -0.039 C 
BRANCH   8  13
ATOM      9  C   UNL     1       0.093  -3.643   0.748  0.00  0.00    +0.121 A 
ATOM     10  C   UNL     1       0.363  -2.307   0.489  0.00  0.00    +0.053 A 
ATOM     11  C   UNL     1       1.252  -1.615   1.288  0.00  0.00    +0.001 A 
ATOM     12  C   UNL     1       1.875  -2.255   2.350  0.00  0.00    +0.122 A 
ATOM     13  C   UNL     1       1.605  -3.591   2.608  0.00  0.00    -0.019 A 
ATOM     14  C   UNL     1       0.711  -4.282   1.812  0.00  0.00    +0.051 A 
BRANCH  12  15
ATOM     15  O   UNL     1       2.750  -1.574   3.136  0.00  0.00    -0.506 OA
ATOM     16  H   UNL     1       2.331  -1.077   3.852  0.00  0.00    +0.292 HD
ENDBRANCH  12  15
BRANCH   9  17
ATOM     17  O   UNL     1      -0.781  -4.324  -0.039  0.00  0.00    -0.492 OA
BRANCH  17  19
ATOM     18  C   UNL     1      -2.328  -4.529  -1.885  0.00  0.00    +0.048 C 
ATOM     19  C   UNL     1      -1.381  -3.604  -1.117  0.00  0.00    +0.225 C 
ENDBRANCH  17  19
ENDBRANCH   9  17
BRANCH  11  20
ATOM     20  C   UNL     1       1.546  -0.164   1.007  0.00  0.00    +0.065 C 
BRANCH  20  21
ATOM     21  C   UNL     1       2.785  -0.058   0.156  0.00  0.00    -0.030 C 
ATOM     22  C   UNL     1       2.747   0.593  -0.980  0.00  0.00    +0.004 C 
ENDBRANCH  20  21
ENDBRANCH  11  20
ENDBRANCH   8  13
ENDBRANCH   1   8
BRANCH   4  23
ATOM     23  C   UNL     1       7.290  -6.667   2.768  0.00  0.00    +0.183 C 
BRANCH  23  24
ATOM     24  C   UNL     1       7.915  -7.429   3.908  0.00  0.00    +0.242 A 
ATOM     25  N   UNL     1       7.915  -8.724   4.049  0.00  0.00    -0.190 NA
ATOM     26  C   UNL     1       8.562  -9.064   5.178  0.00  0.00    +0.202 A 
ATOM     27  N   UNL     1       8.981  -7.971   5.766  0.00  0.00    -0.056 NA
ATOM     28  O   UNL     1       8.570  -6.889   4.944  0.00  0.00    -0.336 OA
BRANCH  26  29
ATOM     29  C   UNL     1       8.766 -10.447   5.675  0.00  0.00    +0.023 A 
ATOM     30  C   UNL     1       8.272 -11.530   4.949  0.00  0.00    +0.015 A 
ATOM     31  C   UNL     1       8.464 -12.814   5.413  0.00  0.00    +0.046 A 
ATOM     32  C   UNL     1       9.148 -13.029   6.603  0.00  0.00    +0.120 A 
ATOM     33  C   UNL     1       9.640 -11.952   7.328  0.00  0.00    +0.046 A 
ATOM     34  C   UNL     1       9.457 -10.666   6.865  0.00  0.00    +0.015 A 
BRANCH  32  35
ATOM     35  O   UNL     1       9.335 -14.295   7.058  0.00  0.00    -0.495 OA
ATOM     36  C   UNL     1      10.047 -14.444   8.288  0.00  0.00    +0.277 C 
ENDBRANCH  32  35
ENDBRANCH  26  29
ENDBRANCH  23  24
ENDBRANCH   4  23
TORSDOF 11
