REMARK  Name = ZINC00261619
REMARK  7 active torsions:
REMARK  status: ('A' for Active; 'I' for Inactive)
REMARK    1  A    between atoms: C_1  and  C_2
REMARK    2  A    between atoms: C_7  and  N_8
REMARK    3  A    between atoms: N_8  and  C_9
REMARK    4  A    between atoms: C_9  and  C_10
REMARK    5  A    between atoms: N_12  and  N_13
REMARK    6  A    between atoms: C_14  and  C_15
REMARK    7  A    between atoms: C_24  and  O_25
REMARK                            x       y       z     vdW  Elec       q    Type
REMARK                         _______ _______ _______ _____ _____    ______ ____
ROOT
ATOM      1  C   UNL     1      -0.742   1.585  -1.213  0.00  0.00    +0.249 C 
ATOM      2  O   UNL     1      -1.736   2.268  -1.088  0.00  0.00    -0.272 OA
ATOM      3  N   UNL     1      -0.288   1.272  -2.443  0.00  0.00    -0.206 N 
ATOM      4  H   UNL     1       0.507   0.726  -2.543  0.00  0.00    +0.177 HD
ENDROOT
BRANCH   3   5
ATOM      5  N   UNL     1      -0.966   1.736  -3.578  0.00  0.00    -0.188 NA
ATOM      6  C   UNL     1      -0.529   1.435  -4.764  0.00  0.00    +0.142 C 
BRANCH   6   7
ATOM      7  C   UNL     1      -1.240   1.922  -5.955  0.00  0.00    +0.044 A 
ATOM      8  C   UNL     1      -0.762   1.592  -7.297  0.00  0.00    -0.006 A 
ATOM      9  C   UNL     1       0.380   0.807  -7.493  0.00  0.00    +0.009 A 
ATOM     10  C   UNL     1       0.792   0.522  -8.761  0.00  0.00    +0.001 A 
ATOM     11  C   UNL     1       0.091   1.001  -9.865  0.00  0.00    +0.001 A 
ATOM     12  C   UNL     1      -1.024   1.767  -9.710  0.00  0.00    +0.008 A 
ATOM     13  C   UNL     1      -1.477   2.081  -8.417  0.00  0.00    -0.017 A 
ATOM     14  C   UNL     1      -2.624   2.869  -8.218  0.00  0.00    +0.012 A 
ATOM     15  C   UNL     1      -3.055   3.166  -6.963  0.00  0.00    +0.046 A 
ATOM     16  C   UNL     1      -2.388   2.703  -5.830  0.00  0.00    +0.126 A 
BRANCH  16  17
ATOM     17  O   UNL     1      -2.857   3.020  -4.595  0.00  0.00    -0.506 OA
ATOM     18  H   UNL     1      -2.495   3.842  -4.236  0.00  0.00    +0.292 HD
ENDBRANCH  16  17
ENDBRANCH   6   7
ENDBRANCH   3   5
BRANCH   1  19
ATOM     19  C   UNL     1      -0.013   1.086   0.008  0.00  0.00    +0.199 C 
BRANCH  19  20
ATOM     20  N   UNL     1      -0.698   1.558   1.213  0.00  0.00    -0.335 N 
ATOM     21  H   UNL     1      -1.495   2.106   1.135  0.00  0.00    +0.147 HD
BRANCH  20  28
ATOM     22  C   UNL     1      -2.092   2.518   3.500  0.00  0.00    +0.045 C 
ATOM     23  C   UNL     1      -0.854   1.668   3.619  0.00  0.00    -0.030 A 
ATOM     24  C   UNL     1      -0.363   1.331   4.866  0.00  0.00    +0.005 A 
ATOM     25  C   UNL     1       0.773   0.550   4.976  0.00  0.00    +0.000 A 
ATOM     26  C   UNL     1       1.421   0.103   3.839  0.00  0.00    +0.002 A 
ATOM     27  C   UNL     1       0.933   0.432   2.590  0.00  0.00    +0.023 A 
ATOM     28  C   UNL     1      -0.205   1.221   2.475  0.00  0.00    +0.030 A 
ENDBRANCH  20  28
ENDBRANCH  19  20
ENDBRANCH   1  19
TORSDOF 6
