REMARK  Name = ZINC22811576
REMARK  11 active torsions:
REMARK  status: ('A' for Active; 'I' for Inactive)
REMARK    1  A    between atoms: C_1  and  C_2
REMARK    2  A    between atoms: C_2  and  O_3
REMARK    3  A    between atoms: O_3  and  C_4
REMARK    4  A    between atoms: C_4  and  C_6
REMARK    5  A    between atoms: C_7  and  C_20
REMARK    6  A    between atoms: C_12  and  C_14
REMARK    7  A    between atoms: C_20  and  N_21
REMARK    8  A    between atoms: N_24  and  C_27
REMARK    9  A    between atoms: C_27  and  C_28
REMARK   10  A    between atoms: C_32  and  C_39
REMARK   11  A    between atoms: C_35  and  C_38
REMARK                            x       y       z     vdW  Elec       q    Type
REMARK                         _______ _______ _______ _____ _____    ______ ____
ROOT
ATOM      1  C   UNL     1      -5.708  -2.774   3.312  0.00  0.00    +0.079 C 
ATOM      2  C   UNL     1      -5.664  -2.064   2.164  0.00  0.00    +0.038 C 
ATOM      3  N   UNL     1      -6.248  -0.833   2.074  0.00  0.00    -0.271 N 
ATOM      4  C   UNL     1      -6.904  -0.246   3.083  0.00  0.00    +0.304 C 
ATOM      5  O   UNL     1      -7.396   0.851   2.906  0.00  0.00    -0.252 OA
ATOM      6  N   UNL     1      -7.032  -0.831   4.291  0.00  0.00    -0.288 N 
ATOM      7  C   UNL     1      -6.432  -2.160   4.493  0.00  0.00    +0.144 C 
ATOM      8  H   UNL     1      -6.194  -0.266   1.133  0.00  0.00    +0.156 HD
ATOM      9  H   UNL     1      -7.569  -0.339   5.115  0.00  0.00    +0.151 HD
ENDROOT
BRANCH   7  10
ATOM     10  C   UNL     1      -7.529  -3.106   4.908  0.00  0.00    -0.023 A 
ATOM     11  C   UNL     1      -8.724  -3.126   4.213  0.00  0.00    +0.006 A 
ATOM     12  C   UNL     1      -9.729  -3.997   4.592  0.00  0.00    +0.000 A 
ATOM     13  C   UNL     1      -9.542  -4.841   5.670  0.00  0.00    +0.000 A 
ATOM     14  C   UNL     1      -8.349  -4.817   6.368  0.00  0.00    +0.000 A 
ATOM     15  C   UNL     1      -7.343  -3.950   5.987  0.00  0.00    +0.006 A 
ENDBRANCH   7  10
BRANCH   1  16
ATOM     16  C   UNL     1      -5.100  -4.047   3.408  0.00  0.00    +0.339 C 
ATOM     17  O   UNL     1      -4.429  -4.472   2.486  0.00  0.00    -0.245 OA
BRANCH  16  18
ATOM     18  O   UNL     1      -5.263  -4.791   4.522  0.00  0.00    -0.462 OA
BRANCH  18  20
ATOM     19  C   UNL     1      -4.918  -6.758   5.883  0.00  0.00    +0.048 C 
ATOM     20  C   UNL     1      -4.620  -6.067   4.551  0.00  0.00    +0.229 C 
ENDBRANCH  18  20
ENDBRANCH  16  18
ENDBRANCH   1  16
BRANCH   2  21
ATOM     21  C   UNL     1      -4.955  -2.637   0.964  0.00  0.00    +0.135 C 
BRANCH  21  22
ATOM     22  N   UNL     1      -3.520  -2.332   1.052  0.00  0.00    -0.300 NA
ATOM     23  C   UNL     1      -2.833  -2.663  -0.204  0.00  0.00    +0.066 C 
ATOM     24  C   UNL     1      -1.333  -2.405  -0.046  0.00  0.00    -0.063 C 
ATOM     25  N   UNL     1      -1.116  -0.997   0.314  0.00  0.00    +0.387 N 
ATOM     26  C   UNL     1      -1.803  -0.666   1.570  0.00  0.00    -0.063 C 
ATOM     27  C   UNL     1      -3.303  -0.923   1.412  0.00  0.00    +0.066 C 
ATOM     28  H   UNL     1      -1.545  -0.373  -0.483  0.00  0.00    -0.081 HD
BRANCH  25  29
ATOM     29  C   UNL     1       0.318  -0.692   0.402  0.00  0.00    +0.019 C 
BRANCH  29  30
ATOM     30  C   UNL     1       0.508   0.798   0.528  0.00  0.00    +0.199 C 
ATOM     31  O   UNL     1      -0.457   1.533   0.538  0.00  0.00    -0.278 OA
ATOM     32  N   UNL     1       1.749   1.314   0.623  0.00  0.00    -0.303 N 
ATOM     33  C   UNL     1       1.950   2.764   0.747  0.00  0.00    +0.111 C 
ATOM     34  C   UNL     1       2.920   3.222  -0.346  0.00  0.00    +0.004 C 
ATOM     35  C   UNL     1       4.208   2.400  -0.257  0.00  0.00    +0.009 C 
ATOM     36  C   UNL     1       3.887   0.921  -0.484  0.00  0.00    +0.004 C 
ATOM     37  C   UNL     1       2.927   0.436   0.613  0.00  0.00    +0.111 C 
ATOM     38  C   UNL     1       5.180   0.104  -0.427  0.00  0.00    +0.009 C 
ATOM     39  C   UNL     1       3.246   4.705  -0.151  0.00  0.00    +0.009 C 
ENDBRANCH  29  30
ENDBRANCH  25  29
ENDBRANCH  21  22
ENDBRANCH   2  21
TORSDOF 8
