REMARK  Name = ZINC38979402
REMARK  6 active torsions:
REMARK  status: ('A' for Active; 'I' for Inactive)
REMARK    1  A    between atoms: C_1  and  C_2
REMARK    2  A    between atoms: C_3  and  N_9
REMARK    3  A    between atoms: N_9  and  C_10
REMARK    4  A    between atoms: C_12  and  C_22
REMARK    5  A    between atoms: C_27  and  O_34
REMARK    6  A    between atoms: O_34  and  C_35
REMARK                            x       y       z     vdW  Elec       q    Type
REMARK                         _______ _______ _______ _____ _____    ______ ____
ROOT
ATOM      1  C   UNL     1       0.327  -0.843  -3.644  0.00  0.00    +0.188 C 
ATOM      2  C   UNL     1       1.083   0.070  -4.626  0.00  0.00    +0.135 C 
ATOM      3  N   UNL     1       0.039   0.564  -5.530  0.00  0.00    -0.366 N 
ATOM      4  C   UNL     1      -1.133   0.068  -5.191  0.00  0.00    +0.101 C 
ATOM      5  N   UNL     1      -1.071  -0.767  -4.102  0.00  0.00    -0.271 N 
ATOM      6  C   UNL     1      -2.194  -1.372  -3.614  0.00  0.00    +0.098 C 
ATOM      7  C   UNL     1      -3.397  -1.166  -4.188  0.00  0.00    +0.055 C 
ATOM      8  C   UNL     1      -3.508  -0.319  -5.305  0.00  0.00    +0.024 C 
ATOM      9  C   UNL     1      -2.397   0.296  -5.805  0.00  0.00    +0.043 C 
ATOM     10 CL   UNL     1      -4.809  -1.947  -3.548  0.00  0.00    -0.082 Cl
ATOM     11  H   UNL     1       0.190   1.171  -6.271  0.00  0.00    +0.161 HD
ENDROOT
BRANCH   2  12
ATOM     12  C   UNL     1       1.743   1.231  -3.879  0.00  0.00    +0.124 C 
ATOM     13  C   UNL     1       0.646   2.040  -3.215  0.00  0.00    -0.002 C 
ATOM     14  C   UNL     1       0.557   3.360  -3.543  0.00  0.00    -0.003 A 
ATOM     15  C   UNL     1      -0.472   4.213  -2.948  0.00  0.00    +0.055 A 
ATOM     16  C   UNL     1      -0.524   5.526  -3.306  0.00  0.00    +0.121 A 
ATOM     17  C   UNL     1       0.384   6.065  -4.224  0.00  0.00    +0.047 A 
ATOM     18  C   UNL     1       1.360   5.324  -4.809  0.00  0.00    +0.027 A 
ATOM     19  C   UNL     1       1.499   3.956  -4.507  0.00  0.00    +0.041 A 
ATOM     20  N   UNL     1       2.462   3.241  -5.088  0.00  0.00    -0.284 N 
ATOM     21  C   UNL     1       2.647   1.954  -4.851  0.00  0.00    +0.226 C 
ATOM     22  O   UNL     1       3.544   1.353  -5.413  0.00  0.00    -0.275 OA
ATOM     23  H   UNL     1       3.054   3.686  -5.715  0.00  0.00    +0.155 HD
BRANCH  16  24
ATOM     24  O   UNL     1      -1.476   6.328  -2.760  0.00  0.00    -0.495 OA
ATOM     25  C   UNL     1      -1.484   7.697  -3.171  0.00  0.00    +0.277 C 
ENDBRANCH  16  24
ENDBRANCH   2  12
BRANCH   1  26
ATOM     26  N   UNL     1       0.448  -0.339  -2.274  0.00  0.00    -0.324 N 
ATOM     27  H   UNL     1      -0.289   0.141  -1.867  0.00  0.00    +0.148 HD
BRANCH  26  30
ATOM     28  C   UNL     1       0.695   0.881   0.284  0.00  0.00    +0.047 C 
ATOM     29  C   UNL     1       1.789   0.025  -0.301  0.00  0.00    -0.011 A 
ATOM     30  C   UNL     1       1.626  -0.551  -1.554  0.00  0.00    +0.033 A 
ATOM     31  C   UNL     1       2.637  -1.339  -2.089  0.00  0.00    +0.023 A 
ATOM     32  C   UNL     1       3.801  -1.547  -1.375  0.00  0.00    +0.003 A 
ATOM     33  C   UNL     1       3.961  -0.972  -0.128  0.00  0.00    +0.020 A 
ATOM     34  C   UNL     1       2.958  -0.182   0.407  0.00  0.00    +0.046 A 
ATOM     35 CL   UNL     1       3.166   0.544   1.970  0.00  0.00    -0.083 Cl
ENDBRANCH  26  30
ENDBRANCH   1  26
TORSDOF 4
