REMARK  Name = ZINC01208166
REMARK  3 active torsions:
REMARK  status: ('A' for Active; 'I' for Inactive)
REMARK    1  A    between atoms: C_10  and  C_11
REMARK    2  A    between atoms: C_14  and  C_16
REMARK    3  A    between atoms: C_19  and  N_23
REMARK                            x       y       z     vdW  Elec       q    Type
REMARK                         _______ _______ _______ _____ _____    ______ ____
ROOT
ATOM      1  C   UNL     1       2.437   7.913   0.018  0.00  0.00    +0.130 A 
ATOM      2  C   UNL     1       3.236   9.141   0.016  0.00  0.00    +0.050 A 
ATOM      3  C   UNL     1       2.350  10.174   0.030  0.00  0.00    +0.050 A 
ATOM      4  C   UNL     1       1.053   9.621   0.041  0.00  0.00    +0.137 A 
ATOM      5  O   UNL     1       1.136   8.281   0.027  0.00  0.00    -0.455 OA
ENDROOT
BRANCH   1  15
ATOM      6  C   UNL     1      -0.013   1.076   0.008  0.00  0.00    +0.001 A 
ATOM      7  C   UNL     1      -1.225   1.740   0.017  0.00  0.00    +0.001 A 
ATOM      8  C   UNL     1      -1.243   3.128   0.031  0.00  0.00    +0.016 A 
ATOM      9  C   UNL     1      -0.056   3.832   0.023  0.00  0.00    +0.024 A 
ATOM     10  C   UNL     1       1.187   3.181   0.007  0.00  0.00    +0.036 A 
ATOM     11  C   UNL     1       1.178   1.771   0.000  0.00  0.00    +0.013 A 
ATOM     12  C   UNL     1       2.352   4.077   0.000  0.00  0.00    +0.201 C 
ATOM     13  O   UNL     1       3.493   3.661  -0.013  0.00  0.00    -0.286 OA
ATOM     14  C   UNL     1       2.034   5.530   0.010  0.00  0.00    +0.063 C 
ATOM     15  C   UNL     1       2.924   6.614   0.006  0.00  0.00    +0.065 C 
ATOM     16  S   UNL     1       0.305   5.568   0.027  0.00  0.00    -0.085 S 
ENDBRANCH   1  15
BRANCH   4  17
ATOM     17  C   UNL     1      -0.192  10.389   0.056  0.00  0.00    +0.031 A 
ATOM     18  C   UNL     1      -1.214  10.101  -0.866  0.00  0.00    +0.015 A 
ATOM     19  C   UNL     1      -2.373  10.822  -0.845  0.00  0.00    +0.033 A 
ATOM     20  C   UNL     1      -2.550  11.840   0.082  0.00  0.00    +0.127 A 
ATOM     21  C   UNL     1      -1.554  12.138   0.998  0.00  0.00    +0.048 A 
ATOM     22  C   UNL     1      -0.378  11.419   0.998  0.00  0.00    +0.031 A 
ATOM     23 BR   UNL     1       0.981  11.818   2.252  0.00  0.00    -0.049 Br
BRANCH  20  24
ATOM     24  N   UNL     1      -3.812  12.613   0.092  0.00  0.00    +0.056 N 
ATOM     25  O   UNL     1      -4.762  12.334  -0.776  0.00  0.00    -0.126 OA
ATOM     26  O   UNL     1      -3.986  13.580   0.969  0.00  0.00    -0.126 OA
ENDBRANCH  20  24
ENDBRANCH   4  17
TORSDOF 3
