REMARK  Name = ZINC55023499
REMARK  5 active torsions:
REMARK  status: ('A' for Active; 'I' for Inactive)
REMARK    1  A    between atoms: C_4  and  C_7
REMARK    2  A    between atoms: C_7  and  C_9
REMARK    3  A    between atoms: C_7  and  N_13
REMARK    4  A    between atoms: C_9  and  C_10
REMARK    5  A    between atoms: C_16  and  C_18
REMARK                            x       y       z     vdW  Elec       q    Type
REMARK                         _______ _______ _______ _____ _____    ______ ____
ROOT
ATOM      1  C   UNL     1       3.711  -0.707  -0.038  0.00  0.00    +0.144 C 
ENDROOT
BRANCH   1   5
ATOM      2  C   UNL     1       0.176   1.683  -0.234  0.00  0.00    +0.000 A 
ATOM      3  C   UNL     1       1.414   2.260  -0.448  0.00  0.00    +0.000 A 
ATOM      4  C   UNL     1       2.558   1.487  -0.384  0.00  0.00    +0.006 A 
ATOM      5  C   UNL     1       2.464   0.136  -0.106  0.00  0.00    -0.023 A 
ATOM      6  C   UNL     1       1.227  -0.441   0.109  0.00  0.00    +0.006 A 
ATOM      7  C   UNL     1       0.083   0.332   0.044  0.00  0.00    +0.000 A 
ENDBRANCH   1   5
BRANCH   1   8
ATOM      8  N   UNL     1       3.739  -1.631  -1.174  0.00  0.00    -0.263 N 
ATOM      9  C   UNL     1       2.670  -2.241  -1.728  0.00  0.00    +0.109 A 
ATOM     10  C   UNL     1       3.116  -3.009  -2.748  0.00  0.00    +0.053 A 
ATOM     11  C   UNL     1       4.505  -2.864  -2.821  0.00  0.00    +0.165 A 
ATOM     12  N   UNL     1       4.879  -2.033  -1.882  0.00  0.00    -0.167 NA
BRANCH  11  13
ATOM     13  C   UNL     1       5.413  -3.541  -3.815  0.00  0.00    +0.436 C 
ATOM     14  F   UNL     1       5.545  -2.736  -4.951  0.00  0.00    -0.164 F 
ATOM     15  F   UNL     1       6.671  -3.740  -3.236  0.00  0.00    -0.164 F 
ATOM     16  F   UNL     1       4.867  -4.777  -4.179  0.00  0.00    -0.164 F 
ENDBRANCH  11  13
ENDBRANCH   1   8
BRANCH   1  17
ATOM     17  C   UNL     1       3.717  -1.504   1.268  0.00  0.00    +0.100 C 
BRANCH  17  18
ATOM     18  C   UNL     1       5.019  -2.253   1.395  0.00  0.00    +0.065 C 
ATOM     19  N   UNL     1       5.128  -3.476   0.905  0.00  0.00    -0.391 N 
ATOM     20  N   UNL     1       6.051  -1.686   1.994  0.00  0.00    -0.348 N 
ATOM     21  H   UNL     1       4.370  -3.892   0.465  0.00  0.00    +0.157 HD
ATOM     22  H   UNL     1       5.971  -0.788   2.353  0.00  0.00    +0.143 HD
ATOM     23  H   UNL     1       6.889  -2.168   2.075  0.00  0.00    +0.143 HD
ATOM     24  H   UNL     1       5.966  -3.958   0.987  0.00  0.00    +0.157 HD
ENDBRANCH  17  18
ENDBRANCH   1  17
TORSDOF 5
