REMARK  Name = ZINC13635903
REMARK  4 active torsions:
REMARK  status: ('A' for Active; 'I' for Inactive)
REMARK    1  A    between atoms: C_1  and  C_2
REMARK    2  A    between atoms: C_2  and  C_4
REMARK    3  A    between atoms: N_5  and  N_6
REMARK    4  A    between atoms: N_6  and  C_7
REMARK                            x       y       z     vdW  Elec       q    Type
REMARK                         _______ _______ _______ _____ _____    ______ ____
ROOT
ATOM      1  C   UNL     1      -1.216  -0.744   0.094  0.00  0.00    +0.159 C 
ATOM      2  N   UNL     1      -1.213  -2.049   0.208  0.00  0.00    -0.291 N 
ATOM      3  N   UNL     1      -2.420  -0.035   0.189  0.00  0.00    -0.283 N 
ATOM      4  C   UNL     1      -3.174   0.321  -1.021  0.00  0.00    +0.113 C 
ATOM      5  C   UNL     1      -3.621   1.782  -0.882  0.00  0.00    +0.024 C 
ATOM      6  C   UNL     1      -4.568   1.897   0.312  0.00  0.00    +0.038 C 
ATOM      7  C   UNL     1      -3.951   1.272   1.536  0.00  0.00    -0.026 A 
ATOM      8  C   UNL     1      -2.927   0.341   1.437  0.00  0.00    +0.038 A 
ATOM      9  C   UNL     1      -2.386  -0.225   2.586  0.00  0.00    +0.024 A 
ATOM     10  C   UNL     1      -2.870   0.136   3.828  0.00  0.00    +0.002 A 
ATOM     11  C   UNL     1      -3.893   1.061   3.927  0.00  0.00    +0.000 A 
ATOM     12  C   UNL     1      -4.427   1.634   2.784  0.00  0.00    +0.005 A 
ATOM     13  H   UNL     1      -2.052  -2.535   0.228  0.00  0.00    +0.186 HD
ENDROOT
BRANCH   1  15
ATOM     14  C   UNL     1       0.023   1.456  -0.092  0.00  0.00    +0.095 C 
ATOM     15  C   UNL     1      -0.001  -0.050  -0.125  0.00  0.00    +0.192 C 
ATOM     16  O   UNL     1       1.022  -0.669  -0.339  0.00  0.00    -0.289 OA
ENDBRANCH   1  15
BRANCH   2  17
ATOM     17  N   UNL     1       0.001  -2.741   0.301  0.00  0.00    -0.259 N 
ATOM     18  H   UNL     1       0.835  -2.251   0.372  0.00  0.00    +0.172 HD
BRANCH  17  19
ATOM     19  C   UNL     1       0.011  -4.136   0.291  0.00  0.00    +0.046 A 
ATOM     20  C   UNL     1      -1.183  -4.840   0.183  0.00  0.00    +0.026 A 
ATOM     21  C   UNL     1      -1.169  -6.221   0.174  0.00  0.00    +0.017 A 
ATOM     22  C   UNL     1       0.030  -6.904   0.272  0.00  0.00    +0.018 A 
ATOM     23  C   UNL     1       1.220  -6.206   0.380  0.00  0.00    +0.017 A 
ATOM     24  C   UNL     1       1.215  -4.825   0.383  0.00  0.00    +0.026 A 
ATOM     25 BR   UNL     1       0.043  -8.795   0.260  0.00  0.00    -0.050 Br
ENDBRANCH  17  19
ENDBRANCH   2  17
TORSDOF 3
