REMARK  Name = ZINC12293495
REMARK  7 active torsions:
REMARK  status: ('A' for Active; 'I' for Inactive)
REMARK    1  A    between atoms: C_1  and  C_2
REMARK    2  A    between atoms: C_5  and  C_9
REMARK    3  A    between atoms: C_7  and  C_8
REMARK    4  A    between atoms: C_9  and  C_11
REMARK    5  A    between atoms: C_9  and  O_28
REMARK    6  A    between atoms: C_11  and  N_56
REMARK    7  A    between atoms: C_18  and  O_27
REMARK                            x       y       z     vdW  Elec       q    Type
REMARK                         _______ _______ _______ _____ _____    ______ ____
ROOT
ATOM      1  C   UNL     1       1.431   1.873  -0.008  0.00  0.00    -0.075 C 
ATOM      2  C   UNL     1       0.026   1.264  -0.022  0.00  0.00    +0.029 C 
ATOM      3  C   UNL     1       0.137  -0.260  -0.101  0.00  0.00    +0.110 C 
ATOM      4  C   UNL     1       0.934  -0.648  -1.347  0.00  0.00    +0.029 C 
ATOM      5  C   UNL     1       2.311   0.018  -1.296  0.00  0.00    -0.075 C 
ATOM      6  C   UNL     1      -1.267  -0.870  -0.179  0.00  0.00    +0.084 C 
ATOM      7  C   UNL     1      -1.126  -2.383  -0.361  0.00  0.00    +0.152 C 
ATOM      8  C   UNL     1      -0.141  -2.925   0.643  0.00  0.00    +0.023 A 
ATOM      9  C   UNL     1      -0.143  -4.284   0.911  0.00  0.00    +0.010 A 
ATOM     10  C   UNL     1       0.749  -4.816   1.822  0.00  0.00    +0.001 A 
ATOM     11  C   UNL     1       1.649  -3.991   2.470  0.00  0.00    +0.004 A 
ATOM     12  C   UNL     1       1.655  -2.636   2.208  0.00  0.00    +0.046 A 
ATOM     13  C   UNL     1       0.756  -2.097   1.293  0.00  0.00    +0.127 A 
ATOM     14  O   UNL     1       0.788  -0.758   1.066  0.00  0.00    -0.485 OA
ATOM     15  N   UNL     1       2.133   1.485  -1.250  0.00  0.00    +0.382 N 
ATOM     16  H   UNL     1       1.570   1.777  -2.057  0.00  0.00    -0.082 HD
ENDROOT
BRANCH   7  17
ATOM     17  O   UNL     1      -2.397  -3.006  -0.165  0.00  0.00    -0.387 OA
ATOM     18  H   UNL     1      -2.384  -3.967  -0.269  0.00  0.00    +0.210 HD
ENDBRANCH   7  17
BRANCH  15  19
ATOM     19  C   UNL     1       3.449   2.154  -1.315  0.00  0.00    -0.042 C 
BRANCH  19  20
ATOM     20  C   UNL     1       4.185   2.025   0.020  0.00  0.00    +0.128 C 
BRANCH  20  25
ATOM     21  C   UNL     1       9.030   5.170  -0.140  0.00  0.00    +0.044 C 
ATOM     22  C   UNL     1       7.766   4.350  -0.098  0.00  0.00    -0.048 A 
ATOM     23  C   UNL     1       7.734   3.101  -0.689  0.00  0.00    +0.004 A 
ATOM     24  C   UNL     1       6.575   2.348  -0.651  0.00  0.00    +0.006 A 
ATOM     25  C   UNL     1       5.449   2.845  -0.022  0.00  0.00    -0.021 A 
ATOM     26  C   UNL     1       5.480   4.096   0.565  0.00  0.00    +0.009 A 
ATOM     27  C   UNL     1       6.640   4.847   0.530  0.00  0.00    -0.047 A 
ATOM     28  C   UNL     1       6.676   6.209   1.174  0.00  0.00    +0.044 C 
ENDBRANCH  20  25
BRANCH  20  29
ATOM     29  O   UNL     1       4.514   0.653   0.251  0.00  0.00    -0.389 OA
ATOM     30  H   UNL     1       5.084   0.266  -0.428  0.00  0.00    +0.210 HD
ENDBRANCH  20  29
ENDBRANCH  19  20
ENDBRANCH  15  19
TORSDOF 5
