REMARK  Name = ZINC06808067
REMARK  8 active torsions:
REMARK  status: ('A' for Active; 'I' for Inactive)
REMARK    1  A    between atoms: C_1  and  C_2
REMARK    2  A    between atoms: C_2  and  C_3
REMARK    3  A    between atoms: C_3  and  C_29
REMARK    4  A    between atoms: C_13  and  C_27
REMARK    5  A    between atoms: C_14  and  C_16
REMARK    6  A    between atoms: N_18  and  C_19
REMARK    7  A    between atoms: C_23  and  C_26
REMARK    8  A    between atoms: C_24  and  C_25
REMARK                            x       y       z     vdW  Elec       q    Type
REMARK                         _______ _______ _______ _____ _____    ______ ____
ROOT
ATOM      1  C   UNL     1       2.287  -4.214   1.828  0.00  0.00    +0.115 C 
ATOM      2  C   UNL     1       3.403  -3.188   2.074  0.00  0.00    +0.127 C 
ATOM      3  C   UNL     1       3.116  -1.994   1.181  0.00  0.00    +0.171 C 
ATOM      4  O   UNL     1       4.004  -1.407   0.598  0.00  0.00    -0.292 OA
ATOM      5  C   UNL     1       1.711  -1.585   1.060  0.00  0.00    +0.070 A 
ATOM      6  C   UNL     1       0.709  -2.436   1.542  0.00  0.00    +0.133 A 
ATOM      7  C   UNL     1      -0.626  -2.058   1.420  0.00  0.00    +0.050 A 
ATOM      8  C   UNL     1      -0.970  -0.858   0.839  0.00  0.00    +0.050 A 
ATOM      9  C   UNL     1       0.010   0.006   0.356  0.00  0.00    +0.137 A 
ATOM     10  C   UNL     1       1.363  -0.354   0.464  0.00  0.00    +0.038 A 
ATOM     11  C   UNL     1       2.106   0.708  -0.105  0.00  0.00    +0.008 A 
ATOM     12  C   UNL     1       1.208   1.639  -0.522  0.00  0.00    +0.194 A 
ATOM     13  O   UNL     1      -0.042   1.213  -0.243  0.00  0.00    -0.450 OA
ATOM     14  C   UNL     1       3.605   0.790  -0.226  0.00  0.00    +0.048 C 
ATOM     15  O   UNL     1       1.024  -3.617   2.123  0.00  0.00    -0.485 OA
ATOM     16  C   UNL     1       2.312  -4.655   0.363  0.00  0.00    +0.056 C 
ENDROOT
BRANCH  12  17
ATOM     17  C   UNL     1       1.546   2.912  -1.176  0.00  0.00    +0.284 C 
ATOM     18  O   UNL     1       2.710   3.200  -1.382  0.00  0.00    -0.266 OA
ATOM     19  N   UNL     1       0.566   3.760  -1.548  0.00  0.00    -0.279 N 
ATOM     20  H   UNL     1      -0.357   3.560  -1.328  0.00  0.00    +0.155 HD
BRANCH  19  21
ATOM     21  C   UNL     1       0.881   4.928  -2.250  0.00  0.00    +0.037 A 
ATOM     22  C   UNL     1       2.118   5.534  -2.073  0.00  0.00    +0.023 A 
ATOM     23  C   UNL     1       2.426   6.687  -2.768  0.00  0.00    +0.002 A 
ATOM     24  C   UNL     1       1.504   7.238  -3.639  0.00  0.00    +0.004 A 
ATOM     25  C   UNL     1       0.272   6.636  -3.818  0.00  0.00    -0.046 A 
ATOM     26  C   UNL     1      -0.041   5.480  -3.130  0.00  0.00    -0.026 A 
ATOM     27  C   UNL     1      -1.382   4.822  -3.329  0.00  0.00    +0.046 C 
ATOM     28  C   UNL     1      -0.729   7.239  -4.770  0.00  0.00    +0.044 C 
ENDBRANCH  19  21
ENDBRANCH  12  17
BRANCH   1  30
ATOM     29  C   UNL     1       1.463  -6.503   2.398  0.00  0.00    +0.008 C 
ATOM     30  C   UNL     1       2.501  -5.430   2.732  0.00  0.00    +0.045 C 
ENDBRANCH   1  30
TORSDOF 3
