REMARK  Name = ZINC39995916
REMARK  8 active torsions:
REMARK  status: ('A' for Active; 'I' for Inactive)
REMARK    1  A    between atoms: C_1  and  N_2
REMARK    2  A    between atoms: N_2  and  C_3
REMARK    3  A    between atoms: C_4  and  C_6
REMARK    4  A    between atoms: C_6  and  C_8
REMARK    5  A    between atoms: C_6  and  S_14
REMARK    6  A    between atoms: S_14  and  C_15
REMARK    7  A    between atoms: C_19  and  C_24
REMARK    8  A    between atoms: N_20  and  C_21
REMARK                            x       y       z     vdW  Elec       q    Type
REMARK                         _______ _______ _______ _____ _____    ______ ____
ROOT
ATOM      1  C   UNL     1       2.726  -1.626  -2.526  0.00  0.00    +0.238 C 
ATOM      2  N   UNL     1       2.078  -1.937  -3.811  0.00  0.00    -0.237 N 
ATOM      3  N   UNL     1       1.541  -0.736  -4.287  0.00  0.00    -0.169 NA
ATOM      4  C   UNL     1       1.780   0.250  -3.463  0.00  0.00    +0.147 C 
ATOM      5  N   UNL     1       2.504  -0.182  -2.345  0.00  0.00    -0.282 N 
ATOM      6  H   UNL     1       2.032  -2.805  -4.242  0.00  0.00    +0.171 HD
ENDROOT
BRANCH   4   7
ATOM      7  C   UNL     1       1.365   1.575  -3.672  0.00  0.00    +0.022 C 
ATOM      8  C   UNL     1       0.564   2.054  -4.710  0.00  0.00    +0.006 A 
ATOM      9  C   UNL     1      -0.051   1.419  -5.810  0.00  0.00    +0.010 A 
ATOM     10  C   UNL     1      -0.792   2.151  -6.681  0.00  0.00    +0.001 A 
ATOM     11  C   UNL     1      -0.965   3.527  -6.518  0.00  0.00    +0.002 A 
ATOM     12  C   UNL     1      -0.404   4.201  -5.485  0.00  0.00    +0.026 A 
ATOM     13  C   UNL     1       0.385   3.504  -4.533  0.00  0.00    +0.043 A 
ATOM     14  N   UNL     1       1.026   3.921  -3.459  0.00  0.00    -0.380 N 
ATOM     15  C   UNL     1       1.687   2.780  -2.817  0.00  0.00    +0.152 C 
ATOM     16  H   UNL     1       1.053   4.836  -3.141  0.00  0.00    +0.160 HD
ENDBRANCH   4   7
BRANCH   5  17
ATOM     17  C   UNL     1       2.953   0.639  -1.218  0.00  0.00    +0.078 C 
ATOM     18  C   UNL     1       4.461   0.812  -1.026  0.00  0.00    +0.024 C 
ATOM     19  C   UNL     1       3.664  -0.073  -0.065  0.00  0.00    +0.024 C 
ENDBRANCH   5  17
BRANCH   1  20
ATOM     20  S   UNL     1       1.949  -2.561  -1.180  0.00  0.00    -0.101 S 
BRANCH  20  21
ATOM     21  C   UNL     1       0.174  -2.268  -1.409  0.00  0.00    +0.165 C 
BRANCH  21  22
ATOM     22  C   UNL     1      -0.608  -3.194  -0.514  0.00  0.00    -0.026 A 
ATOM     23  C   UNL     1      -0.503  -3.079   0.859  0.00  0.00    +0.005 A 
ATOM     24  C   UNL     1      -1.220  -3.929   1.681  0.00  0.00    +0.000 A 
ATOM     25  C   UNL     1      -2.043  -4.893   1.128  0.00  0.00    +0.000 A 
ATOM     26  C   UNL     1      -2.148  -5.007  -0.245  0.00  0.00    +0.000 A 
ATOM     27  C   UNL     1      -1.434  -4.155  -1.066  0.00  0.00    +0.005 A 
ENDBRANCH  21  22
BRANCH  21  31
ATOM     28  C   UNL     1      -1.462   1.191  -1.363  0.00  0.00    +0.131 C 
ATOM     29  N   UNL     1      -1.208  -0.228  -1.624  0.00  0.00    -0.306 N 
ATOM     30  C   UNL     1      -2.107  -0.983  -2.500  0.00  0.00    +0.131 C 
ATOM     31  C   UNL     1      -0.148  -0.838  -1.058  0.00  0.00    +0.233 C 
ATOM     32  O   UNL     1       0.546  -0.237  -0.266  0.00  0.00    -0.274 OA
ENDBRANCH  21  31
ENDBRANCH  20  21
ENDBRANCH   1  20
TORSDOF 6
