REMARK  Name = ZINC41307192
REMARK  3 active torsions:
REMARK  status: ('A' for Active; 'I' for Inactive)
REMARK    1  A    between atoms: C_1  and  C_2
REMARK    2  A    between atoms: C_2  and  C_21
REMARK    3  A    between atoms: C_12  and  C_14
REMARK                            x       y       z     vdW  Elec       q    Type
REMARK                         _______ _______ _______ _____ _____    ______ ____
ROOT
ATOM      1  C   UNL     1       1.131   0.250  -2.535  0.00  0.00    +0.057 C 
ATOM      2  C   UNL     1       0.746  -1.034  -1.797  0.00  0.00    +0.121 C 
ATOM      3  C   UNL     1      -0.696  -0.919  -1.282  0.00  0.00    +0.161 C 
ATOM      4  N   UNL     1      -1.003  -2.153  -0.539  0.00  0.00    -0.260 N 
ATOM      5  C   UNL     1      -0.011  -2.667   0.312  0.00  0.00    +0.079 A 
ATOM      6  C   UNL     1      -0.331  -3.644   1.242  0.00  0.00    +0.027 A 
ATOM      7  C   UNL     1       0.650  -4.148   2.076  0.00  0.00    +0.002 A 
ATOM      8  C   UNL     1       1.948  -3.679   1.982  0.00  0.00    +0.004 A 
ATOM      9  C   UNL     1       2.272  -2.704   1.058  0.00  0.00    +0.047 A 
ATOM     10  C   UNL     1       1.294  -2.191   0.218  0.00  0.00    +0.143 A 
ATOM     11  O   UNL     1       1.620  -1.226  -0.682  0.00  0.00    -0.483 OA
ATOM     12  C   UNL     1      -2.195  -2.768  -0.672  0.00  0.00    +0.251 C 
ATOM     13  O   UNL     1      -2.385  -3.846  -0.142  0.00  0.00    -0.270 OA
ATOM     14  C   UNL     1       0.859  -2.227  -2.749  0.00  0.00    +0.057 C 
ENDROOT
BRANCH  12  15
ATOM     15  C   UNL     1      -3.271  -2.133  -1.461  0.00  0.00    +0.037 A 
ATOM     16  C   UNL     1      -3.363  -0.742  -1.528  0.00  0.00    +0.014 A 
ATOM     17  C   UNL     1      -4.369  -0.154  -2.266  0.00  0.00    +0.015 A 
ATOM     18  C   UNL     1      -5.287  -0.942  -2.940  0.00  0.00    +0.013 A 
ATOM     19  C   UNL     1      -5.201  -2.322  -2.877  0.00  0.00    +0.015 A 
ATOM     20  C   UNL     1      -4.196  -2.922  -2.148  0.00  0.00    +0.014 A 
ATOM     21  I   UNL     1      -6.812  -0.041  -4.058  0.00  0.00    -0.044 I 
ENDBRANCH  12  15
TORSDOF 1
