REMARK  Name = ZINC08567992
REMARK  7 active torsions:
REMARK  status: ('A' for Active; 'I' for Inactive)
REMARK    1  A    between atoms: C_1  and  C_2
REMARK    2  A    between atoms: C_2  and  C_3
REMARK    3  A    between atoms: C_3  and  C_4
REMARK    4  A    between atoms: C_4  and  N_5
REMARK    5  A    between atoms: C_16  and  C_27
REMARK    6  A    between atoms: C_22  and  N_26
REMARK    7  A    between atoms: C_23  and  C_24
REMARK                            x       y       z     vdW  Elec       q    Type
REMARK                         _______ _______ _______ _____ _____    ______ ____
ROOT
ATOM      1  N   UNL     1      -2.787  -2.571   0.015  0.00  0.00    -0.270 N 
ATOM      2  C   UNL     1      -3.504  -2.839   1.168  0.00  0.00    +0.041 A 
ATOM      3  C   UNL     1      -3.118  -2.705   2.502  0.00  0.00    +0.024 A 
ATOM      4  C   UNL     1      -4.049  -3.053   3.470  0.00  0.00    +0.002 A 
ATOM      5  C   UNL     1      -5.307  -3.514   3.140  0.00  0.00    +0.000 A 
ATOM      6  C   UNL     1      -5.704  -3.653   1.814  0.00  0.00    +0.007 A 
ATOM      7  C   UNL     1      -4.784  -3.308   0.847  0.00  0.00    -0.001 A 
ATOM      8  C   UNL     1      -4.859  -3.327  -0.646  0.00  0.00    +0.145 C 
ATOM      9  C   UNL     1      -3.506  -2.825  -1.099  0.00  0.00    +0.240 C 
ATOM     10  O   UNL     1      -3.136  -2.681  -2.245  0.00  0.00    -0.274 OA
ATOM     11  C   UNL     1      -5.107  -4.716  -1.164  0.00  0.00    +0.061 A 
ATOM     12  C   UNL     1      -4.279  -5.830  -1.148  0.00  0.00    +0.068 A 
ATOM     13  N   UNL     1      -4.922  -6.824  -1.713  0.00  0.00    -0.176 NA
ATOM     14  N   UNL     1      -6.189  -6.366  -2.109  0.00  0.00    -0.246 N 
ATOM     15  H   UNL     1      -6.873  -6.891  -2.551  0.00  0.00    +0.192 HD
ATOM     16  C   UNL     1      -6.285  -5.072  -1.764  0.00  0.00    +0.223 A 
ATOM     17  O   UNL     1      -7.310  -4.201  -1.936  0.00  0.00    -0.423 OA
ATOM     18  C   UNL     1      -7.064  -2.889  -1.743  0.00  0.00    +0.201 C 
ATOM     19  C   UNL     1      -5.943  -2.415  -1.150  0.00  0.00    +0.110 C 
ATOM     20  C   UNL     1      -2.885  -5.887  -0.579  0.00  0.00    +0.068 C 
ENDROOT
BRANCH  18  21
ATOM     21  N   UNL     1      -8.003  -1.984  -2.171  0.00  0.00    -0.328 N 
ATOM     22  H   UNL     1      -8.816  -2.295  -2.600  0.00  0.00    +0.145 HD
ATOM     23  H   UNL     1      -7.853  -1.034  -2.046  0.00  0.00    +0.145 HD
ENDBRANCH  18  21
BRANCH  19  24
ATOM     24  C   UNL     1      -5.785  -1.000  -0.997  0.00  0.00    +0.102 C 
ATOM     25  N   UNL     1      -5.660   0.123  -0.876  0.00  0.00    -0.191 NA
ENDBRANCH  19  24
BRANCH   1  26
ATOM     26  C   UNL     1      -1.413  -2.063   0.004  0.00  0.00    +0.114 C 
BRANCH  26  27
ATOM     27  C   UNL     1      -1.433  -0.534   0.013  0.00  0.00    +0.019 C 
BRANCH  27  29
ATOM     28  C   UNL     1      -0.019   1.526   0.010  0.00  0.00    +0.004 C 
ATOM     29  C   UNL     1       0.002  -0.004   0.002  0.00  0.00    -0.002 C 
ENDBRANCH  27  29
ENDBRANCH  26  27
ENDBRANCH   1  26
TORSDOF 5
