REMARK  Name = ZINC01434309
REMARK  6 active torsions:
REMARK  status: ('A' for Active; 'I' for Inactive)
REMARK    1  A    between atoms: C_1  and  C_2
REMARK    2  A    between atoms: C_2  and  C_3
REMARK    3  A    between atoms: C_6  and  O_20
REMARK    4  A    between atoms: C_7  and  N_9
REMARK    5  A    between atoms: C_10  and  C_11
REMARK    6  A    between atoms: C_16  and  O_17
REMARK                            x       y       z     vdW  Elec       q    Type
REMARK                         _______ _______ _______ _____ _____    ______ ____
ROOT
ATOM      1  N   UNL     1      -4.029  -1.484  -2.348  0.00  0.00    -0.251 NA
ATOM      2  C   UNL     1      -3.391  -2.018  -3.351  0.00  0.00    +0.123 C 
ENDROOT
BRANCH   2   3
ATOM      3  C   UNL     1      -4.093  -2.273  -4.617  0.00  0.00    +0.037 A 
ATOM      4  C   UNL     1      -3.414  -2.851  -5.695  0.00  0.00    +0.033 A 
ATOM      5  C   UNL     1      -4.079  -3.088  -6.879  0.00  0.00    +0.043 A 
ATOM      6  C   UNL     1      -5.419  -2.756  -7.007  0.00  0.00    +0.038 A 
ATOM      7  C   UNL     1      -6.102  -2.184  -5.950  0.00  0.00    +0.057 A 
ATOM      8  C   UNL     1      -5.450  -1.944  -4.750  0.00  0.00    +0.139 A 
ATOM      9  I   UNL     1      -8.126  -1.687  -6.159  0.00  0.00    -0.040 I 
ATOM     10 CL   UNL     1      -3.235  -3.805  -8.216  0.00  0.00    -0.083 Cl
BRANCH   8  11
ATOM     11  O   UNL     1      -6.122  -1.387  -3.710  0.00  0.00    -0.505 OA
ATOM     12  H   UNL     1      -6.093  -0.421  -3.695  0.00  0.00    +0.292 HD
ENDBRANCH   8  11
ENDBRANCH   2   3
BRANCH   1  17
ATOM     13  C   UNL     1      -1.412  -0.526   0.013  0.00  0.00    -0.045 A 
ATOM     14  C   UNL     1      -2.049  -0.765   1.218  0.00  0.00    +0.007 A 
ATOM     15  C   UNL     1      -3.346  -1.244   1.240  0.00  0.00    +0.048 A 
ATOM     16  C   UNL     1      -4.016  -1.488   0.053  0.00  0.00    +0.142 A 
ATOM     17  C   UNL     1      -3.375  -1.246  -1.169  0.00  0.00    +0.105 A 
ATOM     18  C   UNL     1      -2.068  -0.757  -1.179  0.00  0.00    +0.035 A 
BRANCH  13  20
ATOM     19  C   UNL     1      -0.019   1.526   0.010  0.00  0.00    +0.009 C 
ATOM     20  C   UNL     1       0.002  -0.004   0.002  0.00  0.00    +0.032 C 
ENDBRANCH  13  20
BRANCH  16  21
ATOM     21  O   UNL     1      -5.290  -1.959   0.074  0.00  0.00    -0.505 OA
ATOM     22  H   UNL     1      -5.966  -1.267   0.083  0.00  0.00    +0.292 HD
ENDBRANCH  16  21
ENDBRANCH   1  17
TORSDOF 5
