REMARK  Name = ZINC41394299
REMARK  6 active torsions:
REMARK  status: ('A' for Active; 'I' for Inactive)
REMARK    1  A    between atoms: C_1  and  C_2
REMARK    2  A    between atoms: C_2  and  C_3
REMARK    3  A    between atoms: C_2  and  N_4
REMARK    4  A    between atoms: N_14  and  C_15
REMARK    5  A    between atoms: N_18  and  C_20
REMARK    6  A    between atoms: C_20  and  C_21
REMARK                            x       y       z     vdW  Elec       q    Type
REMARK                         _______ _______ _______ _____ _____    ______ ____
ROOT
ATOM      1  N   UNL     1      -1.378  -0.497   0.005  0.00  0.00    -0.278 N 
ATOM      2  C   UNL     1      -2.160  -0.261   1.074  0.00  0.00    +0.264 A 
ATOM      3  O   UNL     1      -1.737   0.382   2.020  0.00  0.00    -0.267 OA
ATOM      4  C   UNL     1      -3.496  -0.773   1.085  0.00  0.00    +0.076 A 
ATOM      5  C   UNL     1      -4.511  -0.641   2.132  0.00  0.00    -0.023 A 
ATOM      6  C   UNL     1      -5.707  -1.220   1.903  0.00  0.00    -0.004 A 
ATOM      7  S   UNL     1      -5.557  -1.967   0.302  0.00  0.00    -0.073 S 
ATOM      8  C   UNL     1      -3.882  -1.498  -0.055  0.00  0.00    +0.117 A 
ATOM      9  N   UNL     1      -3.060  -1.696  -1.078  0.00  0.00    -0.208 NA
ATOM     10  C   UNL     1      -1.836  -1.208  -1.065  0.00  0.00    +0.204 A 
ATOM     11  N   UNL     1      -1.010  -1.424  -2.139  0.00  0.00    -0.282 N 
ATOM     12  C   UNL     1      -6.900  -1.229   2.809  0.00  0.00    +0.043 C 
ATOM     13  C   UNL     1      -6.447  -0.794   4.210  0.00  0.00    +0.005 C 
ATOM     14  C   UNL     1      -5.587   0.466   4.079  0.00  0.00    +0.005 C 
ATOM     15  C   UNL     1      -4.247   0.115   3.432  0.00  0.00    +0.037 C 
ATOM     16  H   UNL     1      -0.081  -1.146  -2.100  0.00  0.00    +0.155 HD
ENDROOT
BRANCH  11  17
ATOM     17  C   UNL     1      -1.509  -2.049  -3.297  0.00  0.00    +0.071 A 
ATOM     18  C   UNL     1      -2.824  -2.496  -3.493  0.00  0.00    +0.157 A 
ATOM     19  N   UNL     1      -2.907  -3.021  -4.689  0.00  0.00    -0.177 NA
ATOM     20  N   UNL     1      -1.649  -2.929  -5.299  0.00  0.00    -0.265 N 
ATOM     21  C   UNL     1      -0.804  -2.322  -4.425  0.00  0.00    +0.132 A 
BRANCH  20  22
ATOM     22  C   UNL     1      -1.307  -3.399  -6.644  0.00  0.00    +0.178 C 
BRANCH  22  23
ATOM     23  C   UNL     1      -1.669  -4.856  -6.774  0.00  0.00    -0.023 A 
ATOM     24  C   UNL     1      -0.745  -5.830  -6.443  0.00  0.00    +0.005 A 
ATOM     25  C   UNL     1      -1.075  -7.167  -6.562  0.00  0.00    +0.003 A 
ATOM     26  C   UNL     1      -2.330  -7.532  -7.011  0.00  0.00    +0.038 A 
ATOM     27  C   UNL     1      -3.256  -6.558  -7.342  0.00  0.00    +0.124 A 
ATOM     28  C   UNL     1      -2.926  -5.219  -7.217  0.00  0.00    +0.043 A 
ATOM     29  F   UNL     1      -4.483  -6.914  -7.782  0.00  0.00    -0.205 F 
ENDBRANCH  22  23
ENDBRANCH  20  22
ENDBRANCH  11  17
BRANCH   1  31
ATOM     30  C   UNL     1      -0.046   1.555   0.027  0.00  0.00    +0.031 C 
ATOM     31  C   UNL     1      -0.009   0.026  -0.013  0.00  0.00    +0.087 C 
ATOM     32  C   UNL     1       0.752  -0.498   1.207  0.00  0.00    +0.031 C 
ENDBRANCH   1  31
TORSDOF 4
