REMARK  Name = ZINC13072460
REMARK  11 active torsions:
REMARK  status: ('A' for Active; 'I' for Inactive)
REMARK    1  A    between atoms: C_1  and  C_2
REMARK    2  A    between atoms: C_2  and  C_4
REMARK    3  A    between atoms: C_2  and  N_11
REMARK    4  A    between atoms: N_11  and  S_12
REMARK    5  A    between atoms: S_12  and  C_15
REMARK    6  A    between atoms: C_17  and  C_25
REMARK    7  A    between atoms: C_19  and  O_23
REMARK    8  A    between atoms: C_20  and  O_21
REMARK    9  A    between atoms: O_21  and  C_22
REMARK   10  A    between atoms: O_23  and  C_24
REMARK   11  A    between atoms: C_26  and  C_27
REMARK                            x       y       z     vdW  Elec       q    Type
REMARK                         _______ _______ _______ _____ _____    ______ ____
ROOT
ATOM      1  C   UNL     1      -0.866  -0.914   2.521  0.00  0.00    +0.151 A 
ATOM      2  C   UNL     1      -0.672  -1.268   3.838  0.00  0.00    +0.040 A 
ATOM      3  C   UNL     1       0.095  -2.395   4.154  0.00  0.00    -0.019 A 
ATOM      4  C   UNL     1       0.664  -3.160   3.128  0.00  0.00    +0.057 A 
ATOM      5  C   UNL     1       0.464  -2.798   1.811  0.00  0.00    +0.164 A 
ATOM      6  C   UNL     1      -0.307  -1.677   1.504  0.00  0.00    +0.188 A 
ENDROOT
BRANCH   1   7
ATOM      7  S   UNL     1      -1.832   0.505   2.126  0.00  0.00    +0.063 S 
ATOM      8  O   UNL     1      -1.068   1.273   1.206  0.00  0.00    -0.153 OA
ATOM      9  O   UNL     1      -2.299   1.035   3.359  0.00  0.00    -0.153 OA
BRANCH   7  10
ATOM     10  N   UNL     1      -3.168  -0.026   1.303  0.00  0.00    -0.183 NA
ATOM     11  H   UNL     1      -3.301   0.232   0.378  0.00  0.00    +0.149 HD
BRANCH  10  13
ATOM     12  C   UNL     1      -5.294  -0.026   2.512  0.00  0.00    +0.031 C 
ATOM     13  C   UNL     1      -4.148  -0.884   1.973  0.00  0.00    +0.103 C 
BRANCH  13  14
ATOM     14  C   UNL     1      -4.691  -1.889   0.990  0.00  0.00    -0.029 A 
ATOM     15  C   UNL     1      -5.088  -1.478  -0.269  0.00  0.00    +0.006 A 
ATOM     16  C   UNL     1      -5.582  -2.400  -1.173  0.00  0.00    +0.015 A 
ATOM     17  C   UNL     1      -5.690  -3.731  -0.814  0.00  0.00    +0.018 A 
ATOM     18  C   UNL     1      -5.299  -4.140   0.448  0.00  0.00    +0.015 A 
ATOM     19  C   UNL     1      -4.799  -3.219   1.349  0.00  0.00    +0.006 A 
ATOM     20 BR   UNL     1      -6.374  -4.991  -2.047  0.00  0.00    -0.050 Br
ENDBRANCH  13  14
ENDBRANCH  10  13
ENDBRANCH   7  10
ENDBRANCH   1   7
BRANCH   6  21
ATOM     21  O   UNL     1      -0.506  -1.326   0.207  0.00  0.00    -0.490 OA
ATOM     22  C   UNL     1       0.516  -0.550  -0.420  0.00  0.00    +0.277 C 
ENDBRANCH   6  21
BRANCH   5  23
ATOM     23  O   UNL     1       1.015  -3.538   0.812  0.00  0.00    -0.491 OA
ATOM     24  C   UNL     1       1.787  -4.677   1.198  0.00  0.00    +0.277 C 
ENDBRANCH   5  23
BRANCH   3  25
ATOM     25  C   UNL     1       0.303  -2.775   5.558  0.00  0.00    +0.015 C 
ATOM     26  C   UNL     1       1.044  -3.864   5.861  0.00  0.00    +0.096 C 
BRANCH  26  27
ATOM     27  C   UNL     1       1.245  -4.231   7.215  0.00  0.00    +0.380 C 
ATOM     28  O   UNL     1       0.750  -3.565   8.105  0.00  0.00    -0.241 OA
ATOM     29  O   UNL     1       1.985  -5.318   7.517  0.00  0.00    -0.241 OA
ENDBRANCH  26  27
ENDBRANCH   3  25
TORSDOF 8
