REMARK  Name = ZINC07619353
REMARK  5 active torsions:
REMARK  status: ('A' for Active; 'I' for Inactive)
REMARK    1  A    between atoms: C_1  and  C_2
REMARK    2  A    between atoms: N_12  and  C_13
REMARK    3  A    between atoms: C_13  and  C_14
REMARK    4  A    between atoms: N_16  and  C_17
REMARK    5  A    between atoms: C_18  and  C_25
REMARK                            x       y       z     vdW  Elec       q    Type
REMARK                         _______ _______ _______ _____ _____    ______ ____
ROOT
ATOM      1  C   UNL     1      -3.342   0.240   3.543  0.00  0.00    +0.235 C 
ATOM      2  O   UNL     1      -4.350  -0.404   3.345  0.00  0.00    -0.274 OA
ATOM      3  N   UNL     1      -2.616   0.693   2.502  0.00  0.00    -0.278 N 
ATOM      4  H   UNL     1      -1.809   1.208   2.660  0.00  0.00    +0.155 HD
ENDROOT
BRANCH   3   5
ATOM      5  C   UNL     1      -3.022   0.423   1.204  0.00  0.00    +0.084 A 
ATOM      6  C   UNL     1      -2.416   0.798   0.017  0.00  0.00    +0.068 A 
ATOM      7  C   UNL     1      -3.051   0.375  -1.231  0.00  0.00    -0.023 A 
ATOM      8  C   UNL     1      -4.181  -0.340  -1.083  0.00  0.00    -0.004 A 
ATOM      9  S   UNL     1      -4.412  -0.462   0.673  0.00  0.00    -0.077 S 
ATOM     10  C   UNL     1      -4.776  -0.735  -2.408  0.00  0.00    +0.043 C 
ATOM     11  C   UNL     1      -4.096   0.198  -3.434  0.00  0.00    +0.010 C 
ATOM     12  C   UNL     1      -2.767   0.528  -2.726  0.00  0.00    +0.037 C 
BRANCH   6  13
ATOM     13  C   UNL     1      -1.180   1.586   0.011  0.00  0.00    +0.244 C 
ATOM     14  O   UNL     1      -1.233   2.802  -0.005  0.00  0.00    -0.270 OA
ATOM     15  N   UNL     1       0.016   0.964   0.023  0.00  0.00    -0.325 N 
ATOM     16  H   UNL     1       0.058  -0.005   0.035  0.00  0.00    +0.145 HD
ATOM     17  H   UNL     1       0.834   1.485   0.015  0.00  0.00    +0.145 HD
ENDBRANCH   6  13
ENDBRANCH   3   5
BRANCH   1  18
ATOM     18  C   UNL     1      -2.900   0.533   4.954  0.00  0.00    +0.201 C 
BRANCH  18  29
ATOM     19  C   UNL     1      -2.606  -1.949   6.396  0.00  0.00    +0.028 C 
ATOM     20  C   UNL     1      -3.958  -1.410   5.927  0.00  0.00    +0.071 C 
ATOM     21  C   UNL     1      -5.055  -1.851   6.904  0.00  0.00    +0.027 C 
ATOM     22  C   UNL     1      -6.408  -1.467   6.299  0.00  0.00    +0.039 C 
ATOM     23  C   UNL     1      -6.357  -0.043   5.806  0.00  0.00    -0.026 A 
ATOM     24  C   UNL     1      -7.556   0.594   5.524  0.00  0.00    +0.005 A 
ATOM     25  C   UNL     1      -7.566   1.893   5.057  0.00  0.00    +0.000 A 
ATOM     26  C   UNL     1      -6.372   2.567   4.868  0.00  0.00    +0.002 A 
ATOM     27  C   UNL     1      -5.177   1.941   5.149  0.00  0.00    +0.023 A 
ATOM     28  C   UNL     1      -5.161   0.628   5.624  0.00  0.00    +0.034 A 
ATOM     29  N   UNL     1      -3.920   0.054   5.896  0.00  0.00    -0.318 N 
ENDBRANCH  18  29
ENDBRANCH   1  18
TORSDOF 4
