REMARK  Name = ZINC40570604
REMARK  5 active torsions:
REMARK  status: ('A' for Active; 'I' for Inactive)
REMARK    1  A    between atoms: C_4  and  C_7
REMARK    2  A    between atoms: C_9  and  C_25
REMARK    3  A    between atoms: C_10  and  N_12
REMARK    4  A    between atoms: N_12  and  N_13
REMARK    5  A    between atoms: C_14  and  C_15
REMARK                            x       y       z     vdW  Elec       q    Type
REMARK                         _______ _______ _______ _____ _____    ______ ____
ROOT
ATOM      1  N   UNL     1       5.728  -3.555  -0.081  0.00  0.00    -0.205 N 
ATOM      2  H   UNL     1       6.694  -3.647  -0.089  0.00  0.00    +0.177 HD
ENDROOT
BRANCH   1   6
ATOM      3  C   UNL     1       3.695  -0.684  -0.037  0.00  0.00    +0.231 A 
ATOM      4  N   UNL     1       4.873  -0.117  -0.040  0.00  0.00    -0.196 NA
ATOM      5  C   UNL     1       5.823  -1.088  -0.057  0.00  0.00    +0.203 A 
ATOM      6  C   UNL     1       5.156  -2.305  -0.065  0.00  0.00    +0.244 A 
ATOM      7  O   UNL     1       3.839  -2.023  -0.046  0.00  0.00    -0.419 OA
BRANCH   3  11
ATOM      8  C   UNL     1      -0.017   1.379   0.010  0.00  0.00    +0.000 A 
ATOM      9  C   UNL     1       1.168   2.094   0.002  0.00  0.00    +0.001 A 
ATOM     10  C   UNL     1       2.377   1.430  -0.013  0.00  0.00    +0.013 A 
ATOM     11  C   UNL     1       2.404   0.034  -0.021  0.00  0.00    +0.037 A 
ATOM     12  C   UNL     1       1.204  -0.681  -0.013  0.00  0.00    +0.013 A 
ATOM     13  C   UNL     1       0.002  -0.004   0.002  0.00  0.00    +0.001 A 
ENDBRANCH   3  11
BRANCH   5  14
ATOM     14  C   UNL     1       7.242  -0.893  -0.066  0.00  0.00    +0.124 C 
ATOM     15  N   UNL     1       8.367  -0.738  -0.073  0.00  0.00    -0.189 NA
ENDBRANCH   5  14
ENDBRANCH   1   6
BRANCH   1  16
ATOM     16  N   UNL     1       4.916  -4.697  -0.087  0.00  0.00    -0.187 NA
ATOM     17  C   UNL     1       5.457  -5.879  -0.103  0.00  0.00    +0.140 C 
BRANCH  17  18
ATOM     18  C   UNL     1       4.604  -7.078  -0.108  0.00  0.00    +0.020 A 
ATOM     19  C   UNL     1       5.022  -8.373  -0.118  0.00  0.00    +0.093 A 
ATOM     20  N   UNL     1       3.941  -9.205  -0.120  0.00  0.00    -0.360 N 
ATOM     21  H   UNL     1       3.986 -10.174  -0.126  0.00  0.00    +0.165 HD
ATOM     22  C   UNL     1       2.774  -8.471  -0.111  0.00  0.00    +0.047 A 
ATOM     23  C   UNL     1       3.131  -7.112  -0.098  0.00  0.00    +0.008 A 
ATOM     24  C   UNL     1       2.142  -6.131  -0.081  0.00  0.00    +0.010 A 
ATOM     25  C   UNL     1       0.815  -6.500  -0.075  0.00  0.00    +0.001 A 
ATOM     26  C   UNL     1       0.461  -7.841  -0.084  0.00  0.00    +0.002 A 
ATOM     27  C   UNL     1       1.428  -8.822  -0.109  0.00  0.00    +0.026 A 
ENDBRANCH  17  18
ENDBRANCH   1  16
TORSDOF 5
