REMARK  Name = ZINC63384924
REMARK  9 active torsions:
REMARK  status: ('A' for Active; 'I' for Inactive)
REMARK    1  A    between atoms: C_1  and  C_2
REMARK    2  A    between atoms: C_6  and  O_8
REMARK    3  A    between atoms: O_8  and  C_9
REMARK    4  A    between atoms: C_9  and  C_10
REMARK    5  A    between atoms: N_12  and  C_13
REMARK    6  A    between atoms: C_13  and  C_14
REMARK    7  A    between atoms: C_14  and  C_15
REMARK    8  A    between atoms: C_18  and  O_24
REMARK    9  A    between atoms: O_24  and  C_25
REMARK                            x       y       z     vdW  Elec       q    Type
REMARK                         _______ _______ _______ _____ _____    ______ ____
ROOT
ATOM      1  C   UNL     1       0.045  -1.976   3.585  0.00  0.00    +0.324 C 
ENDROOT
BRANCH   1   2
ATOM      2  C   UNL     1       0.063  -2.892   4.781  0.00  0.00    +0.251 C 
ATOM      3  O   UNL     1       0.078  -4.094   4.624  0.00  0.00    -0.272 OA
ATOM      4  N   UNL     1       0.062  -2.375   6.026  0.00  0.00    -0.312 N 
ATOM      5  H   UNL     1       0.050  -1.413   6.152  0.00  0.00    +0.149 HD
BRANCH   4   6
ATOM      6  C   UNL     1       0.079  -3.266   7.189  0.00  0.00    +0.108 C 
BRANCH   6   7
ATOM      7  C   UNL     1       0.074  -2.431   8.471  0.00  0.00    +0.052 C 
BRANCH   7   8
ATOM      8  C   UNL     1       0.092  -3.347   9.667  0.00  0.00    -0.040 C 
ATOM      9  C   UNL     1       1.177  -3.748  10.368  0.00  0.00    +0.002 A 
ATOM     10  C   UNL     1       2.610  -3.464  10.233  0.00  0.00    +0.055 A 
ATOM     11  C   UNL     1       3.485  -4.022  11.103  0.00  0.00    +0.121 A 
ATOM     12  C   UNL     1       3.071  -4.873  12.143  0.00  0.00    +0.047 A 
ATOM     13  C   UNL     1       1.776  -5.194  12.347  0.00  0.00    +0.029 A 
ATOM     14  C   UNL     1       0.742  -4.645  11.464  0.00  0.00    +0.043 A 
ATOM     15  N   UNL     1      -0.559  -4.792  11.441  0.00  0.00    -0.380 N 
ATOM     16  C   UNL     1      -1.100  -3.999  10.331  0.00  0.00    +0.144 C 
ATOM     17  H   UNL     1      -1.079  -5.331  12.057  0.00  0.00    +0.160 HD
BRANCH  11  18
ATOM     18  O   UNL     1       4.810  -3.751  10.966  0.00  0.00    -0.495 OA
ATOM     19  C   UNL     1       5.698  -4.361  11.905  0.00  0.00    +0.277 C 
ENDBRANCH  11  18
ENDBRANCH   7   8
ENDBRANCH   6   7
ENDBRANCH   4   6
ENDBRANCH   1   2
BRANCH   1  20
ATOM     20  O   UNL     1       0.049  -2.756   2.387  0.00  0.00    -0.482 OA
BRANCH  20  26
ATOM     21  C   UNL     1      -0.018   1.503   0.010  0.00  0.00    +0.044 C 
ATOM     22  C   UNL     1       0.002  -0.004   0.002  0.00  0.00    -0.043 A 
ATOM     23  C   UNL     1       0.005  -0.680  -1.202  0.00  0.00    +0.050 A 
ATOM     24  C   UNL     1       0.024  -2.067  -1.220  0.00  0.00    +0.143 A 
ATOM     25  C   UNL     1       0.038  -2.776  -0.007  0.00  0.00    +0.063 A 
ATOM     26  C   UNL     1       0.035  -2.079   1.211  0.00  0.00    +0.132 A 
ATOM     27  C   UNL     1       0.023  -0.695   1.202  0.00  0.00    +0.050 A 
ATOM     28  C   UNL     1       0.055  -4.243  -0.032  0.00  0.00    -0.023 A 
ATOM     29  C   UNL     1       0.055  -4.863  -1.233  0.00  0.00    +0.041 A 
ATOM     30  C   UNL     1       0.050  -4.084  -2.417  0.00  0.00    +0.341 A 
ATOM     31  O   UNL     1       0.065  -4.650  -3.495  0.00  0.00    -0.245 OA
ATOM     32  O   UNL     1       0.030  -2.744  -2.388  0.00  0.00    -0.422 OA
ATOM     33  C   UNL     1       0.052  -6.362  -1.373  0.00  0.00    +0.042 C 
ATOM     34  C   UNL     1       0.493  -7.027  -0.071  0.00  0.00    +0.005 C 
ATOM     35  C   UNL     1      -0.339  -6.441   1.076  0.00  0.00    +0.005 C 
ATOM     36  C   UNL     1       0.077  -4.985   1.276  0.00  0.00    +0.036 C 
ENDBRANCH  20  26
ENDBRANCH   1  20
TORSDOF 7
