REMARK  Name = ZINC58467228
REMARK  8 active torsions:
REMARK  status: ('A' for Active; 'I' for Inactive)
REMARK    1  A    between atoms: C_1  and  O_2
REMARK    2  A    between atoms: O_2  and  C_3
REMARK    3  A    between atoms: C_6  and  C_11
REMARK    4  A    between atoms: C_7  and  O_9
REMARK    5  A    between atoms: O_9  and  C_10
REMARK    6  A    between atoms: N_19  and  C_20
REMARK    7  A    between atoms: C_20  and  C_22
REMARK    8  A    between atoms: C_20  and  C_28
REMARK                            x       y       z     vdW  Elec       q    Type
REMARK                         _______ _______ _______ _____ _____    ______ ____
ROOT
ATOM      1  C   UNL     1       2.507  -2.495  -4.390  0.00  0.00    +0.111 C 
ATOM      2  C   UNL     1       1.456  -2.839  -5.466  0.00  0.00    +0.029 C 
ATOM      3  C   UNL     1       2.205  -2.537  -6.792  0.00  0.00    +0.021 C 
ATOM      4  C   UNL     1       3.060  -1.309  -6.393  0.00  0.00    +0.110 C 
ATOM      5  N   UNL     1       3.476  -1.573  -5.000  0.00  0.00    -0.278 N 
ATOM      6  C   UNL     1       4.561  -1.056  -4.389  0.00  0.00    +0.303 C 
ATOM      7  O   UNL     1       4.803  -1.345  -3.233  0.00  0.00    -0.253 OA
ATOM      8  N   UNL     1       5.376  -0.218  -5.059  0.00  0.00    -0.292 N 
ATOM      9  H   UNL     1       5.183   0.013  -5.982  0.00  0.00    +0.151 HD
ENDROOT
BRANCH   1  13
ATOM     10  C   UNL     1       0.606  -0.607  -1.056  0.00  0.00    +0.124 A 
ATOM     11  C   UNL     1       1.173   0.162  -2.062  0.00  0.00    +0.046 A 
ATOM     12  C   UNL     1       1.787  -0.451  -3.138  0.00  0.00    +0.012 A 
ATOM     13  C   UNL     1       1.837  -1.830  -3.215  0.00  0.00    +0.015 A 
ATOM     14  C   UNL     1       1.272  -2.603  -2.211  0.00  0.00    +0.128 A 
ATOM     15  C   UNL     1       0.660  -1.990  -1.127  0.00  0.00    +0.091 A 
BRANCH  10  17
ATOM     16  C   UNL     1      -0.017   1.425   0.010  0.00  0.00    +0.277 C 
ATOM     17  O   UNL     1       0.002  -0.004   0.002  0.00  0.00    -0.495 OA
ENDBRANCH  10  17
BRANCH  14  18
ATOM     18  O   UNL     1       1.322  -3.959  -2.286  0.00  0.00    -0.495 OA
ATOM     19  C   UNL     1       0.719  -4.691  -1.217  0.00  0.00    +0.277 C 
ENDBRANCH  14  18
ENDBRANCH   1  13
BRANCH   8  20
ATOM     20  C   UNL     1       6.555   0.344  -4.396  0.00  0.00    +0.108 C 
BRANCH  20  21
ATOM     21  C   UNL     1       7.589   0.708  -5.430  0.00  0.00    -0.027 A 
ATOM     22  C   UNL     1       7.199   1.290  -6.622  0.00  0.00    +0.005 A 
ATOM     23  C   UNL     1       8.146   1.624  -7.571  0.00  0.00    +0.000 A 
ATOM     24  C   UNL     1       9.485   1.376  -7.328  0.00  0.00    +0.000 A 
ATOM     25  C   UNL     1       9.875   0.795  -6.136  0.00  0.00    +0.000 A 
ATOM     26  C   UNL     1       8.927   0.465  -5.185  0.00  0.00    +0.005 A 
ENDBRANCH  20  21
BRANCH  20  27
ATOM     27  C   UNL     1       6.152   1.596  -3.615  0.00  0.00    +0.014 C 
ATOM     28  C   UNL     1       6.571   1.678  -2.145  0.00  0.00    +0.006 C 
ATOM     29  C   UNL     1       5.105   1.434  -2.511  0.00  0.00    +0.006 C 
ENDBRANCH  20  27
ENDBRANCH   8  20
TORSDOF 6
