REMARK  Name = ZINC36504527
REMARK  10 active torsions:
REMARK  status: ('A' for Active; 'I' for Inactive)
REMARK    1  A    between atoms: C_1  and  C_2
REMARK    2  A    between atoms: C_2  and  C_3
REMARK    3  A    between atoms: C_3  and  C_4
REMARK    4  A    between atoms: C_4  and  N_5
REMARK    5  A    between atoms: C_6  and  C_8
REMARK    6  A    between atoms: C_8  and  C_10
REMARK    7  A    between atoms: C_8  and  N_24
REMARK    8  A    between atoms: N_24  and  C_25
REMARK    9  A    between atoms: C_25  and  C_26
REMARK   10  A    between atoms: C_31  and  C_33
REMARK                            x       y       z     vdW  Elec       q    Type
REMARK                         _______ _______ _______ _____ _____    ______ ____
ROOT
ATOM      1  C   UNL     1      -4.261  -4.676  -0.258  0.00  0.00    +0.193 C 
ENDROOT
BRANCH   1   2
ATOM      2  C   UNL     1      -4.358  -5.225  -1.658  0.00  0.00    -0.010 A 
ATOM      3  C   UNL     1      -4.136  -6.538  -1.869  0.00  0.00    +0.015 A 
ATOM      4  C   UNL     1      -4.216  -7.101  -3.164  0.00  0.00    -0.017 A 
ATOM      5  C   UNL     1      -3.985  -8.468  -3.373  0.00  0.00    +0.008 A 
ATOM      6  C   UNL     1      -4.068  -8.984  -4.633  0.00  0.00    +0.001 A 
ATOM      7  C   UNL     1      -4.380  -8.172  -5.718  0.00  0.00    +0.001 A 
ATOM      8  C   UNL     1      -4.610  -6.837  -5.547  0.00  0.00    +0.009 A 
ATOM      9  C   UNL     1      -4.533  -6.279  -4.270  0.00  0.00    -0.010 A 
ATOM     10  C   UNL     1      -4.773  -4.852  -4.040  0.00  0.00    -0.010 A 
ATOM     11  C   UNL     1      -4.684  -4.352  -2.722  0.00  0.00    -0.012 A 
ATOM     12  C   UNL     1      -4.918  -2.989  -2.491  0.00  0.00    +0.009 A 
ATOM     13  C   UNL     1      -5.231  -2.169  -3.536  0.00  0.00    +0.001 A 
ATOM     14  C   UNL     1      -5.323  -2.666  -4.831  0.00  0.00    +0.001 A 
ATOM     15  C   UNL     1      -5.089  -3.987  -5.090  0.00  0.00    +0.009 A 
ENDBRANCH   1   2
BRANCH   1  17
ATOM     16  N   UNL     1      -2.916  -2.643   0.161  0.00  0.00    -0.313 N 
ATOM     17  C   UNL     1      -2.942  -3.967  -0.086  0.00  0.00    +0.238 C 
ATOM     18  O   UNL     1      -1.904  -4.588  -0.172  0.00  0.00    -0.273 OA
ATOM     19  H   UNL     1      -3.741  -2.132   0.156  0.00  0.00    +0.149 HD
BRANCH  16  20
ATOM     20  C   UNL     1      -1.643  -1.974   0.439  0.00  0.00    +0.104 C 
BRANCH  20  21
ATOM     21  C   UNL     1      -1.892  -0.484   0.684  0.00  0.00    +0.018 C 
BRANCH  21  23
ATOM     22  C   UNL     1      -0.811   1.704   1.218  0.00  0.00    +0.004 C 
ATOM     23  C   UNL     1      -0.562   0.214   0.973  0.00  0.00    -0.002 C 
ENDBRANCH  21  23
ENDBRANCH  20  21
ENDBRANCH  16  20
ENDBRANCH   1  17
BRANCH   1  24
ATOM     24  N   UNL     1      -4.352  -5.777   0.705  0.00  0.00    -0.277 N 
ATOM     25  C   UNL     1      -5.552  -6.143   1.198  0.00  0.00    +0.237 C 
ATOM     26  O   UNL     1      -5.619  -6.988   2.065  0.00  0.00    -0.274 OA
BRANCH  25  27
ATOM     27  C   UNL     1      -6.810  -5.501   0.672  0.00  0.00    +0.159 C 
ATOM     28  C   UNL     1      -7.089  -4.179   1.421  0.00  0.00    +0.041 C 
ATOM     29  C   UNL     1      -8.037  -4.649   2.549  0.00  0.00    +0.098 C 
ATOM     30  C   UNL     1      -8.673  -5.906   1.998  0.00  0.00    +0.214 C 
ATOM     31  O   UNL     1      -9.673  -6.430   2.442  0.00  0.00    -0.276 OA
ATOM     32  N   UNL     1      -7.969  -6.359   0.944  0.00  0.00    -0.304 N 
ATOM     33  H   UNL     1      -8.197  -7.150   0.430  0.00  0.00    +0.149 HD
ENDBRANCH  25  27
BRANCH  24  34
ATOM     34  C   UNL     1      -3.139  -6.479   1.132  0.00  0.00    +0.183 C 
BRANCH  34  35
ATOM     35  C   UNL     1      -2.674  -5.922   2.452  0.00  0.00    +0.122 A 
ATOM     36  C   UNL     1      -3.038  -6.369   3.667  0.00  0.00    +0.046 A 
ATOM     37  C   UNL     1      -2.369  -5.563   4.617  0.00  0.00    +0.041 A 
ATOM     38  C   UNL     1      -1.637  -4.672   3.926  0.00  0.00    +0.195 A 
ATOM     39  O   UNL     1      -1.821  -4.897   2.615  0.00  0.00    -0.466 OA
ENDBRANCH  34  35
ENDBRANCH  24  34
ENDBRANCH   1  24
TORSDOF 9
