REMARK  Name = ZINC59489292
REMARK  8 active torsions:
REMARK  status: ('A' for Active; 'I' for Inactive)
REMARK    1  A    between atoms: C_4  and  N_7
REMARK    2  A    between atoms: C_8  and  S_21
REMARK    3  A    between atoms: N_9  and  C_10
REMARK    4  A    between atoms: C_10  and  C_11
REMARK    5  A    between atoms: C_14  and  S_17
REMARK    6  A    between atoms: S_17  and  N_20
REMARK    7  A    between atoms: S_21  and  C_22
REMARK    8  A    between atoms: N_27  and  C_30
REMARK                            x       y       z     vdW  Elec       q    Type
REMARK                         _______ _______ _______ _____ _____    ______ ____
ROOT
ATOM      1  N   UNL     1       3.527  -0.850  -0.048  0.00  0.00    -0.226 NA
ATOM      2  C   UNL     1       3.854  -1.659   0.934  0.00  0.00    +0.155 C 
ATOM      3  N   UNL     1       2.898  -2.075   1.828  0.00  0.00    -0.320 N 
ATOM      4  H   UNL     1       2.000  -1.712   1.782  0.00  0.00    +0.148 HD
ENDROOT
BRANCH   1   8
ATOM      5  C   UNL     1      -0.441   0.143  -0.679  0.00  0.00    +0.000 A 
ATOM      6  C   UNL     1       0.498   1.142  -0.496  0.00  0.00    +0.002 A 
ATOM      7  C   UNL     1       1.822   0.818  -0.285  0.00  0.00    +0.028 A 
ATOM      8  C   UNL     1       2.214  -0.522  -0.257  0.00  0.00    +0.066 A 
ATOM      9  C   UNL     1       1.261  -1.525  -0.442  0.00  0.00    +0.028 A 
ATOM     10  C   UNL     1      -0.060  -1.187  -0.652  0.00  0.00    +0.002 A 
ENDBRANCH   1   8
BRANCH   3  11
ATOM     11  C   UNL     1       3.235  -3.067   2.852  0.00  0.00    +0.138 C 
BRANCH  11  12
ATOM     12  C   UNL     1       2.051  -3.272   3.762  0.00  0.00    -0.030 A 
ATOM     13  C   UNL     1       1.905  -2.488   4.892  0.00  0.00    +0.007 A 
ATOM     14  C   UNL     1       0.819  -2.676   5.726  0.00  0.00    +0.029 A 
ATOM     15  C   UNL     1      -0.120  -3.646   5.431  0.00  0.00    +0.105 A 
ATOM     16  C   UNL     1       0.026  -4.429   4.301  0.00  0.00    +0.029 A 
ATOM     17  C   UNL     1       1.109  -4.239   3.464  0.00  0.00    +0.007 A 
BRANCH  15  18
ATOM     18  S   UNL     1      -1.504  -3.886   6.496  0.00  0.00    +0.056 S 
ATOM     19  O   UNL     1      -1.947  -5.221   6.292  0.00  0.00    -0.153 OA
ATOM     20  O   UNL     1      -1.122  -3.397   7.775  0.00  0.00    -0.153 OA
BRANCH  18  21
ATOM     21  N   UNL     1      -2.716  -2.897   5.954  0.00  0.00    -0.204 NA
ATOM     22  H   UNL     1      -2.571  -2.332   5.179  0.00  0.00    +0.144 HD
ATOM     23  H   UNL     1      -3.571  -2.882   6.412  0.00  0.00    +0.144 HD
ENDBRANCH  18  21
ENDBRANCH  15  18
ENDBRANCH  11  12
ENDBRANCH   3  11
BRANCH   2  24
ATOM     24  S   UNL     1       5.519  -2.210   1.105  0.00  0.00    -0.077 S 
BRANCH  24  25
ATOM     25  C   UNL     1       6.388  -1.413  -0.274  0.00  0.00    +0.149 C 
ATOM     26  C   UNL     1       7.895  -1.741  -0.227  0.00  0.00    +0.120 C 
ATOM     27  C   UNL     1       8.138  -2.476  -1.527  0.00  0.00    +0.228 C 
ATOM     28  O   UNL     1       9.206  -2.917  -1.895  0.00  0.00    -0.275 OA
ATOM     29  N   UNL     1       6.988  -2.562  -2.207  0.00  0.00    -0.209 N 
ATOM     30  C   UNL     1       5.936  -1.995  -1.595  0.00  0.00    +0.240 C 
ATOM     31  O   UNL     1       4.805  -1.956  -2.030  0.00  0.00    -0.274 OA
BRANCH  29  32
ATOM     32  C   UNL     1       6.890  -3.191  -3.457  0.00  0.00    +0.044 A 
ATOM     33  C   UNL     1       6.608  -2.442  -4.591  0.00  0.00    +0.027 A 
ATOM     34  C   UNL     1       6.512  -3.064  -5.821  0.00  0.00    +0.040 A 
ATOM     35  C   UNL     1       6.696  -4.432  -5.923  0.00  0.00    +0.124 A 
ATOM     36  C   UNL     1       6.977  -5.181  -4.792  0.00  0.00    +0.040 A 
ATOM     37  C   UNL     1       7.079  -4.562  -3.561  0.00  0.00    +0.027 A 
ATOM     38  F   UNL     1       6.601  -5.038  -7.126  0.00  0.00    -0.205 F 
ENDBRANCH  29  32
ENDBRANCH  24  25
ENDBRANCH   2  24
TORSDOF 8
