REMARK  Name = ZINC63829853
REMARK  8 active torsions:
REMARK  status: ('A' for Active; 'I' for Inactive)
REMARK    1  A    between atoms: C_1  and  C_2
REMARK    2  A    between atoms: C_4  and  C_9
REMARK    3  A    between atoms: C_5  and  C_8
REMARK    4  A    between atoms: C_9  and  C_10
REMARK    5  A    between atoms: N_12  and  C_13
REMARK    6  A    between atoms: C_13  and  C_14
REMARK    7  A    between atoms: C_14  and  C_16
REMARK    8  A    between atoms: C_14  and  C_23
REMARK                            x       y       z     vdW  Elec       q    Type
REMARK                         _______ _______ _______ _____ _____    ______ ____
ROOT
ATOM      1  C   UNL     1      -2.545  -2.013  -6.211  0.00  0.00    +0.066 C 
ENDROOT
BRANCH   1   2
ATOM      2  C   UNL     1      -3.651  -2.959  -6.602  0.00  0.00    -0.033 C 
ATOM      3  C   UNL     1      -4.889  -2.627  -7.037  0.00  0.00    -0.000 A 
ATOM      4  C   UNL     1      -5.550  -1.337  -7.264  0.00  0.00    +0.010 A 
ATOM      5  C   UNL     1      -6.826  -1.324  -7.713  0.00  0.00    +0.001 A 
ATOM      6  C   UNL     1      -7.531  -2.509  -7.964  0.00  0.00    +0.002 A 
ATOM      7  C   UNL     1      -6.991  -3.732  -7.778  0.00  0.00    +0.026 A 
ATOM      8  C   UNL     1      -5.655  -3.864  -7.310  0.00  0.00    +0.043 A 
ATOM      9  N   UNL     1      -4.920  -4.919  -7.054  0.00  0.00    -0.380 N 
ATOM     10  C   UNL     1      -3.600  -4.470  -6.595  0.00  0.00    +0.145 C 
ATOM     11  H   UNL     1      -5.200  -5.842  -7.156  0.00  0.00    +0.160 HD
ENDBRANCH   1   2
BRANCH   1  12
ATOM     12  C   UNL     1      -1.350  -2.243  -7.099  0.00  0.00    -0.020 A 
ATOM     13  C   UNL     1      -0.740  -3.483  -7.130  0.00  0.00    +0.006 A 
ATOM     14  C   UNL     1       0.356  -3.694  -7.945  0.00  0.00    +0.000 A 
ATOM     15  C   UNL     1       0.844  -2.665  -8.729  0.00  0.00    +0.001 A 
ATOM     16  C   UNL     1       0.235  -1.425  -8.699  0.00  0.00    +0.020 A 
ATOM     17  C   UNL     1      -0.866  -1.215  -7.888  0.00  0.00    +0.045 A 
ATOM     18 CL   UNL     1      -1.635   0.341  -7.854  0.00  0.00    -0.083 Cl
ENDBRANCH   1  12
BRANCH   1  19
ATOM     19  C   UNL     1      -2.153  -2.263  -4.753  0.00  0.00    +0.116 C 
BRANCH  19  22
ATOM     20  C   UNL     1      -0.669  -1.291  -3.082  0.00  0.00    +0.217 C 
ATOM     21  O   UNL     1      -1.044  -2.137  -2.299  0.00  0.00    -0.275 OA
ATOM     22  N   UNL     1      -1.163  -1.266  -4.336  0.00  0.00    -0.314 N 
ATOM     23  H   UNL     1      -0.863  -0.589  -4.963  0.00  0.00    +0.149 HD
BRANCH  20  24
ATOM     24  C   UNL     1       0.349  -0.266  -2.654  0.00  0.00    +0.131 C 
BRANCH  24  27
ATOM     25  C   UNL     1      -0.019   1.526   0.010  0.00  0.00    +0.045 C 
ATOM     26  C   UNL     1       0.002  -0.004   0.002  0.00  0.00    +0.174 C 
ATOM     27  C   UNL     1       0.735  -0.512  -1.218  0.00  0.00    -0.010 C 
ATOM     28  C   UNL     1       1.772  -1.208  -0.801  0.00  0.00    +0.038 C 
ATOM     29  N   UNL     1       1.832  -1.235   0.581  0.00  0.00    -0.270 N 
ATOM     30  O   UNL     1       0.748  -0.498   1.124  0.00  0.00    -0.267 OA
ATOM     31  C   UNL     1       2.763  -1.888  -1.710  0.00  0.00    +0.065 C 
ATOM     32  H   UNL     1       2.513  -1.690   1.100  0.00  0.00    +0.194 HD
ENDBRANCH  24  27
ENDBRANCH  20  24
ENDBRANCH  19  22
ENDBRANCH   1  19
TORSDOF 6
