REMARK  Name = ZINC39479585
REMARK  7 active torsions:
REMARK  status: ('A' for Active; 'I' for Inactive)
REMARK    1  A    between atoms: C_1  and  N_2
REMARK    2  A    between atoms: C_6  and  S_11
REMARK    3  A    between atoms: C_8  and  S_9
REMARK    4  A    between atoms: S_9  and  C_10
REMARK    5  A    between atoms: S_11  and  C_12
REMARK    6  A    between atoms: C_14  and  C_23
REMARK    7  A    between atoms: C_28  and  O_29
REMARK                            x       y       z     vdW  Elec       q    Type
REMARK                         _______ _______ _______ _____ _____    ______ ____
ROOT
ATOM      1  C   UNL     1       0.283   1.490   0.081  0.00  0.00    +0.137 C 
ATOM      2  N   UNL     1       0.330   0.025   0.064  0.00  0.00    -0.285 N 
ATOM      3  C   UNL     1      -0.907  -0.582  -0.004  0.00  0.00    +0.052 A 
ATOM      4  C   UNL     1      -1.935   0.144   0.558  0.00  0.00    -0.018 A 
ATOM      5  C   UNL     1      -3.230   0.055   0.186  0.00  0.00    +0.020 A 
ATOM      6  C   UNL     1      -3.571  -1.066  -0.590  0.00  0.00    +0.009 A 
ATOM      7  C   UNL     1      -2.589  -1.991  -0.929  0.00  0.00    +0.031 A 
ATOM      8  C   UNL     1      -1.245  -1.764  -0.645  0.00  0.00    +0.030 A 
ATOM      9  C   UNL     1      -1.549   0.614   1.990  0.00  0.00    +0.093 C 
ATOM     10  C   UNL     1      -0.164   0.006   2.141  0.00  0.00    +0.057 C 
ATOM     11  N   UNL     1       0.986   0.599   2.049  0.00  0.00    -0.245 NA
ATOM     12  C   UNL     1       1.998  -0.109   1.481  0.00  0.00    +0.141 A 
ATOM     13  C   UNL     1       1.587  -0.497   0.112  0.00  0.00    +0.156 A 
ATOM     14  N   UNL     1       2.400  -1.156  -0.624  0.00  0.00    -0.218 NA
ATOM     15  C   UNL     1       3.599  -1.502  -0.165  0.00  0.00    +0.225 A 
ATOM     16  N   UNL     1       4.008  -1.189   1.049  0.00  0.00    -0.222 NA
ATOM     17  C   UNL     1       3.231  -0.496   1.901  0.00  0.00    +0.160 A 
ATOM     18 CL   UNL     1       3.789  -0.097   3.496  0.00  0.00    -0.060 Cl
ENDROOT
BRANCH  10  19
ATOM     19  C   UNL     1      -0.123  -1.436   2.426  0.00  0.00    +0.038 A 
ATOM     20  C   UNL     1       0.380  -2.328   1.474  0.00  0.00    +0.013 A 
ATOM     21  C   UNL     1       0.416  -3.678   1.748  0.00  0.00    +0.001 A 
ATOM     22  C   UNL     1      -0.044  -4.156   2.965  0.00  0.00    +0.004 A 
ATOM     23  C   UNL     1      -0.542  -3.286   3.915  0.00  0.00    +0.046 A 
ATOM     24  C   UNL     1      -0.582  -1.925   3.659  0.00  0.00    +0.126 A 
BRANCH  24  25
ATOM     25  O   UNL     1      -1.066  -1.069   4.594  0.00  0.00    -0.506 OA
ATOM     26  H   UNL     1      -2.029  -0.979   4.584  0.00  0.00    +0.292 HD
ENDBRANCH  24  25
ENDBRANCH  10  19
BRANCH   8  27
ATOM     27  S   UNL     1      -0.012  -2.942  -1.088  0.00  0.00    -0.127 S 
ATOM     28  C   UNL     1      -0.947  -4.279  -1.883  0.00  0.00    +0.090 C 
ENDBRANCH   8  27
BRANCH   6  29
ATOM     29  S   UNL     1      -5.232  -1.299  -1.130  0.00  0.00    -0.129 S 
ATOM     30  C   UNL     1      -5.174  -2.846  -2.074  0.00  0.00    +0.090 C 
ENDBRANCH   6  29
TORSDOF 4
