REMARK  Name = ZINC46945903
REMARK  12 active torsions:
REMARK  status: ('A' for Active; 'I' for Inactive)
REMARK    1  A    between atoms: C_1  and  C_2
REMARK    2  A    between atoms: C_2  and  N_3
REMARK    3  A    between atoms: N_3  and  C_4
REMARK    4  A    between atoms: N_3  and  C_6
REMARK    5  A    between atoms: C_4  and  C_5
REMARK    6  A    between atoms: C_6  and  C_8
REMARK    7  A    between atoms: C_6  and  C_25
REMARK    8  A    between atoms: C_8  and  N_9
REMARK    9  A    between atoms: C_10  and  C_12
REMARK   10  A    between atoms: C_12  and  N_13
REMARK   11  A    between atoms: N_16  and  C_17
REMARK   12  A    between atoms: C_17  and  C_18
REMARK                            x       y       z     vdW  Elec       q    Type
REMARK                         _______ _______ _______ _____ _____    ______ ____
ROOT
ATOM      1  N   UNL     1       2.623  -1.744  -2.318  0.00  0.00    -0.315 N 
ATOM      2  C   UNL     1       3.360  -1.636  -3.442  0.00  0.00    +0.230 C 
ATOM      3  O   UNL     1       2.849  -1.835  -4.523  0.00  0.00    -0.274 OA
ATOM      4  H   UNL     1       3.012  -1.514  -1.460  0.00  0.00    +0.149 HD
ENDROOT
BRANCH   1   5
ATOM      5  C   UNL     1       1.237  -2.211  -2.394  0.00  0.00    +0.093 C 
BRANCH   5   6
ATOM      6  C   UNL     1       0.592  -2.119  -1.009  0.00  0.00    -0.020 C 
BRANCH   6   7
ATOM      7  C   UNL     1      -0.860  -2.513  -1.104  0.00  0.00    -0.052 A 
ATOM      8  C   UNL     1      -1.391  -3.450  -0.239  0.00  0.00    +0.009 A 
ATOM      9  C   UNL     1      -2.700  -3.782  -0.351  0.00  0.00    +0.045 A 
ATOM     10  S   UNL     1      -3.226  -2.754  -1.713  0.00  0.00    -0.105 S 
ATOM     11  C   UNL     1      -1.666  -1.948  -2.037  0.00  0.00    +0.047 A 
ENDBRANCH   6   7
BRANCH   6  12
ATOM     12  N   UNL     1       0.694  -0.741  -0.511  0.00  0.00    +0.385 N 
ATOM     13  H   UNL     1       1.663  -0.461  -0.494  0.00  0.00    -0.081 HD
BRANCH  12  15
ATOM     14  C   UNL     1       0.188   1.609  -0.982  0.00  0.00    -0.017 C 
ATOM     15  C   UNL     1      -0.059   0.157  -1.397  0.00  0.00    -0.081 C 
ENDBRANCH  12  15
BRANCH  12  16
ATOM     16  C   UNL     1       0.138  -0.668   0.846  0.00  0.00    -0.081 C 
ATOM     17  C   UNL     1       1.011  -1.488   1.799  0.00  0.00    -0.017 C 
ENDBRANCH  12  16
ENDBRANCH   6  12
ENDBRANCH   5   6
ENDBRANCH   1   5
BRANCH   2  18
ATOM     18  C   UNL     1       4.819  -1.266  -3.354  0.00  0.00    +0.201 C 
BRANCH  18  19
ATOM     19  N   UNL     1       5.361  -1.093  -4.704  0.00  0.00    -0.291 N 
ATOM     20  C   UNL     1       6.655  -0.758  -4.872  0.00  0.00    +0.300 C 
ATOM     21  O   UNL     1       7.373  -0.601  -3.904  0.00  0.00    -0.253 OA
ATOM     22  N   UNL     1       7.154  -0.599  -6.114  0.00  0.00    -0.295 N 
ATOM     23  H   UNL     1       4.788  -1.218  -5.476  0.00  0.00    +0.151 HD
ATOM     24  H   UNL     1       6.581  -0.724  -6.886  0.00  0.00    +0.151 HD
BRANCH  22  25
ATOM     25  C   UNL     1       8.561  -0.235  -6.297  0.00  0.00    +0.141 C 
BRANCH  25  26
ATOM     26  C   UNL     1       8.863  -0.120  -7.769  0.00  0.00    -0.030 A 
ATOM     27  C   UNL     1       9.291  -1.228  -8.475  0.00  0.00    +0.008 A 
ATOM     28  C   UNL     1       9.568  -1.123  -9.825  0.00  0.00    +0.038 A 
ATOM     29  C   UNL     1       9.415   0.092 -10.470  0.00  0.00    +0.123 A 
ATOM     30  C   UNL     1       8.986   1.202  -9.762  0.00  0.00    +0.038 A 
ATOM     31  C   UNL     1       8.706   1.093  -8.413  0.00  0.00    +0.008 A 
ATOM     32  F   UNL     1       9.686   0.196 -11.790  0.00  0.00    -0.205 F 
ENDBRANCH  25  26
ENDBRANCH  22  25
ENDBRANCH  18  19
ENDBRANCH   2  18
TORSDOF 10
