REMARK  Name = ZINC09807769
REMARK  6 active torsions:
REMARK  status: ('A' for Active; 'I' for Inactive)
REMARK    1  A    between atoms: C_7  and  N_28
REMARK    2  A    between atoms: C_8  and  N_12
REMARK    3  A    between atoms: N_12  and  S_13
REMARK    4  A    between atoms: S_13  and  C_16
REMARK    5  A    between atoms: C_19  and  N_22
REMARK    6  A    between atoms: N_28  and  C_29
REMARK                            x       y       z     vdW  Elec       q    Type
REMARK                         _______ _______ _______ _____ _____    ______ ____
ROOT
ATOM      1  C   UNL     1       8.741  -4.436   4.061  0.00  0.00    +0.001 A 
ATOM      2  C   UNL     1       7.965  -5.168   3.174  0.00  0.00    +0.004 A 
ATOM      3  C   UNL     1       7.534  -4.609   1.990  0.00  0.00    +0.047 A 
ATOM      4  C   UNL     1       7.877  -3.300   1.675  0.00  0.00    +0.141 A 
ATOM      5  C   UNL     1       8.663  -2.559   2.572  0.00  0.00    +0.040 A 
ATOM      6  C   UNL     1       9.093  -3.138   3.768  0.00  0.00    +0.013 A 
ATOM      7  C   UNL     1       9.026  -1.175   2.226  0.00  0.00    +0.068 A 
ATOM      8  C   UNL     1       8.562  -0.666   1.027  0.00  0.00    +0.154 A 
ATOM      9  C   UNL     1       7.779  -1.478   0.187  0.00  0.00    +0.362 A 
ATOM     10  O   UNL     1       7.377  -1.024  -0.871  0.00  0.00    -0.243 OA
ATOM     11  O   UNL     1       7.462  -2.740   0.518  0.00  0.00    -0.421 OA
ENDROOT
BRANCH   8  12
ATOM     12  N   UNL     1       8.875   0.652   0.648  0.00  0.00    -0.208 N 
ATOM     13  H   UNL     1       9.802   0.922   0.554  0.00  0.00    +0.174 HD
BRANCH  12  14
ATOM     14  S   UNL     1       7.662   1.742   0.363  0.00  0.00    +0.073 S 
ATOM     15  O   UNL     1       6.753   1.114  -0.531  0.00  0.00    -0.150 OA
ATOM     16  O   UNL     1       8.290   2.981   0.065  0.00  0.00    -0.150 OA
BRANCH  14  17
ATOM     17  C   UNL     1       6.798   1.969   1.882  0.00  0.00    +0.109 A 
ATOM     18  C   UNL     1       7.136   3.017   2.718  0.00  0.00    +0.030 A 
ATOM     19  C   UNL     1       6.461   3.198   3.909  0.00  0.00    +0.025 A 
ATOM     20  C   UNL     1       5.441   2.325   4.267  0.00  0.00    +0.036 A 
ATOM     21  C   UNL     1       5.107   1.270   3.427  0.00  0.00    +0.025 A 
ATOM     22  C   UNL     1       5.783   1.099   2.235  0.00  0.00    +0.030 A 
BRANCH  20  23
ATOM     23  N   UNL     1       4.755   2.505   5.473  0.00  0.00    -0.271 N 
ATOM     24  C   UNL     1       5.112   3.504   6.487  0.00  0.00    +0.114 C 
ATOM     25  C   UNL     1       3.868   3.633   7.394  0.00  0.00    +0.029 C 
ATOM     26  C   UNL     1       3.195   2.254   7.204  0.00  0.00    +0.098 C 
ATOM     27  C   UNL     1       3.685   1.785   5.852  0.00  0.00    +0.220 C 
ATOM     28  O   UNL     1       3.186   0.889   5.205  0.00  0.00    -0.275 OA
ENDBRANCH  20  23
ENDBRANCH  14  17
ENDBRANCH  12  14
ENDBRANCH   8  12
BRANCH   7  29
ATOM     29  N   UNL     1       9.803  -0.408   3.075  0.00  0.00    -0.339 N 
ATOM     30  H   UNL     1       9.725  -0.731   4.028  0.00  0.00    +0.146 HD
BRANCH  29  31
ATOM     31  C   UNL     1      11.205  -0.393   2.637  0.00  0.00    +0.070 C 
ATOM     32  C   UNL     1      11.912  -1.649   3.150  0.00  0.00    +0.022 C 
ATOM     33  C   UNL     1      13.373  -1.634   2.693  0.00  0.00    +0.002 C 
ATOM     34  C   UNL     1      14.069  -0.393   3.253  0.00  0.00    +0.000 C 
ATOM     35  C   UNL     1      13.362   0.864   2.741  0.00  0.00    +0.002 C 
ATOM     36  C   UNL     1      11.901   0.849   3.197  0.00  0.00    +0.022 C 
ENDBRANCH  29  31
ENDBRANCH   7  29
TORSDOF 6
