REMARK  Name = ZINC12562995
REMARK  7 active torsions:
REMARK  status: ('A' for Active; 'I' for Inactive)
REMARK    1  A    between atoms: C_1  and  C_2
REMARK    2  A    between atoms: C_2  and  N_3
REMARK    3  A    between atoms: N_3  and  C_4
REMARK    4  A    between atoms: N_3  and  C_6
REMARK    5  A    between atoms: C_4  and  C_5
REMARK    6  A    between atoms: C_11  and  C_23
REMARK    7  A    between atoms: N_13  and  C_14
REMARK                            x       y       z     vdW  Elec       q    Type
REMARK                         _______ _______ _______ _____ _____    ______ ____
ROOT
ATOM      1  C   UNL     1      -1.338  -0.756  -2.540  0.00  0.00    +0.033 A 
ATOM      2  C   UNL     1      -2.662  -0.579  -2.947  0.00  0.00    +0.024 A 
ATOM      3  C   UNL     1      -3.028  -0.834  -4.235  0.00  0.00    +0.013 A 
ATOM      4  C   UNL     1      -2.073  -1.287  -5.158  0.00  0.00    +0.018 A 
ATOM      5  C   UNL     1      -2.450  -1.590  -6.490  0.00  0.00    +0.030 A 
ATOM      6  C   UNL     1      -1.523  -2.222  -7.307  0.00  0.00    +0.097 A 
ATOM      7  C   UNL     1      -0.215  -2.561  -6.712  0.00  0.00    +0.212 A 
ATOM      8  N   UNL     1       0.512  -3.550  -7.186  0.00  0.00    -0.325 N 
ATOM      9  O   UNL     1       0.210  -1.817  -5.659  0.00  0.00    -0.438 OA
ATOM     10  C   UNL     1      -0.730  -1.438  -4.758  0.00  0.00    +0.139 A 
ATOM     11  C   UNL     1      -0.374  -1.177  -3.446  0.00  0.00    +0.070 A 
ATOM     12  H   UNL     1       0.154  -4.127  -7.879  0.00  0.00    +0.169 HD
ENDROOT
BRANCH   8  13
ATOM     13  C   UNL     1       1.773  -3.765  -6.701  0.00  0.00    +0.042 A 
ATOM     14  C   UNL     1       2.645  -2.690  -6.515  0.00  0.00    +0.026 A 
ATOM     15  C   UNL     1       3.915  -2.914  -6.025  0.00  0.00    +0.002 A 
ATOM     16  C   UNL     1       4.325  -4.199  -5.719  0.00  0.00    +0.000 A 
ATOM     17  C   UNL     1       3.467  -5.269  -5.901  0.00  0.00    +0.002 A 
ATOM     18  C   UNL     1       2.192  -5.059  -6.384  0.00  0.00    +0.026 A 
ENDBRANCH   8  13
BRANCH   6  19
ATOM     19  C   UNL     1      -1.831  -2.540  -8.710  0.00  0.00    +0.247 C 
ATOM     20  O   UNL     1      -0.962  -2.982  -9.438  0.00  0.00    -0.270 OA
ATOM     21  N   UNL     1      -3.075  -2.342  -9.189  0.00  0.00    -0.325 N 
ATOM     22  H   UNL     1      -3.749  -1.924  -8.630  0.00  0.00    +0.145 HD
ATOM     23  H   UNL     1      -3.297  -2.618 -10.092  0.00  0.00    +0.145 HD
ENDBRANCH   6  19
BRANCH   1  24
ATOM     24  N   UNL     1      -0.982  -0.504  -1.220  0.00  0.00    -0.330 N 
BRANCH  24  26
ATOM     25  C   UNL     1      -2.066   1.468  -0.264  0.00  0.00    +0.024 C 
ATOM     26  C   UNL     1      -1.995  -0.060  -0.260  0.00  0.00    +0.102 C 
ENDBRANCH  24  26
BRANCH  24  27
ATOM     27  C   UNL     1       0.407  -0.684  -0.789  0.00  0.00    +0.102 C 
ATOM     28  C   UNL     1       0.608  -2.120  -0.301  0.00  0.00    +0.024 C 
ENDBRANCH  24  27
ENDBRANCH   1  24
TORSDOF 5
