REMARK  Name = ZINC06134843
REMARK  14 active torsions:
REMARK  status: ('A' for Active; 'I' for Inactive)
REMARK    1  A    between atoms: C_1  and  C_2
REMARK    2  A    between atoms: C_2  and  C_3
REMARK    3  A    between atoms: C_2  and  C_4
REMARK    4  A    between atoms: C_4  and  O_5
REMARK    5  A    between atoms: O_5  and  C_6
REMARK    6  A    between atoms: N_8  and  C_9
REMARK    7  A    between atoms: C_9  and  C_11
REMARK    8  A    between atoms: C_9  and  C_22
REMARK    9  A    between atoms: C_11  and  C_12
REMARK   10  A    between atoms: N_24  and  N_25
REMARK   11  A    between atoms: C_26  and  C_27
REMARK   12  A    between atoms: C_30  and  O_36
REMARK   13  A    between atoms: C_31  and  N_33
REMARK   14  A    between atoms: O_36  and  C_37
REMARK                            x       y       z     vdW  Elec       q    Type
REMARK                         _______ _______ _______ _____ _____    ______ ____
ROOT
ATOM      1  C   UNL     1      -3.960  -4.608  -0.243  0.00  0.00    +0.168 C 
ENDROOT
BRANCH   1   4
ATOM      2  C   UNL     1      -2.608  -2.584  -0.120  0.00  0.00    +0.401 C 
ATOM      3  O   UNL     1      -3.634  -1.940  -0.022  0.00  0.00    -0.226 OA
ATOM      4  N   UNL     1      -2.663  -3.926  -0.235  0.00  0.00    -0.269 N 
ATOM      5  H   UNL     1      -1.844  -4.440  -0.313  0.00  0.00    +0.153 HD
BRANCH   2   6
ATOM      6  O   UNL     1      -1.417  -1.957  -0.112  0.00  0.00    -0.450 OA
BRANCH   6   7
ATOM      7  C   UNL     1      -1.433  -0.534   0.013  0.00  0.00    +0.236 C 
BRANCH   7   9
ATOM      8  C   UNL     1      -0.019   1.526   0.010  0.00  0.00    +0.010 C 
ATOM      9  C   UNL     1       0.002  -0.004   0.002  0.00  0.00    +0.021 C 
ATOM     10  C   UNL     1       0.742  -0.511   1.242  0.00  0.00    +0.010 C 
ENDBRANCH   7   9
ENDBRANCH   6   7
ENDBRANCH   2   6
ENDBRANCH   1   4
BRANCH   1  11
ATOM     11  C   UNL     1      -4.685  -4.323   1.047  0.00  0.00    +0.253 C 
ATOM     12  O   UNL     1      -4.370  -3.365   1.722  0.00  0.00    -0.272 OA
ATOM     13  N   UNL     1      -5.684  -5.132   1.451  0.00  0.00    -0.205 N 
ATOM     14  H   UNL     1      -5.936  -5.898   0.912  0.00  0.00    +0.177 HD
BRANCH  13  15
ATOM     15  N   UNL     1      -6.358  -4.868   2.650  0.00  0.00    -0.188 NA
ATOM     16  C   UNL     1      -7.320  -5.647   3.040  0.00  0.00    +0.138 C 
BRANCH  16  17
ATOM     17  C   UNL     1      -8.030  -5.369   4.301  0.00  0.00    -0.003 A 
ATOM     18  C   UNL     1      -7.672  -4.263   5.077  0.00  0.00    +0.013 A 
ATOM     19  C   UNL     1      -8.338  -4.006   6.256  0.00  0.00    +0.048 A 
ATOM     20  C   UNL     1      -9.363  -4.846   6.674  0.00  0.00    +0.150 A 
ATOM     21  C   UNL     1      -9.722  -5.946   5.906  0.00  0.00    +0.168 A 
ATOM     22  C   UNL     1      -9.066  -6.207   4.723  0.00  0.00    +0.046 A 
BRANCH  21  23
ATOM     23  N   UNL     1     -10.815  -6.837   6.357  0.00  0.00    +0.060 N 
ATOM     24  O   UNL     1     -11.128  -7.795   5.689  0.00  0.00    -0.126 OA
ATOM     25  O   UNL     1     -11.395  -6.606   7.393  0.00  0.00    -0.126 OA
ENDBRANCH  21  23
BRANCH  20  26
ATOM     26  O   UNL     1     -10.017  -4.589   7.837  0.00  0.00    -0.493 OA
ATOM     27  C   UNL     1      -9.597  -3.442   8.578  0.00  0.00    +0.277 C 
ENDBRANCH  20  26
ENDBRANCH  16  17
ENDBRANCH  13  15
ENDBRANCH   1  11
BRANCH   1  28
ATOM     28  C   UNL     1      -4.795  -4.101  -1.420  0.00  0.00    +0.069 C 
BRANCH  28  29
ATOM     29  C   UNL     1      -4.130  -4.494  -2.714  0.00  0.00    -0.020 A 
ATOM     30  C   UNL     1      -3.289  -3.741  -3.441  0.00  0.00    +0.087 A 
ATOM     31  N   UNL     1      -2.887  -4.430  -4.552  0.00  0.00    -0.360 N 
ATOM     32  H   UNL     1      -2.279  -4.092  -5.228  0.00  0.00    +0.165 HD
ATOM     33  C   UNL     1      -3.474  -5.676  -4.568  0.00  0.00    +0.047 A 
ATOM     34  C   UNL     1      -4.274  -5.773  -3.414  0.00  0.00    +0.003 A 
ATOM     35  C   UNL     1      -4.992  -6.942  -3.162  0.00  0.00    +0.010 A 
ATOM     36  C   UNL     1      -4.913  -7.990  -4.035  0.00  0.00    +0.001 A 
ATOM     37  C   UNL     1      -4.122  -7.901  -5.173  0.00  0.00    +0.002 A 
ATOM     38  C   UNL     1      -3.412  -6.752  -5.447  0.00  0.00    +0.026 A 
ENDBRANCH  28  29
ENDBRANCH   1  28
TORSDOF 11
