REMARK  Name = ZINC08533047
REMARK  6 active torsions:
REMARK  status: ('A' for Active; 'I' for Inactive)
REMARK    1  A    between atoms: C_1  and  C_2
REMARK    2  A    between atoms: C_2  and  C_4
REMARK    3  A    between atoms: C_2  and  N_50
REMARK    4  A    between atoms: N_6  and  C_7
REMARK    5  A    between atoms: C_8  and  C_12
REMARK    6  A    between atoms: C_17  and  C_20
REMARK                            x       y       z     vdW  Elec       q    Type
REMARK                         _______ _______ _______ _____ _____    ______ ____
ROOT
ATOM      1  C   UNL     1       2.122  -6.748   0.021  0.00  0.00    -0.004 C 
ATOM      2  C   UNL     1       3.395  -5.904  -0.061  0.00  0.00    +0.016 C 
ENDROOT
BRANCH   2   8
ATOM      3  C   UNL     1       2.277  -4.118  -1.252  0.00  0.00    -0.077 C 
ATOM      4  C   UNL     1       2.051  -2.605  -1.279  0.00  0.00    -0.009 C 
ATOM      5  C   UNL     1       1.285  -2.186  -0.021  0.00  0.00    +0.041 C 
ATOM      6  C   UNL     1       2.075  -2.617   1.217  0.00  0.00    -0.009 C 
ATOM      7  C   UNL     1       2.303  -4.130   1.171  0.00  0.00    -0.077 C 
ATOM      8  N   UNL     1       3.066  -4.464  -0.051  0.00  0.00    +0.387 N 
ATOM      9  H   UNL     1       3.938  -3.922  -0.057  0.00  0.00    -0.081 HD
BRANCH   5  10
ATOM     10  C   UNL     1       1.111  -0.689  -0.012  0.00  0.00    +0.082 A 
ATOM     11  N   UNL     1       0.002  -0.004   0.002  0.00  0.00    -0.244 NA
ATOM     12  C   UNL     1      -0.016   1.345   0.009  0.00  0.00    +0.078 A 
ATOM     13  C   UNL     1      -1.125   2.220   0.030  0.00  0.00    +0.029 A 
ATOM     14  C   UNL     1      -0.945   3.569   0.031  0.00  0.00    +0.002 A 
ATOM     15  C   UNL     1       0.323   4.135   0.022  0.00  0.00    +0.001 A 
ATOM     16  C   UNL     1       1.433   3.312   0.006  0.00  0.00    +0.017 A 
ATOM     17  C   UNL     1       1.262   1.949   0.001  0.00  0.00    +0.039 A 
ATOM     18  S   UNL     1       2.339   0.538  -0.017  0.00  0.00    -0.072 S 
ENDBRANCH   5  10
ENDBRANCH   2   8
BRANCH   2  19
ATOM     19  C   UNL     1       4.278  -6.210   1.121  0.00  0.00    +0.204 C 
ATOM     20  O   UNL     1       4.581  -5.328   1.897  0.00  0.00    -0.277 OA
ATOM     21  N   UNL     1       4.731  -7.465   1.318  0.00  0.00    -0.281 N 
ATOM     22  H   UNL     1       4.488  -8.170   0.698  0.00  0.00    +0.155 HD
BRANCH  21  23
ATOM     23  C   UNL     1       5.543  -7.746   2.405  0.00  0.00    +0.084 A 
ATOM     24  C   UNL     1       6.098  -8.966   2.776  0.00  0.00    +0.065 A 
ATOM     25  C   UNL     1       6.916  -8.972   3.965  0.00  0.00    +0.022 A 
ATOM     26  C   UNL     1       7.061  -7.804   4.617  0.00  0.00    +0.048 A 
ATOM     27  S   UNL     1       6.105  -6.666   3.637  0.00  0.00    -0.081 S 
BRANCH  24  28
ATOM     28  C   UNL     1       5.868 -10.185   1.994  0.00  0.00    +0.244 C 
ATOM     29  O   UNL     1       5.175 -10.144   0.994  0.00  0.00    -0.270 OA
ATOM     30  N   UNL     1       6.422 -11.350   2.383  0.00  0.00    -0.325 N 
ATOM     31  H   UNL     1       6.974 -11.382   3.180  0.00  0.00    +0.145 HD
ATOM     32  H   UNL     1       6.270 -12.156   1.866  0.00  0.00    +0.145 HD
ENDBRANCH  24  28
ENDBRANCH  21  23
ENDBRANCH   2  19
TORSDOF 5
