REMARK  Name = ZINC63514312
REMARK  10 active torsions:
REMARK  status: ('A' for Active; 'I' for Inactive)
REMARK    1  A    between atoms: C_1  and  C_2
REMARK    2  A    between atoms: C_4  and  C_17
REMARK    3  A    between atoms: C_7  and  O_12
REMARK    4  A    between atoms: O_12  and  C_13
REMARK    5  A    between atoms: C_17  and  C_18
REMARK    6  A    between atoms: C_18  and  N_19
REMARK    7  A    between atoms: N_19  and  S_20
REMARK    8  A    between atoms: S_20  and  C_23
REMARK    9  A    between atoms: C_26  and  O_29
REMARK   10  A    between atoms: O_29  and  C_30
REMARK                            x       y       z     vdW  Elec       q    Type
REMARK                         _______ _______ _______ _____ _____    ______ ____
ROOT
ATOM      1  C   UNL     1      -0.019   1.526   0.010  0.00  0.00    +0.035 C 
ATOM      2  C   UNL     1       0.002  -0.004   0.002  0.00  0.00    +0.103 C 
ATOM      3  C   UNL     1       0.729  -0.509  -1.224  0.00  0.00    -0.037 C 
ATOM      4  C   UNL     1       1.785  -1.220  -0.768  0.00  0.00    +0.003 A 
ATOM      5  C   UNL     1       2.858  -1.954  -1.447  0.00  0.00    +0.056 A 
ATOM      6  C   UNL     1       3.803  -2.586  -0.711  0.00  0.00    +0.131 A 
ATOM      7  C   UNL     1       3.796  -2.567   0.695  0.00  0.00    +0.048 A 
ATOM      8  C   UNL     1       2.851  -1.919   1.409  0.00  0.00    +0.029 A 
ATOM      9  C   UNL     1       1.779  -1.200   0.713  0.00  0.00    +0.043 A 
ATOM     10  N   UNL     1       0.758  -0.506   1.155  0.00  0.00    -0.378 N 
ATOM     11  H   UNL     1       0.540  -0.349   2.087  0.00  0.00    +0.160 HD
ENDROOT
BRANCH   6  12
ATOM     12  O   UNL     1       4.792  -3.263  -1.353  0.00  0.00    -0.406 OA
BRANCH  12  13
ATOM     13  C   UNL     1       5.767  -3.915  -0.537  0.00  0.00    +0.575 C 
ATOM     14  F   UNL     1       5.136  -4.859   0.280  0.00  0.00    -0.133 F 
ATOM     15  F   UNL     1       6.704  -4.558  -1.354  0.00  0.00    -0.133 F 
ATOM     16  F   UNL     1       6.417  -2.968   0.261  0.00  0.00    -0.133 F 
ENDBRANCH  12  13
ENDBRANCH   6  12
BRANCH   3  17
ATOM     17  C   UNL     1       0.352  -0.269  -2.664  0.00  0.00    +0.050 C 
BRANCH  17  18
ATOM     18  C   UNL     1       1.363  -0.963  -3.578  0.00  0.00    +0.110 C 
BRANCH  18  19
ATOM     19  N   UNL     1       0.997  -0.729  -4.977  0.00  0.00    -0.190 NA
ATOM     20  H   UNL     1       0.113  -0.396  -5.198  0.00  0.00    +0.148 HD
BRANCH  19  21
ATOM     21  S   UNL     1       2.092  -1.035  -6.182  0.00  0.00    +0.058 S 
ATOM     22  O   UNL     1       1.438  -0.740  -7.409  0.00  0.00    -0.153 OA
ATOM     23  O   UNL     1       3.306  -0.406  -5.796  0.00  0.00    -0.153 OA
BRANCH  21  24
ATOM     24  C   UNL     1       2.399  -2.770  -6.179  0.00  0.00    +0.105 A 
ATOM     25  C   UNL     1       3.414  -3.290  -5.398  0.00  0.00    +0.032 A 
ATOM     26  C   UNL     1       3.657  -4.649  -5.395  0.00  0.00    +0.047 A 
ATOM     27  C   UNL     1       2.881  -5.494  -6.176  0.00  0.00    +0.120 A 
ATOM     28  C   UNL     1       1.863  -4.969  -6.959  0.00  0.00    +0.047 A 
ATOM     29  C   UNL     1       1.621  -3.609  -6.955  0.00  0.00    +0.032 A 
BRANCH  27  30
ATOM     30  O   UNL     1       3.119  -6.832  -6.175  0.00  0.00    -0.495 OA
ATOM     31  C   UNL     1       2.281  -7.640  -7.003  0.00  0.00    +0.277 C 
ENDBRANCH  27  30
ENDBRANCH  21  24
ENDBRANCH  19  21
ENDBRANCH  18  19
ENDBRANCH  17  18
ENDBRANCH   3  17
TORSDOF 8
