REMARK  Name = ZINC63493369
REMARK  4 active torsions:
REMARK  status: ('A' for Active; 'I' for Inactive)
REMARK    1  A    between atoms: C_10  and  C_12
REMARK    2  A    between atoms: C_12  and  C_13
REMARK    3  A    between atoms: C_13  and  C_14
REMARK    4  A    between atoms: C_14  and  C_15
REMARK                            x       y       z     vdW  Elec       q    Type
REMARK                         _______ _______ _______ _____ _____    ______ ____
ROOT
ATOM      1  C   UNL     1       5.137   1.006  -0.045  0.00  0.00    +0.096 C 
ENDROOT
BRANCH   1  11
ATOM      2  C   UNL     1      -0.017   1.378   0.010  0.00  0.00    +0.000 A 
ATOM      3  C   UNL     1       1.174   2.082   0.002  0.00  0.00    +0.002 A 
ATOM      4  C   UNL     1       2.377   1.410  -0.013  0.00  0.00    +0.024 A 
ATOM      5  C   UNL     1       2.404   0.014  -0.022  0.00  0.00    +0.039 A 
ATOM      6  C   UNL     1       1.206  -0.682  -0.014  0.00  0.00    -0.024 A 
ATOM      7  C   UNL     1       0.002  -0.004   0.002  0.00  0.00    +0.005 A 
ATOM      8  C   UNL     1       1.510  -2.163  -0.025  0.00  0.00    +0.056 C 
ATOM      9  C   UNL     1       3.046  -2.243  -0.040  0.00  0.00    +0.118 C 
ATOM     10  N   UNL     1       3.503  -0.851  -0.037  0.00  0.00    -0.271 N 
ATOM     11  C   UNL     1       4.793  -0.461  -0.049  0.00  0.00    +0.220 C 
ATOM     12  O   UNL     1       5.677  -1.291  -0.062  0.00  0.00    -0.275 OA
ENDBRANCH   1  11
BRANCH   1  13
ATOM     13  C   UNL     1       6.658   1.173  -0.060  0.00  0.00    +0.014 C 
BRANCH  13  14
ATOM     14  C   UNL     1       7.007   2.663  -0.055  0.00  0.00    +0.033 C 
BRANCH  14  15
ATOM     15  C   UNL     1       8.505   2.827  -0.070  0.00  0.00    -0.042 C 
ATOM     16  C   UNL     1       9.291   3.021  -1.154  0.00  0.00    -0.001 A 
ATOM     17  C   UNL     1       8.998   3.131  -2.588  0.00  0.00    +0.010 A 
ATOM     18  C   UNL     1      10.019   3.328  -3.453  0.00  0.00    +0.001 A 
ATOM     19  C   UNL     1      11.347   3.429  -3.015  0.00  0.00    +0.002 A 
ATOM     20  C   UNL     1      11.695   3.338  -1.714  0.00  0.00    +0.026 A 
ATOM     21  C   UNL     1      10.701   3.132  -0.717  0.00  0.00    +0.043 A 
ATOM     22  N   UNL     1      10.784   3.011   0.586  0.00  0.00    -0.380 N 
ATOM     23  C   UNL     1       9.433   2.816   1.124  0.00  0.00    +0.144 C 
ATOM     24  H   UNL     1      11.601   3.048   1.107  0.00  0.00    +0.160 HD
ENDBRANCH  14  15
ENDBRANCH  13  14
ENDBRANCH   1  13
TORSDOF 4
