REMARK  Name = ZINC00705486
REMARK  10 active torsions:
REMARK  status: ('A' for Active; 'I' for Inactive)
REMARK    1  A    between atoms: C_1  and  C_2
REMARK    2  A    between atoms: C_2  and  C_34
REMARK    3  A    between atoms: C_6  and  C_21
REMARK    4  A    between atoms: C_8  and  C_19
REMARK    5  A    between atoms: C_9  and  N_18
REMARK    6  A    between atoms: N_10  and  C_11
REMARK    7  A    between atoms: C_24  and  O_29
REMARK    8  A    between atoms: C_25  and  O_27
REMARK    9  A    between atoms: O_27  and  C_28
REMARK   10  A    between atoms: O_29  and  C_30
REMARK                            x       y       z     vdW  Elec       q    Type
REMARK                         _______ _______ _______ _____ _____    ______ ____
ROOT
ATOM      1  C   UNL     1       0.756   6.728   3.508  0.00  0.00    +0.011 C 
ATOM      2  C   UNL     1       2.023   7.263   2.838  0.00  0.00    -0.023 C 
ATOM      3  C   UNL     1       1.659   8.403   1.885  0.00  0.00    +0.058 C 
ATOM      4  C   UNL     1       0.740   7.887   0.805  0.00  0.00    +0.025 C 
ATOM      5  C   UNL     1       0.818   6.609   0.377  0.00  0.00    +0.025 C 
ATOM      6  C   UNL     1      -0.098   6.097  -0.705  0.00  0.00    +0.097 C 
ATOM      7  C   UNL     1      -0.721   7.228  -1.469  0.00  0.00    +0.077 C 
ATOM      8  C   UNL     1      -0.741   8.489  -0.964  0.00  0.00    +0.107 C 
ATOM      9  N   UNL     1      -0.176   8.750   0.264  0.00  0.00    -0.260 N 
ATOM     10  C   UNL     1       1.754   5.716   0.929  0.00  0.00    +0.162 C 
ATOM     11  O   UNL     1       1.808   4.576   0.512  0.00  0.00    -0.292 OA
ATOM     12  C   UNL     1       2.688   6.146   2.027  0.00  0.00    +0.086 C 
ATOM     13  C   UNL     1       2.994   7.770   3.906  0.00  0.00    +0.011 C 
ENDROOT
BRANCH   9  14
ATOM     14  C   UNL     1      -0.541   9.906   0.964  0.00  0.00    +0.040 A 
ATOM     15  C   UNL     1      -1.603   9.871   1.858  0.00  0.00    +0.025 A 
ATOM     16  C   UNL     1      -1.957  11.012   2.552  0.00  0.00    +0.017 A 
ATOM     17  C   UNL     1      -1.262  12.191   2.348  0.00  0.00    +0.018 A 
ATOM     18  C   UNL     1      -0.207  12.229   1.454  0.00  0.00    +0.017 A 
ATOM     19  C   UNL     1       0.155  11.091   0.762  0.00  0.00    +0.025 A 
ATOM     20 BR   UNL     1      -1.755  13.752   3.295  0.00  0.00    -0.050 Br
ENDBRANCH   9  14
BRANCH   6  21
ATOM     21  C   UNL     1      -1.187   5.265  -0.079  0.00  0.00    -0.031 A 
ATOM     22  C   UNL     1      -2.063   5.841   0.822  0.00  0.00    +0.008 A 
ATOM     23  C   UNL     1      -3.064   5.083   1.400  0.00  0.00    +0.050 A 
ATOM     24  C   UNL     1      -3.190   3.741   1.076  0.00  0.00    +0.162 A 
ATOM     25  C   UNL     1      -2.308   3.161   0.170  0.00  0.00    +0.162 A 
ATOM     26  C   UNL     1      -1.303   3.926  -0.401  0.00  0.00    +0.054 A 
BRANCH  25  27
ATOM     27  O   UNL     1      -2.428   1.845  -0.150  0.00  0.00    -0.491 OA
ATOM     28  C   UNL     1      -1.487   1.317  -1.088  0.00  0.00    +0.277 C 
ENDBRANCH  25  27
BRANCH  24  29
ATOM     29  O   UNL     1      -4.174   2.993   1.644  0.00  0.00    -0.491 OA
ATOM     30  C   UNL     1      -5.043   3.655   2.565  0.00  0.00    +0.277 C 
ENDBRANCH  24  29
ENDBRANCH   6  21
BRANCH   8  31
ATOM     31  N   UNL     1      -1.327   9.505  -1.681  0.00  0.00    -0.345 N 
ATOM     32  H   UNL     1      -1.651   9.341  -2.580  0.00  0.00    +0.144 HD
ATOM     33  H   UNL     1      -1.416  10.387  -1.287  0.00  0.00    +0.144 HD
ENDBRANCH   8  31
BRANCH   7  34
ATOM     34  C   UNL     1      -1.305   6.974  -2.752  0.00  0.00    +0.099 C 
ATOM     35  N   UNL     1      -1.768   6.772  -3.769  0.00  0.00    -0.191 NA
ENDBRANCH   7  34
TORSDOF 6
