REMARK  Name = ZINC02810832
REMARK  5 active torsions:
REMARK  status: ('A' for Active; 'I' for Inactive)
REMARK    1  A    between atoms: C_4  and  C_7
REMARK    2  A    between atoms: C_7  and  C_8
REMARK    3  A    between atoms: C_8  and  C_10
REMARK    4  A    between atoms: C_8  and  C_21
REMARK    5  A    between atoms: C_10  and  C_11
REMARK                            x       y       z     vdW  Elec       q    Type
REMARK                         _______ _______ _______ _____ _____    ______ ____
ROOT
ATOM      1  C   UNL     1      -1.375   2.094  -0.113  0.00  0.00    +0.066 C 
ENDROOT
BRANCH   1   2
ATOM      2  C   UNL     1      -0.071   1.367  -0.320  0.00  0.00    +0.112 A 
ATOM      3  N   UNL     1       1.112   1.962  -0.628  0.00  0.00    -0.342 N 
ATOM      4  H   UNL     1       1.268   2.942  -0.752  0.00  0.00    +0.167 HD
ATOM      5  C   UNL     1       2.058   0.962  -0.739  0.00  0.00    +0.066 A 
ATOM      6  C   UNL     1       3.416   0.944  -1.028  0.00  0.00    +0.028 A 
ATOM      7  C   UNL     1       4.090  -0.258  -1.061  0.00  0.00    +0.002 A 
ATOM      8  C   UNL     1       3.421  -1.447  -0.809  0.00  0.00    +0.002 A 
ATOM      9  C   UNL     1       2.086  -1.448  -0.523  0.00  0.00    +0.030 A 
ATOM     10  C   UNL     1       1.381  -0.242  -0.483  0.00  0.00    +0.089 A 
ATOM     11  N   UNL     1       0.085   0.078  -0.235  0.00  0.00    -0.232 NA
ENDBRANCH   1   2
BRANCH   1  12
ATOM     12  C   UNL     1      -1.465   2.578   1.335  0.00  0.00    +0.046 C 
BRANCH  12  16
ATOM     13  C   UNL     1      -1.653  -0.791   3.955  0.00  0.00    +0.000 A 
ATOM     14  C   UNL     1      -0.440  -0.177   3.705  0.00  0.00    +0.000 A 
ATOM     15  C   UNL     1      -0.379   0.914   2.857  0.00  0.00    +0.003 A 
ATOM     16  C   UNL     1      -1.532   1.389   2.259  0.00  0.00    -0.047 A 
ATOM     17  C   UNL     1      -2.745   0.778   2.513  0.00  0.00    +0.003 A 
ATOM     18  C   UNL     1      -2.805  -0.316   3.357  0.00  0.00    +0.000 A 
ENDBRANCH  12  16
ENDBRANCH   1  12
BRANCH   1  19
ATOM     19  C   UNL     1      -1.444   3.295  -1.058  0.00  0.00    +0.085 C 
BRANCH  19  20
ATOM     20  C   UNL     1      -2.802   3.940  -0.952  0.00  0.00    +0.109 A 
ATOM     21  N   UNL     1      -3.023   5.243  -0.630  0.00  0.00    -0.342 N 
ATOM     22  H   UNL     1      -2.326   5.929  -0.424  0.00  0.00    +0.167 HD
ATOM     23  C   UNL     1      -4.389   5.443  -0.641  0.00  0.00    +0.066 A 
ATOM     24  C   UNL     1      -5.208   6.538  -0.402  0.00  0.00    +0.028 A 
ATOM     25  C   UNL     1      -6.577   6.400  -0.491  0.00  0.00    +0.002 A 
ATOM     26  C   UNL     1      -7.140   5.175  -0.819  0.00  0.00    +0.002 A 
ATOM     27  C   UNL     1      -6.350   4.086  -1.058  0.00  0.00    +0.030 A 
ATOM     28  C   UNL     1      -4.960   4.203  -0.973  0.00  0.00    +0.089 A 
ATOM     29  N   UNL     1      -3.935   3.330  -1.149  0.00  0.00    -0.232 NA
ENDBRANCH  19  20
ENDBRANCH   1  19
TORSDOF 5
