REMARK  Name = ZINC39795516
REMARK  8 active torsions:
REMARK  status: ('A' for Active; 'I' for Inactive)
REMARK    1  A    between atoms: C_1  and  C_2
REMARK    2  A    between atoms: C_5  and  C_8
REMARK    3  A    between atoms: C_12  and  C_16
REMARK    4  A    between atoms: C_16  and  N_17
REMARK    5  A    between atoms: N_17  and  C_18
REMARK    6  A    between atoms: C_18  and  C_20
REMARK    7  A    between atoms: C_18  and  C_21
REMARK    8  A    between atoms: C_29  and  C_31
REMARK                            x       y       z     vdW  Elec       q    Type
REMARK                         _______ _______ _______ _____ _____    ______ ____
ROOT
ATOM      1  C   UNL     1       0.059  -4.239  -0.021  0.00  0.00    -0.012 C 
ATOM      2  C   UNL     1       1.131  -4.938  -0.521  0.00  0.00    +0.075 C 
ATOM      3  C   UNL     1       1.056  -6.406  -0.484  0.00  0.00    +0.112 C 
ATOM      4  N   UNL     1       2.045  -7.137  -0.946  0.00  0.00    -0.226 NA
ATOM      5  C   UNL     1       3.132  -6.581  -1.455  0.00  0.00    +0.137 C 
ATOM      6  N   UNL     1       3.306  -5.283  -1.537  0.00  0.00    -0.160 NA
ATOM      7  C   UNL     1       2.393  -4.404  -1.111  0.00  0.00    +0.272 C 
ATOM      8  O   UNL     1       2.585  -3.203  -1.203  0.00  0.00    -0.268 OA
ATOM      9  S   UNL     1      -0.518  -6.768   0.252  0.00  0.00    -0.097 S 
ATOM     10  C   UNL     1      -1.096  -5.045   0.525  0.00  0.00    +0.081 C 
ATOM     11  C   UNL     1      -2.377  -4.768  -0.263  0.00  0.00    +0.024 C 
ENDROOT
BRANCH   1  16
ATOM     12  C   UNL     1      -0.018   1.503   0.010  0.00  0.00    +0.044 C 
ATOM     13  C   UNL     1       0.002  -0.004   0.002  0.00  0.00    -0.050 A 
ATOM     14  C   UNL     1       0.006  -0.685  -1.204  0.00  0.00    +0.004 A 
ATOM     15  C   UNL     1       0.024  -2.063  -1.222  0.00  0.00    +0.008 A 
ATOM     16  C   UNL     1       0.040  -2.775  -0.013  0.00  0.00    -0.020 A 
ATOM     17  C   UNL     1       0.037  -2.076   1.203  0.00  0.00    +0.008 A 
ATOM     18  C   UNL     1       0.023  -0.699   1.200  0.00  0.00    +0.004 A 
ENDBRANCH   1  16
BRANCH   5  19
ATOM     19  C   UNL     1       4.226  -7.483  -1.966  0.00  0.00    +0.155 C 
BRANCH  19  20
ATOM     20  N   UNL     1       5.332  -6.667  -2.484  0.00  0.00    -0.303 NA
ATOM     21  H   UNL     1       5.008  -6.029  -3.196  0.00  0.00    +0.123 HD
BRANCH  20  22
ATOM     22  C   UNL     1       6.419  -7.514  -2.992  0.00  0.00    +0.081 C 
ATOM     23  C   UNL     1       7.339  -7.910  -1.835  0.00  0.00    +0.029 C 
BRANCH  22  24
ATOM     24  C   UNL     1       7.209  -6.753  -4.025  0.00  0.00    -0.031 A 
ATOM     25  C   UNL     1       7.491  -5.414  -3.830  0.00  0.00    +0.006 A 
ATOM     26  C   UNL     1       8.216  -4.715  -4.777  0.00  0.00    +0.020 A 
ATOM     27  C   UNL     1       8.658  -5.356  -5.921  0.00  0.00    +0.041 A 
ATOM     28  C   UNL     1       8.375  -6.696  -6.115  0.00  0.00    +0.020 A 
ATOM     29  C   UNL     1       7.655  -7.395  -5.165  0.00  0.00    +0.006 A 
ATOM     30 CL   UNL     1       9.568  -4.479  -7.111  0.00  0.00    -0.084 Cl
ENDBRANCH  22  24
ENDBRANCH  20  22
ENDBRANCH  19  20
ENDBRANCH   5  19
TORSDOF 5
