REMARK  Name = ZINC01077377
REMARK  9 active torsions:
REMARK  status: ('A' for Active; 'I' for Inactive)
REMARK    1  A    between atoms: C_1  and  C_2
REMARK    2  A    between atoms: C_2  and  O_3
REMARK    3  A    between atoms: O_3  and  C_4
REMARK    4  A    between atoms: C_7  and  C_12
REMARK    5  A    between atoms: C_9  and  O_10
REMARK    6  A    between atoms: O_10  and  C_11
REMARK    7  A    between atoms: C_17  and  C_27
REMARK    8  A    between atoms: C_30  and  C_36
REMARK    9  A    between atoms: C_31  and  N_33
REMARK                            x       y       z     vdW  Elec       q    Type
REMARK                         _______ _______ _______ _____ _____    ______ ____
ROOT
ATOM      1  C   UNL     1       5.105  -0.470   2.303  0.00  0.00    +0.032 C 
ATOM      2  C   UNL     1       4.426   0.723   1.635  0.00  0.00    +0.059 C 
ATOM      3  C   UNL     1       3.034   0.330   1.164  0.00  0.00    +0.017 C 
ATOM      4  C   UNL     1       2.315  -0.570   1.852  0.00  0.00    +0.036 C 
ATOM      5  C   UNL     1       0.914  -1.028   1.518  0.00  0.00    +0.136 C 
ATOM      6  N   UNL     1       0.449  -0.616   0.210  0.00  0.00    -0.331 N 
ATOM      7  C   UNL     1       0.272   0.730  -0.098  0.00  0.00    +0.049 A 
ATOM      8  C   UNL     1      -0.988   1.251  -0.353  0.00  0.00    +0.025 A 
ATOM      9  C   UNL     1      -1.126   2.604  -0.607  0.00  0.00    +0.002 A 
ATOM     10  C   UNL     1      -0.021   3.435  -0.605  0.00  0.00    +0.002 A 
ATOM     11  C   UNL     1       1.241   2.915  -0.368  0.00  0.00    +0.025 A 
ATOM     12  C   UNL     1       1.383   1.559  -0.136  0.00  0.00    +0.052 A 
ATOM     13  N   UNL     1       2.626   0.959   0.032  0.00  0.00    -0.316 N 
ATOM     14  C   UNL     1       2.857  -1.188   3.003  0.00  0.00    +0.163 C 
ATOM     15  O   UNL     1       2.176  -1.988   3.614  0.00  0.00    -0.292 OA
ATOM     16  C   UNL     1       4.241  -0.892   3.497  0.00  0.00    +0.088 C 
ATOM     17  H   UNL     1       0.259  -1.289  -0.462  0.00  0.00    +0.147 HD
ATOM     18  H   UNL     1       3.246   0.992  -0.713  0.00  0.00    +0.152 HD
ENDROOT
BRANCH   5  19
ATOM     19  C   UNL     1      -0.028  -0.474   2.557  0.00  0.00    -0.021 A 
ATOM     20  C   UNL     1      -0.211   0.892   2.666  0.00  0.00    +0.006 A 
ATOM     21  C   UNL     1      -1.079   1.399   3.615  0.00  0.00    +0.006 A 
ATOM     22  C   UNL     1      -1.754   0.541   4.463  0.00  0.00    -0.020 A 
ATOM     23  C   UNL     1      -1.567  -0.825   4.357  0.00  0.00    +0.129 A 
ATOM     24  C   UNL     1      -0.704  -1.332   3.404  0.00  0.00    +0.038 A 
ATOM     25  C   UNL     1      -2.696   1.094   5.502  0.00  0.00    +0.046 C 
BRANCH  23  26
ATOM     26  N   UNL     1      -2.290  -1.743   5.265  0.00  0.00    +0.057 N 
ATOM     27  O   UNL     1      -2.475  -1.431   6.427  0.00  0.00    -0.126 OA
ATOM     28  O   UNL     1      -2.701  -2.812   4.849  0.00  0.00    -0.126 OA
ENDBRANCH  23  26
ENDBRANCH   5  19
BRANCH   1  32
ATOM     29  C   UNL     1       9.001   0.654   3.663  0.00  0.00    +0.162 A 
ATOM     30  C   UNL     1       7.882   1.333   4.119  0.00  0.00    +0.050 A 
ATOM     31  C   UNL     1       6.624   0.967   3.677  0.00  0.00    +0.008 A 
ATOM     32  C   UNL     1       6.479  -0.076   2.781  0.00  0.00    -0.040 A 
ATOM     33  C   UNL     1       7.590  -0.761   2.326  0.00  0.00    +0.053 A 
ATOM     34  C   UNL     1       8.855  -0.396   2.761  0.00  0.00    +0.162 A 
BRANCH  34  35
ATOM     35  O   UNL     1       9.950  -1.065   2.311  0.00  0.00    -0.491 OA
ATOM     36  C   UNL     1       9.724  -2.131   1.387  0.00  0.00    +0.277 C 
ENDBRANCH  34  35
BRANCH  29  37
ATOM     37  O   UNL     1      10.239   1.012   4.097  0.00  0.00    -0.489 OA
BRANCH  37  39
ATOM     38  C   UNL     1      11.775   2.354   5.393  0.00  0.00    +0.048 C 
ATOM     39  C   UNL     1      10.313   2.098   5.022  0.00  0.00    +0.226 C 
ENDBRANCH  37  39
ENDBRANCH  29  37
ENDBRANCH   1  32
TORSDOF 6
