REMARK  Name = ZINC29488631
REMARK  9 active torsions:
REMARK  status: ('A' for Active; 'I' for Inactive)
REMARK    1  A    between atoms: C_1  and  C_2
REMARK    2  A    between atoms: C_2  and  O_3
REMARK    3  A    between atoms: O_3  and  C_4
REMARK    4  A    between atoms: C_4  and  C_6
REMARK    5  A    between atoms: C_7  and  C_19
REMARK    6  A    between atoms: C_12  and  C_14
REMARK    7  A    between atoms: C_19  and  N_20
REMARK    8  A    between atoms: N_20  and  C_21
REMARK    9  A    between atoms: N_20  and  C_22
REMARK                            x       y       z     vdW  Elec       q    Type
REMARK                         _______ _______ _______ _____ _____    ______ ____
ROOT
ATOM      1  C   UNL     1       0.156   1.583  -0.328  0.00  0.00    +0.079 C 
ATOM      2  C   UNL     1       0.160   0.238  -0.447  0.00  0.00    +0.008 C 
ATOM      3  N   UNL     1       1.323  -0.473  -0.362  0.00  0.00    -0.274 N 
ATOM      4  C   UNL     1       2.522   0.086  -0.160  0.00  0.00    +0.304 C 
ATOM      5  O   UNL     1       3.502  -0.631  -0.098  0.00  0.00    -0.252 OA
ATOM      6  N   UNL     1       2.679   1.417  -0.022  0.00  0.00    -0.285 N 
ATOM      7  C   UNL     1       1.485   2.275  -0.098  0.00  0.00    +0.179 C 
ATOM      8  H   UNL     1       1.306  -1.568  -0.463  0.00  0.00    +0.156 HD
ATOM      9  H   UNL     1       3.669   1.867   0.144  0.00  0.00    +0.151 HD
ENDROOT
BRANCH   7  10
ATOM     10  C   UNL     1       1.387   3.051   1.190  0.00  0.00    +0.130 A 
ATOM     11  C   UNL     1       1.168   4.374   1.297  0.00  0.00    +0.047 A 
ATOM     12  C   UNL     1       1.149   4.676   2.678  0.00  0.00    +0.041 A 
ATOM     13  C   UNL     1       1.367   3.521   3.333  0.00  0.00    +0.195 A 
ATOM     14  O   UNL     1       1.510   2.540   2.426  0.00  0.00    -0.466 OA
ENDBRANCH   7  10
BRANCH   1  15
ATOM     15  C   UNL     1      -1.046   2.322  -0.422  0.00  0.00    +0.339 C 
ATOM     16  O   UNL     1      -2.114   1.742  -0.490  0.00  0.00    -0.245 OA
BRANCH  15  17
ATOM     17  O   UNL     1      -1.010   3.671  -0.436  0.00  0.00    -0.462 OA
BRANCH  17  19
ATOM     18  C   UNL     1      -2.022   5.864  -0.534  0.00  0.00    +0.048 C 
ATOM     19  C   UNL     1      -2.263   4.353  -0.532  0.00  0.00    +0.229 C 
ENDBRANCH  17  19
ENDBRANCH  15  17
ENDBRANCH   1  15
BRANCH   2  20
ATOM     20  C   UNL     1      -1.139  -0.489  -0.677  0.00  0.00    -0.026 C 
BRANCH  20  21
ATOM     21  N   UNL     1      -1.795  -0.741   0.613  0.00  0.00    +0.386 N 
ATOM     22  C   UNL     1      -1.010  -1.676   1.429  0.00  0.00    -0.095 C 
ATOM     23  H   UNL     1      -1.851   0.215   1.155  0.00  0.00    -0.081 HD
BRANCH  21  24
ATOM     24  C   UNL     1      -3.166  -1.232   0.420  0.00  0.00    -0.037 C 
ATOM     25  C   UNL     1      -3.848  -1.465   1.785  0.00  0.00    -0.006 C 
ATOM     26  C   UNL     1      -3.544  -2.953   2.058  0.00  0.00    +0.034 C 
ATOM     27  C   UNL     1      -3.365  -3.578   0.691  0.00  0.00    -0.046 A 
ATOM     28  C   UNL     1      -3.147  -2.589  -0.250  0.00  0.00    -0.058 A 
ATOM     29  C   UNL     1      -2.956  -2.932  -1.578  0.00  0.00    +0.002 A 
ATOM     30  C   UNL     1      -2.982  -4.258  -1.964  0.00  0.00    +0.000 A 
ATOM     31  C   UNL     1      -3.199  -5.246  -1.024  0.00  0.00    +0.000 A 
ATOM     32  C   UNL     1      -3.390  -4.907   0.302  0.00  0.00    +0.004 A 
ENDBRANCH  21  24
ENDBRANCH  20  21
ENDBRANCH   2  20
TORSDOF 7
