REMARK  Name = ZINC38679532
REMARK  6 active torsions:
REMARK  status: ('A' for Active; 'I' for Inactive)
REMARK    1  A    between atoms: C_4  and  C_8
REMARK    2  A    between atoms: C_13  and  O_22
REMARK    3  A    between atoms: C_17  and  N_21
REMARK    4  A    between atoms: C_18  and  C_19
REMARK    5  A    between atoms: O_22  and  C_23
REMARK    6  A    between atoms: C_23  and  C_25
REMARK                            x       y       z     vdW  Elec       q    Type
REMARK                         _______ _______ _______ _____ _____    ______ ____
ROOT
ATOM      1  C   UNL     1       3.676  -0.752  -0.066  0.00  0.00    +0.101 C 
ATOM      2  C   UNL     1       3.789  -1.604   1.171  0.00  0.00    +0.008 A 
ATOM      3  C   UNL     1       4.184  -1.024   2.363  0.00  0.00    +0.012 A 
ATOM      4  C   UNL     1       4.294  -1.790   3.507  0.00  0.00    +0.047 A 
ATOM      5  C   UNL     1       4.008  -3.147   3.462  0.00  0.00    +0.135 A 
ATOM      6  C   UNL     1       3.612  -3.731   2.270  0.00  0.00    +0.093 A 
ATOM      7  C   UNL     1       3.502  -2.959   1.121  0.00  0.00    +0.138 A 
ATOM      8  O   UNL     1       3.114  -3.546  -0.038  0.00  0.00    -0.441 OA
ATOM      9  C   UNL     1       3.366  -2.943  -1.212  0.00  0.00    +0.199 C 
ATOM     10  C   UNL     1       3.639  -1.622  -1.291  0.00  0.00    +0.098 C 
ENDROOT
BRANCH   1  14
ATOM     11  C   UNL     1       0.090   1.564   0.135  0.00  0.00    +0.003 A 
ATOM     12  C   UNL     1       1.317   2.196   0.055  0.00  0.00    +0.020 A 
ATOM     13  C   UNL     1       2.478   1.446  -0.009  0.00  0.00    +0.046 A 
ATOM     14  C   UNL     1       2.411   0.065   0.005  0.00  0.00    +0.002 A 
ATOM     15  C   UNL     1       1.183  -0.567   0.085  0.00  0.00    +0.046 A 
ATOM     16  C   UNL     1       0.022   0.183   0.149  0.00  0.00    +0.020 A 
ATOM     17 CL   UNL     1       1.098  -2.301   0.103  0.00  0.00    -0.083 Cl
ATOM     18 CL   UNL     1       4.019   2.240  -0.110  0.00  0.00    -0.083 Cl
ENDBRANCH   1  14
BRANCH   9  19
ATOM     19  N   UNL     1       3.345  -3.690  -2.363  0.00  0.00    -0.328 N 
ATOM     20  H   UNL     1       3.151  -4.639  -2.321  0.00  0.00    +0.145 HD
ATOM     21  H   UNL     1       3.526  -3.269  -3.218  0.00  0.00    +0.145 HD
ENDBRANCH   9  19
BRANCH  10  22
ATOM     22  C   UNL     1       3.897  -1.039  -2.573  0.00  0.00    +0.101 C 
ATOM     23  N   UNL     1       4.102  -0.577  -3.590  0.00  0.00    -0.191 NA
ENDBRANCH  10  22
BRANCH   5  24
ATOM     24  O   UNL     1       4.116  -3.903   4.587  0.00  0.00    -0.422 OA
BRANCH  24  25
ATOM     25  C   UNL     1       5.111  -4.810   4.647  0.00  0.00    +0.344 C 
ATOM     26  O   UNL     1       5.939  -4.863   3.760  0.00  0.00    -0.245 OA
BRANCH  25  27
ATOM     27  C   UNL     1       5.193  -5.740   5.790  0.00  0.00    +0.060 A 
ATOM     28  C   UNL     1       4.239  -5.686   6.809  0.00  0.00    +0.018 A 
ATOM     29  C   UNL     1       4.321  -6.557   7.873  0.00  0.00    +0.039 A 
ATOM     30  C   UNL     1       5.348  -7.486   7.935  0.00  0.00    +0.123 A 
ATOM     31  C   UNL     1       6.299  -7.544   6.927  0.00  0.00    +0.039 A 
ATOM     32  C   UNL     1       6.223  -6.682   5.854  0.00  0.00    +0.018 A 
ATOM     33  F   UNL     1       5.424  -8.337   8.981  0.00  0.00    -0.205 F 
ENDBRANCH  25  27
ENDBRANCH  24  25
ENDBRANCH   5  24
TORSDOF 6
