REMARK  Name = ZINC46973121
REMARK  8 active torsions:
REMARK  status: ('A' for Active; 'I' for Inactive)
REMARK    1  A    between atoms: C_1  and  C_2
REMARK    2  A    between atoms: C_2  and  C_4
REMARK    3  A    between atoms: C_2  and  N_10
REMARK    4  A    between atoms: N_13  and  N_14
REMARK    5  A    between atoms: C_15  and  C_17
REMARK    6  A    between atoms: C_17  and  C_19
REMARK    7  A    between atoms: C_17  and  O_20
REMARK    8  A    between atoms: O_20  and  C_21
REMARK                            x       y       z     vdW  Elec       q    Type
REMARK                         _______ _______ _______ _____ _____    ______ ____
ROOT
ATOM      1  N   UNL     1      -3.851  -1.733   0.024  0.00  0.00    -0.230 N 
ATOM      2  C   UNL     1      -5.128  -2.164   0.010  0.00  0.00    +0.270 C 
ATOM      3  O   UNL     1      -5.679  -2.461   1.048  0.00  0.00    -0.270 OA
ATOM      4  H   UNL     1      -3.410  -1.495  -0.807  0.00  0.00    +0.173 HD
ENDROOT
BRANCH   1   8
ATOM      5  N   UNL     1      -1.271  -0.867   0.098  0.00  0.00    -0.293 N 
ATOM      6  C   UNL     1      -1.883  -1.197   1.252  0.00  0.00    +0.316 C 
ATOM      7  O   UNL     1      -1.284  -1.106   2.306  0.00  0.00    -0.251 OA
ATOM      8  N   UNL     1      -3.160  -1.628   1.238  0.00  0.00    -0.218 N 
ATOM      9  H   UNL     1      -1.749  -0.940  -0.743  0.00  0.00    +0.151 HD
ATOM     10  H   UNL     1      -3.601  -1.866   2.069  0.00  0.00    +0.174 HD
BRANCH   5  12
ATOM     11  C   UNL     1       0.145   1.106   0.387  0.00  0.00    +0.030 C 
ATOM     12  C   UNL     1       0.117  -0.399   0.113  0.00  0.00    +0.100 C 
BRANCH  12  13
ATOM     13  C   UNL     1       0.766  -0.682  -1.244  0.00  0.00    +0.138 C 
ATOM     14  C   UNL     1       2.262  -0.302  -1.198  0.00  0.00    +0.035 C 
ATOM     15  C   UNL     1       2.484   0.330  -2.599  0.00  0.00    +0.031 C 
ATOM     16  C   UNL     1       1.113   1.012  -2.835  0.00  0.00    +0.160 C 
ATOM     17  O   UNL     1       0.145   0.119  -2.256  0.00  0.00    -0.375 OA
ENDBRANCH  12  13
ENDBRANCH   5  12
ENDBRANCH   1   8
BRANCH   2  18
ATOM     18  C   UNL     1      -5.871  -2.277  -1.296  0.00  0.00    +0.257 C 
ATOM     19  C   UNL     1      -5.212  -3.348  -2.167  0.00  0.00    +0.062 C 
BRANCH  18  20
ATOM     20  O   UNL     1      -7.229  -2.639  -1.042  0.00  0.00    -0.480 OA
BRANCH  20  21
ATOM     21  C   UNL     1      -8.147  -2.294  -1.983  0.00  0.00    +0.122 A 
ATOM     22  C   UNL     1      -7.720  -1.723  -3.186  0.00  0.00    +0.046 A 
ATOM     23  C   UNL     1      -8.614  -1.367  -4.147  0.00  0.00    +0.012 A 
ATOM     24  C   UNL     1      -9.987  -1.576  -3.933  0.00  0.00    -0.018 A 
ATOM     25  C   UNL     1     -10.938  -1.221  -4.905  0.00  0.00    +0.008 A 
ATOM     26  C   UNL     1     -12.260  -1.437  -4.665  0.00  0.00    +0.001 A 
ATOM     27  C   UNL     1     -12.688  -2.007  -3.467  0.00  0.00    +0.001 A 
ATOM     28  C   UNL     1     -11.796  -2.363  -2.503  0.00  0.00    +0.008 A 
ATOM     29  C   UNL     1     -10.422  -2.155  -2.715  0.00  0.00    -0.014 A 
ATOM     30  C   UNL     1      -9.473  -2.516  -1.745  0.00  0.00    +0.054 A 
ENDBRANCH  20  21
ENDBRANCH  18  20
ENDBRANCH   2  18
TORSDOF 6
