REMARK  Name = ZINC00718384
REMARK  8 active torsions:
REMARK  status: ('A' for Active; 'I' for Inactive)
REMARK    1  A    between atoms: C_1  and  C_2
REMARK    2  A    between atoms: C_11  and  C_22
REMARK    3  A    between atoms: C_17  and  N_21
REMARK    4  A    between atoms: C_18  and  C_19
REMARK    5  A    between atoms: C_24  and  O_30
REMARK    6  A    between atoms: C_27  and  O_28
REMARK    7  A    between atoms: O_28  and  C_29
REMARK    8  A    between atoms: O_30  and  C_31
REMARK                            x       y       z     vdW  Elec       q    Type
REMARK                         _______ _______ _______ _____ _____    ______ ____
ROOT
ATOM      1  C   UNL     1      -1.558   0.106  -0.132  0.00  0.00    +0.045 C 
ATOM      2  C   UNL     1      -1.079  -1.315   0.013  0.00  0.00    -0.036 A 
ATOM      3  C   UNL     1      -0.972  -2.110  -1.109  0.00  0.00    +0.006 A 
ATOM      4  C   UNL     1      -0.537  -3.425  -1.039  0.00  0.00    +0.024 A 
ATOM      5  C   UNL     1      -0.208  -3.922   0.223  0.00  0.00    +0.039 A 
ATOM      6  C   UNL     1      -0.323  -3.106   1.355  0.00  0.00    +0.013 A 
ATOM      7  C   UNL     1      -0.750  -1.797   1.277  0.00  0.00    +0.027 A 
ATOM      8 BR   UNL     1      -0.888  -0.708   2.816  0.00  0.00    -0.050 Br
ATOM      9  C   UNL     1       0.098  -3.945   2.519  0.00  0.00    +0.146 C 
ATOM     10  C   UNL     1       1.293  -3.358   3.216  0.00  0.00    +0.066 A 
ATOM     11  C   UNL     1       2.614  -3.236   2.774  0.00  0.00    +0.105 A 
ATOM     12  N   UNL     1       3.311  -2.656   3.732  0.00  0.00    -0.170 NA
ATOM     13  N   UNL     1       2.450  -2.395   4.809  0.00  0.00    -0.246 N 
ATOM     14  H   UNL     1       2.698  -1.974   5.647  0.00  0.00    +0.192 HD
ATOM     15  C   UNL     1       1.219  -2.831   4.474  0.00  0.00    +0.224 A 
ATOM     16  O   UNL     1       0.065  -2.799   5.185  0.00  0.00    -0.423 OA
ATOM     17  C   UNL     1      -0.972  -3.538   4.742  0.00  0.00    +0.201 C 
ATOM     18  C   UNL     1      -1.020  -4.101   3.512  0.00  0.00    +0.110 C 
ATOM     19  C   UNL     1       0.450  -5.285   1.911  0.00  0.00    +0.238 C 
ATOM     20  O   UNL     1       0.842  -6.266   2.505  0.00  0.00    -0.274 OA
ATOM     21  N   UNL     1       0.245  -5.180   0.581  0.00  0.00    -0.284 N 
ATOM     22  H   UNL     1       0.398  -5.901  -0.050  0.00  0.00    +0.155 HD
ENDROOT
BRANCH  11  23
ATOM     23  C   UNL     1       3.139  -3.681   1.459  0.00  0.00    +0.048 A 
ATOM     24  C   UNL     1       2.615  -3.151   0.282  0.00  0.00    +0.059 A 
ATOM     25  C   UNL     1       3.108  -3.569  -0.942  0.00  0.00    +0.121 A 
ATOM     26  C   UNL     1       4.123  -4.514  -0.998  0.00  0.00    +0.049 A 
ATOM     27  C   UNL     1       4.646  -5.044   0.167  0.00  0.00    +0.050 A 
ATOM     28  C   UNL     1       4.164  -4.628   1.397  0.00  0.00    +0.130 A 
BRANCH  28  29
ATOM     29  O   UNL     1       4.684  -5.145   2.542  0.00  0.00    -0.494 OA
ATOM     30  C   UNL     1       5.729  -6.109   2.403  0.00  0.00    +0.277 C 
ENDBRANCH  28  29
BRANCH  25  31
ATOM     31  O   UNL     1       2.598  -3.053  -2.092  0.00  0.00    -0.495 OA
ATOM     32  C   UNL     1       3.153  -3.529  -3.319  0.00  0.00    +0.277 C 
ENDBRANCH  25  31
ENDBRANCH  11  23
BRANCH  17  33
ATOM     33  N   UNL     1      -2.039  -3.729   5.584  0.00  0.00    -0.328 N 
ATOM     34  H   UNL     1      -2.032  -3.338   6.472  0.00  0.00    +0.145 HD
ATOM     35  H   UNL     1      -2.799  -4.256   5.292  0.00  0.00    +0.145 HD
ENDBRANCH  17  33
BRANCH  18  36
ATOM     36  C   UNL     1      -2.172  -4.869   3.145  0.00  0.00    +0.102 C 
ATOM     37  N   UNL     1      -3.086  -5.478   2.853  0.00  0.00    -0.191 NA
ENDBRANCH  18  36
TORSDOF 5
