REMARK  Name = ZINC21163381
REMARK  4 active torsions:
REMARK  status: ('A' for Active; 'I' for Inactive)
REMARK    1  A    between atoms: C_2  and  C_3
REMARK    2  A    between atoms: C_3  and  N_4
REMARK    3  A    between atoms: C_5  and  C_7
REMARK    4  A    between atoms: C_10  and  N_12
REMARK                            x       y       z     vdW  Elec       q    Type
REMARK                         _______ _______ _______ _____ _____    ______ ____
ROOT
ATOM      1  C   UNL     1       2.874   7.841  -0.718  0.00  0.00    +0.076 A 
ATOM      2  C   UNL     1       1.571   7.396  -0.891  0.00  0.00    +0.022 A 
ATOM      3  C   UNL     1       1.327   6.067  -0.670  0.00  0.00    +0.032 A 
ATOM      4  C   UNL     1       2.374   5.256  -0.283  0.00  0.00    +0.073 A 
ATOM      5  S   UNL     1       3.720   6.347  -0.235  0.00  0.00    -0.069 S 
ENDROOT
BRANCH   4   6
ATOM      6  N   UNL     1       2.354   3.898  -0.006  0.00  0.00    -0.288 N 
ATOM      7  C   UNL     1       1.619   3.369   1.155  0.00  0.00    +0.152 C 
ATOM      8  C   UNL     1       2.500   2.295   1.811  0.00  0.00    +0.248 C 
ATOM      9  O   UNL     1       2.787   1.282   0.845  0.00  0.00    -0.489 OA
ATOM     10  C   UNL     1       3.243   1.679  -0.373  0.00  0.00    +0.142 A 
ATOM     11  C   UNL     1       3.035   2.981  -0.822  0.00  0.00    +0.078 A 
ATOM     12  C   UNL     1       3.499   3.371  -2.068  0.00  0.00    +0.047 A 
ATOM     13  C   UNL     1       4.173   2.464  -2.866  0.00  0.00    +0.043 A 
ATOM     14  C   UNL     1       4.388   1.172  -2.419  0.00  0.00    +0.024 A 
ATOM     15  C   UNL     1       3.920   0.777  -1.179  0.00  0.00    +0.049 A 
ATOM     16 CL   UNL     1       4.757   2.949  -4.428  0.00  0.00    -0.083 Cl
ENDBRANCH   4   6
BRANCH   1  18
ATOM     17  N   UNL     1       4.707   9.381  -0.664  0.00  0.00    -0.307 N 
ATOM     18  C   UNL     1       3.398   9.148  -0.883  0.00  0.00    +0.251 C 
ATOM     19  O   UNL     1       2.665  10.059  -1.221  0.00  0.00    -0.270 OA
ATOM     20  H   UNL     1       5.370   8.557  -0.359  0.00  0.00    +0.149 HD
BRANCH  17  21
ATOM     21  C   UNL     1       5.249  10.732  -0.834  0.00  0.00    +0.131 C 
BRANCH  21  23
ATOM     22  C   UNL     1       7.578  11.171  -1.419  0.00  0.00    +0.005 C 
ATOM     23  C   UNL     1       6.725  10.723  -0.532  0.00  0.00    -0.016 C 
ENDBRANCH  21  23
ENDBRANCH  17  21
ENDBRANCH   1  18
TORSDOF 4
