REMARK  Name = ZINC09542146
REMARK  6 active torsions:
REMARK  status: ('A' for Active; 'I' for Inactive)
REMARK    1  A    between atoms: C_1  and  O_2
REMARK    2  A    between atoms: O_2  and  C_3
REMARK    3  A    between atoms: C_7  and  C_10
REMARK    4  A    between atoms: C_8  and  O_9
REMARK    5  A    between atoms: C_13  and  C_24
REMARK    6  A    between atoms: C_15  and  C_17
REMARK                            x       y       z     vdW  Elec       q    Type
REMARK                         _______ _______ _______ _____ _____    ______ ____
ROOT
ATOM      1  C   UNL     1       0.002  -0.004   0.002  0.00  0.00    -0.028 C 
ATOM      2  C   UNL     1      -0.228  -0.532   1.422  0.00  0.00    +0.044 C 
ATOM      3  C   UNL     1       0.104  -1.997   1.472  0.00  0.00    +0.040 C 
ATOM      4  N   UNL     1       0.778  -2.593   0.561  0.00  0.00    -0.299 NA
ATOM      5  C   UNL     1       1.296  -1.938  -0.634  0.00  0.00    +0.081 C 
ATOM      6  N   UNL     1       1.322  -0.478  -0.459  0.00  0.00    +0.401 N 
ATOM      7  H   UNL     1       2.035  -0.231   0.237  0.00  0.00    -0.081 HD
ATOM      8  H   UNL     1       1.549  -0.032  -1.356  0.00  0.00    -0.081 HD
ENDROOT
BRANCH   5   9
ATOM      9  C   UNL     1       0.418  -2.283  -1.809  0.00  0.00    -0.040 A 
ATOM     10  C   UNL     1       0.271  -1.385  -2.849  0.00  0.00    +0.005 A 
ATOM     11  C   UNL     1      -0.530  -1.703  -3.930  0.00  0.00    +0.020 A 
ATOM     12  C   UNL     1      -1.193  -2.917  -3.966  0.00  0.00    +0.041 A 
ATOM     13  C   UNL     1      -1.049  -3.814  -2.922  0.00  0.00    +0.020 A 
ATOM     14  C   UNL     1      -0.244  -3.496  -1.844  0.00  0.00    +0.005 A 
ATOM     15 CL   UNL     1      -2.204  -3.315  -5.319  0.00  0.00    -0.084 Cl
ENDBRANCH   5   9
BRANCH   3  16
ATOM     16  C   UNL     1      -0.368  -2.787   2.625  0.00  0.00    -0.004 A 
ATOM     17  C   UNL     1      -1.101  -2.171   3.643  0.00  0.00    +0.011 A 
ATOM     18  C   UNL     1      -1.546  -2.915   4.715  0.00  0.00    +0.020 A 
ATOM     19  C   UNL     1      -1.256  -4.268   4.791  0.00  0.00    +0.041 A 
ATOM     20  C   UNL     1      -0.525  -4.882   3.788  0.00  0.00    +0.020 A 
ATOM     21  C   UNL     1      -0.080  -4.150   2.708  0.00  0.00    +0.011 A 
ATOM     22 CL   UNL     1      -1.814  -5.196   6.148  0.00  0.00    -0.084 Cl
ENDBRANCH   3  16
BRANCH   1  27
ATOM     23  C   UNL     1      -1.243   3.571   0.033  0.00  0.00    +0.161 A 
ATOM     24  C   UNL     1      -0.049   4.274   0.025  0.00  0.00    +0.049 A 
ATOM     25  C   UNL     1       1.154   3.593   0.010  0.00  0.00    +0.004 A 
ATOM     26  C   UNL     1       1.169   2.210   0.003  0.00  0.00    +0.006 A 
ATOM     27  C   UNL     1      -0.018   1.503   0.010  0.00  0.00    -0.016 A 
ATOM     28  C   UNL     1      -1.228   2.179   0.020  0.00  0.00    +0.160 A 
BRANCH  23  30
ATOM     29  C   UNL     1      -2.366   5.667   0.055  0.00  0.00    +0.277 C 
ATOM     30  O   UNL     1      -2.427   4.239   0.048  0.00  0.00    -0.491 OA
ENDBRANCH  23  30
BRANCH  28  31
ATOM     31  O   UNL     1      -2.397   1.485   0.022  0.00  0.00    -0.503 OA
ATOM     32  H   UNL     1      -2.731   1.280   0.906  0.00  0.00    +0.292 HD
ENDBRANCH  28  31
ENDBRANCH   1  27
TORSDOF 5
