REMARK  Name = ZINC07767635
REMARK  6 active torsions:
REMARK  status: ('A' for Active; 'I' for Inactive)
REMARK    1  A    between atoms: C_1  and  C_2
REMARK    2  A    between atoms: C_2  and  C_4
REMARK    3  A    between atoms: C_2  and  N_14
REMARK    4  A    between atoms: C_15  and  C_17
REMARK    5  A    between atoms: C_17  and  O_18
REMARK    6  A    between atoms: O_18  and  C_19
REMARK                            x       y       z     vdW  Elec       q    Type
REMARK                         _______ _______ _______ _____ _____    ______ ____
ROOT
ATOM      1  N   UNL     1       1.163   1.928   0.063  0.00  0.00    -0.306 N 
ATOM      2  C   UNL     1      -0.009   1.265   0.136  0.00  0.00    +0.251 C 
ATOM      3  O   UNL     1      -0.020   0.052   0.137  0.00  0.00    -0.272 OA
ATOM      4  H   UNL     1       1.172   2.898   0.062  0.00  0.00    +0.149 HD
ENDROOT
BRANCH   1   6
ATOM      5  C   UNL     1       2.914   0.865   1.398  0.00  0.00    +0.033 C 
ATOM      6  C   UNL     1       2.422   1.183  -0.015  0.00  0.00    +0.101 C 
BRANCH   6   7
ATOM      7  C   UNL     1       3.454   2.016  -0.731  0.00  0.00    -0.020 A 
ATOM      8  C   UNL     1       3.375   3.374  -0.705  0.00  0.00    +0.006 A 
ATOM      9  C   UNL     1       4.320   4.160  -1.361  0.00  0.00    +0.001 A 
ATOM     10  C   UNL     1       5.351   3.593  -2.046  0.00  0.00    +0.008 A 
ATOM     11  C   UNL     1       5.466   2.193  -2.094  0.00  0.00    -0.018 A 
ATOM     12  C   UNL     1       4.507   1.394  -1.423  0.00  0.00    -0.013 A 
ATOM     13  C   UNL     1       4.625  -0.006  -1.466  0.00  0.00    +0.009 A 
ATOM     14  C   UNL     1       5.659  -0.574  -2.146  0.00  0.00    +0.001 A 
ATOM     15  C   UNL     1       6.604   0.213  -2.802  0.00  0.00    +0.001 A 
ATOM     16  C   UNL     1       6.516   1.571  -2.790  0.00  0.00    +0.008 A 
ENDBRANCH   6   7
ENDBRANCH   1   6
BRANCH   2  17
ATOM     17  C   UNL     1      -1.304   2.031   0.210  0.00  0.00    +0.324 C 
BRANCH  17  18
ATOM     18  O   UNL     1      -2.397   1.113   0.273  0.00  0.00    -0.483 OA
BRANCH  18  19
ATOM     19  C   UNL     1      -3.645   1.643   0.344  0.00  0.00    +0.125 A 
ATOM     20  C   UNL     1      -3.807   3.027   0.358  0.00  0.00    +0.046 A 
ATOM     21  C   UNL     1      -5.055   3.576   0.423  0.00  0.00    +0.015 A 
ATOM     22  C   UNL     1      -6.178   2.744   0.488  0.00  0.00    +0.018 A 
ATOM     23  C   UNL     1      -7.529   3.305   0.565  0.00  0.00    +0.018 A 
ATOM     24  C   UNL     1      -8.579   2.445   0.626  0.00  0.00    +0.092 A 
ATOM     25  C   UNL     1      -8.347   1.054   0.613  0.00  0.00    +0.337 A 
ATOM     26  O   UNL     1      -9.297   0.294   0.667  0.00  0.00    -0.245 OA
ATOM     27  O   UNL     1      -7.107   0.546   0.542  0.00  0.00    -0.422 OA
ATOM     28  C   UNL     1      -6.020   1.346   0.480  0.00  0.00    +0.143 A 
ATOM     29  C   UNL     1      -4.745   0.805   0.407  0.00  0.00    +0.092 A 
ENDBRANCH  18  19
ENDBRANCH  17  18
ENDBRANCH   2  17
TORSDOF 5
