REMARK  Name = ZINC49183285
REMARK  10 active torsions:
REMARK  status: ('A' for Active; 'I' for Inactive)
REMARK    1  A    between atoms: C_1  and  C_2
REMARK    2  A    between atoms: C_5  and  C_7
REMARK    3  A    between atoms: C_7  and  C_9
REMARK    4  A    between atoms: C_7  and  N_10
REMARK    5  A    between atoms: N_10  and  C_11
REMARK    6  A    between atoms: C_11  and  C_12
REMARK    7  A    between atoms: C_12  and  C_14
REMARK    8  A    between atoms: C_12  and  O_23
REMARK    9  A    between atoms: C_14  and  O_15
REMARK   10  A    between atoms: O_15  and  C_16
REMARK                            x       y       z     vdW  Elec       q    Type
REMARK                         _______ _______ _______ _____ _____    ______ ____
ROOT
ATOM      1  C   UNL     1       2.653  -5.532  -1.027  0.00  0.00    -0.047 C 
ENDROOT
BRANCH   1   2
ATOM      2  N   UNL     1       2.205  -4.137  -0.923  0.00  0.00    +0.385 N 
ATOM      3  H   UNL     1       1.946  -3.798  -1.837  0.00  0.00    -0.085 HD
ATOM      4  H   UNL     1       2.952  -3.570  -0.553  0.00  0.00    -0.085 HD
BRANCH   2   5
ATOM      5  C   UNL     1       1.043  -4.062  -0.027  0.00  0.00    -0.037 C 
ATOM      6  C   UNL     1       1.465  -4.458   1.389  0.00  0.00    -0.008 C 
BRANCH   5  11
ATOM      7  C   UNL     1      -0.018   1.503   0.010  0.00  0.00    +0.051 C 
ATOM      8  C   UNL     1       0.002  -0.004   0.002  0.00  0.00    -0.013 A 
ATOM      9  C   UNL     1      -1.039  -0.872   0.002  0.00  0.00    +0.011 A 
ATOM     10  C   UNL     1      -0.780  -2.230  -0.007  0.00  0.00    +0.010 A 
ATOM     11  C   UNL     1       0.507  -2.653  -0.016  0.00  0.00    -0.024 A 
ATOM     12  S   UNL     1       1.404  -1.109  -0.018  0.00  0.00    -0.100 S 
ENDBRANCH   5  11
ENDBRANCH   2   5
ENDBRANCH   1   2
BRANCH   1  13
ATOM     13  C   UNL     1       3.863  -5.610  -1.960  0.00  0.00    +0.135 C 
BRANCH  13  14
ATOM     14  O   UNL     1       3.497  -5.130  -3.256  0.00  0.00    -0.390 OA
ATOM     15  H   UNL     1       2.782  -5.629  -3.673  0.00  0.00    +0.210 HD
ENDBRANCH  13  14
BRANCH  13  16
ATOM     16  C   UNL     1       4.330  -7.063  -2.069  0.00  0.00    +0.258 C 
BRANCH  16  17
ATOM     17  O   UNL     1       5.528  -7.122  -2.846  0.00  0.00    -0.489 OA
BRANCH  17  18
ATOM     18  C   UNL     1       6.079  -8.349  -3.039  0.00  0.00    +0.121 A 
ATOM     19  C   UNL     1       5.475  -9.474  -2.497  0.00  0.00    +0.047 A 
ATOM     20  C   UNL     1       6.037 -10.721  -2.695  0.00  0.00    +0.019 A 
ATOM     21  C   UNL     1       7.200 -10.848  -3.433  0.00  0.00    +0.018 A 
ATOM     22  C   UNL     1       7.804  -9.727  -3.974  0.00  0.00    +0.019 A 
ATOM     23  C   UNL     1       7.242  -8.479  -3.784  0.00  0.00    +0.047 A 
ATOM     24 BR   UNL     1       7.966 -12.555  -3.703  0.00  0.00    -0.050 Br
ENDBRANCH  17  18
ENDBRANCH  16  17
ENDBRANCH  13  16
ENDBRANCH   1  13
TORSDOF 8
