REMARK  Name = ZINC05514941
REMARK  7 active torsions:
REMARK  status: ('A' for Active; 'I' for Inactive)
REMARK    1  A    between atoms: C_1  and  O_2
REMARK    2  A    between atoms: O_2  and  C_3
REMARK    3  A    between atoms: C_7  and  C_11
REMARK    4  A    between atoms: C_8  and  O_9
REMARK    5  A    between atoms: O_9  and  C_10
REMARK    6  A    between atoms: C_11  and  N_12
REMARK    7  A    between atoms: C_24  and  O_29
REMARK                            x       y       z     vdW  Elec       q    Type
REMARK                         _______ _______ _______ _____ _____    ______ ____
ROOT
ATOM      1  N   UNL     1       2.059  -0.067  -1.118  0.00  0.00    -0.280 N 
ATOM      2  C   UNL     1       0.998  -0.672  -0.558  0.00  0.00    +0.136 C 
ATOM      3  S   UNL     1       0.957  -2.384  -0.518  0.00  0.00    -0.019 S 
ATOM      4  N   UNL     1      -0.030   0.008  -0.030  0.00  0.00    -0.320 N 
ATOM      5  C   UNL     1      -0.056   1.473  -0.022  0.00  0.00    +0.041 C 
ATOM      6  C   UNL     1      -0.796   1.966   1.222  0.00  0.00    +0.026 C 
ATOM      7  C   UNL     1      -2.232   1.439   1.203  0.00  0.00    +0.002 C 
ATOM      8  C   UNL     1      -2.946   1.947  -0.052  0.00  0.00    +0.000 C 
ATOM      9  C   UNL     1      -2.204   1.452  -1.295  0.00  0.00    +0.002 C 
ATOM     10  C   UNL     1      -0.768   1.980  -1.276  0.00  0.00    +0.026 C 
ATOM     11  C   UNL     1       1.383   1.993  -0.003  0.00  0.00    +0.063 C 
ATOM     12  C   UNL     1       2.129   1.391  -1.200  0.00  0.00    +0.139 C 
ATOM     13  C   UNL     1       3.582   1.863  -1.168  0.00  0.00    +0.055 C 
ATOM     14  C   UNL     1       3.618   3.390  -1.273  0.00  0.00    +0.004 C 
ATOM     15  C   UNL     1       2.851   4.005  -0.102  0.00  0.00    +0.001 C 
ATOM     16  C   UNL     1       1.399   3.517  -0.118  0.00  0.00    +0.010 C 
ATOM     17  H   UNL     1      -0.774  -0.481   0.355  0.00  0.00    +0.148 HD
ENDROOT
BRANCH  12  18
ATOM     18  O   UNL     1       1.514   1.829  -2.414  0.00  0.00    -0.371 OA
ATOM     19  H   UNL     1       1.973   1.539  -3.214  0.00  0.00    +0.212 HD
ENDBRANCH  12  18
BRANCH   1  20
ATOM     20  C   UNL     1       3.157  -0.876  -1.652  0.00  0.00    +0.148 C 
BRANCH  20  25
ATOM     21  C   UNL     1       2.792  -0.888  -5.420  0.00  0.00    +0.162 A 
ATOM     22  C   UNL     1       2.205  -2.125  -5.631  0.00  0.00    +0.049 A 
ATOM     23  C   UNL     1       1.929  -2.952  -4.558  0.00  0.00    +0.004 A 
ATOM     24  C   UNL     1       2.242  -2.549  -3.273  0.00  0.00    +0.009 A 
ATOM     25  C   UNL     1       2.822  -1.314  -3.055  0.00  0.00    +0.015 A 
ATOM     26  C   UNL     1       3.102  -0.480  -4.126  0.00  0.00    +0.166 A 
BRANCH  21  28
ATOM     27  C   UNL     1       2.718  -0.557  -7.774  0.00  0.00    +0.277 C 
ATOM     28  O   UNL     1       3.063  -0.073  -6.474  0.00  0.00    -0.491 OA
ENDBRANCH  21  28
BRANCH  26  29
ATOM     29  O   UNL     1       3.677   0.734  -3.913  0.00  0.00    -0.491 OA
ATOM     30  C   UNL     1       5.098   0.809  -4.038  0.00  0.00    +0.277 C 
ENDBRANCH  26  29
ENDBRANCH  20  25
ENDBRANCH   1  20
TORSDOF 5
