REMARK  Name = ZINC06441839
REMARK  7 active torsions:
REMARK  status: ('A' for Active; 'I' for Inactive)
REMARK    1  A    between atoms: C_1  and  C_2
REMARK    2  A    between atoms: C_7  and  C_15
REMARK    3  A    between atoms: C_13  and  C_14
REMARK    4  A    between atoms: C_15  and  C_17
REMARK    5  A    between atoms: C_15  and  N_69
REMARK    6  A    between atoms: N_21  and  C_22
REMARK    7  A    between atoms: N_29  and  C_32
REMARK                            x       y       z     vdW  Elec       q    Type
REMARK                         _______ _______ _______ _____ _____    ______ ____
ROOT
ATOM      1  C   UNL     1      -1.237   2.190   0.020  0.00  0.00    +0.039 C 
ENDROOT
BRANCH   1   8
ATOM      2  C   UNL     1      -4.159   1.271   7.385  0.00  0.00    +0.044 C 
ATOM      3  C   UNL     1      -3.437   1.300   6.062  0.00  0.00    -0.046 A 
ATOM      4  C   UNL     1      -2.272   0.563   5.899  0.00  0.00    +0.004 A 
ATOM      5  C   UNL     1      -1.602   0.575   4.709  0.00  0.00    +0.010 A 
ATOM      6  C   UNL     1      -2.094   1.337   3.644  0.00  0.00    -0.001 A 
ATOM      7  C   UNL     1      -1.401   1.373   2.355  0.00  0.00    +0.017 A 
ATOM      8  C   UNL     1      -1.925   2.130   1.359  0.00  0.00    +0.011 A 
ATOM      9  C   UNL     1      -3.109   2.867   1.575  0.00  0.00    +0.251 A 
ATOM     10  O   UNL     1      -3.560   3.545   0.667  0.00  0.00    -0.268 OA
ATOM     11  N   UNL     1      -3.756   2.836   2.753  0.00  0.00    -0.322 N 
ATOM     12  H   UNL     1      -4.569   3.352   2.866  0.00  0.00    +0.169 HD
ATOM     13  C   UNL     1      -3.275   2.086   3.805  0.00  0.00    +0.052 A 
ATOM     14  C   UNL     1      -3.941   2.057   5.027  0.00  0.00    -0.024 A 
ATOM     15  C   UNL     1      -5.207   2.852   5.217  0.00  0.00    +0.046 C 
ENDBRANCH   1   8
BRANCH   1  21
ATOM     16  C   UNL     1      -2.642   0.358  -0.712  0.00  0.00    -0.058 C 
ATOM     17  C   UNL     1      -3.651  -0.074  -1.778  0.00  0.00    +0.086 C 
ATOM     18  N   UNL     1      -3.008  -0.042  -3.099  0.00  0.00    -0.333 N 
ATOM     19  C   UNL     1      -2.519   1.308  -3.410  0.00  0.00    +0.086 C 
ATOM     20  C   UNL     1      -1.509   1.741  -2.344  0.00  0.00    -0.058 C 
ATOM     21  N   UNL     1      -2.175   1.725  -1.024  0.00  0.00    +0.391 N 
ATOM     22  H   UNL     1      -2.984   2.357  -1.051  0.00  0.00    -0.080 HD
BRANCH  18  23
ATOM     23  C   UNL     1      -3.880  -0.500  -4.092  0.00  0.00    +0.030 A 
ATOM     24  C   UNL     1      -4.176   0.306  -5.183  0.00  0.00    +0.026 A 
ATOM     25  C   UNL     1      -5.034  -0.151  -6.165  0.00  0.00    +0.040 A 
ATOM     26  C   UNL     1      -5.606  -1.407  -6.056  0.00  0.00    +0.124 A 
ATOM     27  C   UNL     1      -5.315  -2.211  -4.967  0.00  0.00    +0.040 A 
ATOM     28  C   UNL     1      -4.454  -1.760  -3.985  0.00  0.00    +0.026 A 
ATOM     29  F   UNL     1      -6.448  -1.850  -7.016  0.00  0.00    -0.205 F 
ENDBRANCH  18  23
ENDBRANCH   1  21
BRANCH   1  30
ATOM     30  C   UNL     1      -0.006   1.320   0.049  0.00  0.00    +0.143 A 
ATOM     31  N   UNL     1       0.028   0.011   0.003  0.00  0.00    -0.115 NA
ATOM     32  N   UNL     1       1.262  -0.357   0.044  0.00  0.00    -0.023 NA
ATOM     33  N   UNL     1       2.016   0.684   0.116  0.00  0.00    -0.044 NA
ATOM     34  N   UNL     1       1.271   1.738   0.120  0.00  0.00    -0.227 N 
BRANCH  34  35
ATOM     35  C   UNL     1       1.730   3.127   0.191  0.00  0.00    +0.111 C 
ATOM     36  C   UNL     1       2.680   3.430  -0.986  0.00  0.00    +0.027 C 
ATOM     37  C   UNL     1       3.752   4.369  -0.376  0.00  0.00    +0.002 C 
ATOM     38  C   UNL     1       3.955   3.781   1.042  0.00  0.00    +0.002 C 
ATOM     39  C   UNL     1       2.540   3.351   1.480  0.00  0.00    +0.027 C 
ENDBRANCH  34  35
ENDBRANCH   1  30
TORSDOF 5
