REMARK  Name = ZINC40344152
REMARK  10 active torsions:
REMARK  status: ('A' for Active; 'I' for Inactive)
REMARK    1  A    between atoms: C_1  and  C_2
REMARK    2  A    between atoms: C_2  and  C_3
REMARK    3  A    between atoms: C_6  and  C_9
REMARK    4  A    between atoms: C_12  and  C_29
REMARK    5  A    between atoms: N_19  and  C_20
REMARK    6  A    between atoms: C_20  and  C_21
REMARK    7  A    between atoms: C_24  and  O_27
REMARK    8  A    between atoms: O_27  and  C_28
REMARK    9  A    between atoms: C_32  and  O_35
REMARK   10  A    between atoms: O_35  and  C_36
REMARK                            x       y       z     vdW  Elec       q    Type
REMARK                         _______ _______ _______ _____ _____    ______ ____
ROOT
ATOM      1  C   UNL     1      -5.419  -2.005   0.043  0.00  0.00    +0.142 C 
ATOM      2  C   UNL     1      -6.388  -0.883  -0.215  0.00  0.00    +0.035 A 
ATOM      3  C   UNL     1      -6.905   0.347   0.202  0.00  0.00    +0.099 A 
ATOM      4  N   UNL     1      -7.828   0.704  -0.670  0.00  0.00    -0.173 NA
ATOM      5  N   UNL     1      -7.944  -0.180  -1.597  0.00  0.00    -0.272 N 
ATOM      6  H   UNL     1      -8.560  -0.127  -2.343  0.00  0.00    +0.189 HD
ATOM      7  C   UNL     1      -7.069  -1.205  -1.374  0.00  0.00    +0.126 A 
ATOM      8  C   UNL     1      -6.569  -2.494  -1.866  0.00  0.00    +0.266 C 
ATOM      9  O   UNL     1      -6.966  -3.055  -2.869  0.00  0.00    -0.268 OA
ATOM     10  N   UNL     1      -5.610  -2.969  -1.049  0.00  0.00    -0.281 N 
ENDROOT
BRANCH   1  14
ATOM     11  C   UNL     1      -1.412  -0.526   0.013  0.00  0.00    -0.048 A 
ATOM     12  C   UNL     1      -2.051  -0.766   1.215  0.00  0.00    +0.004 A 
ATOM     13  C   UNL     1      -3.348  -1.244   1.225  0.00  0.00    +0.006 A 
ATOM     14  C   UNL     1      -4.006  -1.482   0.032  0.00  0.00    -0.022 A 
ATOM     15  C   UNL     1      -3.367  -1.241  -1.170  0.00  0.00    +0.006 A 
ATOM     16  C   UNL     1      -2.072  -0.758  -1.179  0.00  0.00    +0.004 A 
BRANCH  11  18
ATOM     17  C   UNL     1      -0.019   1.526   0.010  0.00  0.00    +0.009 C 
ATOM     18  C   UNL     1       0.002  -0.004   0.002  0.00  0.00    +0.032 C 
ENDBRANCH  11  18
ENDBRANCH   1  14
BRANCH   3  19
ATOM     19  C   UNL     1      -6.493   1.112   1.406  0.00  0.00    +0.003 A 
ATOM     20  C   UNL     1      -6.119   0.437   2.566  0.00  0.00    +0.013 A 
ATOM     21  C   UNL     1      -5.735   1.150   3.683  0.00  0.00    +0.046 A 
ATOM     22  C   UNL     1      -5.722   2.537   3.652  0.00  0.00    +0.120 A 
ATOM     23  C   UNL     1      -6.095   3.212   2.498  0.00  0.00    +0.046 A 
ATOM     24  C   UNL     1      -6.473   2.505   1.376  0.00  0.00    +0.013 A 
BRANCH  22  25
ATOM     25  O   UNL     1      -5.345   3.237   4.755  0.00  0.00    -0.495 OA
ATOM     26  C   UNL     1      -5.354   4.662   4.653  0.00  0.00    +0.277 C 
ENDBRANCH  22  25
ENDBRANCH   3  19
BRANCH  10  27
ATOM     27  C   UNL     1      -4.881  -4.228  -1.219  0.00  0.00    +0.144 C 
BRANCH  27  28
ATOM     28  C   UNL     1      -5.618  -5.335  -0.509  0.00  0.00    -0.030 A 
ATOM     29  C   UNL     1      -5.337  -5.612   0.816  0.00  0.00    +0.009 A 
ATOM     30  C   UNL     1      -6.011  -6.626   1.469  0.00  0.00    +0.046 A 
ATOM     31  C   UNL     1      -6.971  -7.366   0.794  0.00  0.00    +0.120 A 
ATOM     32  C   UNL     1      -7.252  -7.085  -0.536  0.00  0.00    +0.046 A 
ATOM     33  C   UNL     1      -6.579  -6.067  -1.182  0.00  0.00    +0.009 A 
BRANCH  31  34
ATOM     34  O   UNL     1      -7.635  -8.364   1.433  0.00  0.00    -0.495 OA
ATOM     35  C   UNL     1      -8.610  -9.084   0.676  0.00  0.00    +0.277 C 
ENDBRANCH  31  34
ENDBRANCH  27  28
ENDBRANCH  10  27
TORSDOF 7
