REMARK  Name = ZINC40346637
REMARK  8 active torsions:
REMARK  status: ('A' for Active; 'I' for Inactive)
REMARK    1  A    between atoms: C_1  and  C_2
REMARK    2  A    between atoms: C_2  and  N_3
REMARK    3  A    between atoms: N_3  and  C_4
REMARK    4  A    between atoms: N_3  and  S_11
REMARK    5  A    between atoms: C_4  and  C_5
REMARK    6  A    between atoms: S_11  and  C_14
REMARK    7  A    between atoms: C_16  and  N_21
REMARK    8  A    between atoms: C_19  and  C_20
REMARK                            x       y       z     vdW  Elec       q    Type
REMARK                         _______ _______ _______ _____ _____    ______ ____
ROOT
ATOM      1  S   UNL     1      -2.128  -0.772   1.633  0.00  0.00    +0.061 S 
ATOM      2  O   UNL     1      -3.105  -1.742   1.279  0.00  0.00    -0.153 OA
ATOM      3  O   UNL     1      -1.192  -0.981   2.681  0.00  0.00    -0.153 OA
ENDROOT
BRANCH   1   4
ATOM      4  C   UNL     1      -3.005   0.705   2.028  0.00  0.00    +0.110 A 
ATOM      5  C   UNL     1      -2.688   1.410   3.172  0.00  0.00    +0.051 A 
ATOM      6  C   UNL     1      -3.379   2.574   3.482  0.00  0.00    +0.026 A 
ATOM      7  C   UNL     1      -4.387   3.025   2.640  0.00  0.00    +0.023 A 
ATOM      8  C   UNL     1      -4.699   2.315   1.497  0.00  0.00    +0.007 A 
ATOM      9  C   UNL     1      -4.005   1.159   1.189  0.00  0.00    -0.024 A 
ATOM     10  C   UNL     1      -4.345   0.390  -0.062  0.00  0.00    +0.046 C 
BRANCH   6  11
ATOM     11  N   UNL     1      -3.061   3.290   4.639  0.00  0.00    -0.358 N 
ATOM     12  H   UNL     1      -2.357   2.974   5.227  0.00  0.00    +0.142 HD
ATOM     13  H   UNL     1      -3.544   4.103   4.855  0.00  0.00    +0.142 HD
ENDBRANCH   6  11
ENDBRANCH   1   4
BRANCH   1  14
ATOM     14  N   UNL     1      -1.247  -0.467   0.265  0.00  0.00    -0.172 NA
BRANCH  14  16
ATOM     15  C   UNL     1      -0.562   1.845  -0.141  0.00  0.00    +0.022 C 
ATOM     16  C   UNL     1      -0.111   0.457   0.316  0.00  0.00    +0.106 C 
ENDBRANCH  14  16
BRANCH  14  17
ATOM     17  C   UNL     1      -1.603  -1.122  -0.997  0.00  0.00    +0.151 C 
BRANCH  17  18
ATOM     18  C   UNL     1      -0.769  -2.365  -1.170  0.00  0.00    +0.007 A 
ATOM     19  C   UNL     1      -1.036  -3.633  -0.774  0.00  0.00    +0.014 A 
ATOM     20  C   UNL     1      -0.114  -4.628  -1.044  0.00  0.00    +0.028 A 
ATOM     21  C   UNL     1       1.030  -4.304  -1.697  0.00  0.00    +0.078 A 
ATOM     22  S   UNL     1       0.822  -2.550  -1.959  0.00  0.00    -0.080 S 
ATOM     23 CL   UNL     1       2.350  -5.330  -2.165  0.00  0.00    -0.076 Cl
ENDBRANCH  17  18
ENDBRANCH  14  17
ENDBRANCH   1  14
TORSDOF 6
