REMARK  Name = ZINC16063513
REMARK  9 active torsions:
REMARK  status: ('A' for Active; 'I' for Inactive)
REMARK    1  A    between atoms: C_1  and  C_2
REMARK    2  A    between atoms: C_6  and  C_28
REMARK    3  A    between atoms: C_7  and  O_8
REMARK    4  A    between atoms: O_8  and  C_9
REMARK    5  A    between atoms: C_9  and  C_11
REMARK    6  A    between atoms: C_9  and  C_12
REMARK    7  A    between atoms: N_14  and  N_15
REMARK    8  A    between atoms: C_16  and  C_18
REMARK    9  A    between atoms: C_19  and  C_27
REMARK                            x       y       z     vdW  Elec       q    Type
REMARK                         _______ _______ _______ _____ _____    ______ ____
ROOT
ATOM      1  C   UNL     1      -1.049  -0.086   4.005  0.00  0.00    +0.270 C 
ATOM      2  O   UNL     1       0.035  -0.221   4.532  0.00  0.00    -0.270 OA
ATOM      3  N   UNL     1      -2.166  -0.066   4.759  0.00  0.00    -0.231 N 
ATOM      4  H   UNL     1      -3.033   0.042   4.338  0.00  0.00    +0.173 HD
ENDROOT
BRANCH   3   5
ATOM      5  N   UNL     1      -2.075  -0.200   6.151  0.00  0.00    -0.228 N 
ATOM      6  C   UNL     1      -3.192  -0.180   6.904  0.00  0.00    +0.296 C 
ATOM      7  O   UNL     1      -4.280  -0.045   6.376  0.00  0.00    -0.265 OA
ATOM      8  H   UNL     1      -1.208  -0.308   6.572  0.00  0.00    +0.173 HD
BRANCH   6   9
ATOM      9  C   UNL     1      -3.097  -0.321   8.364  0.00  0.00    +0.195 A 
ATOM     10  C   UNL     1      -4.151  -0.321   9.220  0.00  0.00    +0.008 A 
ATOM     11  C   UNL     1      -3.586  -0.486  10.559  0.00  0.00    +0.024 A 
ATOM     12  C   UNL     1      -4.131  -0.563  11.843  0.00  0.00    +0.012 A 
ATOM     13  C   UNL     1      -3.306  -0.723  12.920  0.00  0.00    +0.001 A 
ATOM     14  C   UNL     1      -1.931  -0.811  12.746  0.00  0.00    +0.004 A 
ATOM     15  C   UNL     1      -1.374  -0.737  11.488  0.00  0.00    +0.047 A 
ATOM     16  C   UNL     1      -2.194  -0.574  10.377  0.00  0.00    +0.136 A 
ATOM     17  O   UNL     1      -1.948  -0.477   9.056  0.00  0.00    -0.450 OA
ATOM     18  C   UNL     1      -5.608  -0.178   8.863  0.00  0.00    +0.048 C 
ENDBRANCH   6   9
ENDBRANCH   3   5
BRANCH   1  19
ATOM     19  C   UNL     1      -1.147   0.059   2.509  0.00  0.00    +0.257 C 
ATOM     20  C   UNL     1      -1.683   1.450   2.165  0.00  0.00    +0.062 C 
BRANCH  19  21
ATOM     21  O   UNL     1       0.148  -0.110   1.928  0.00  0.00    -0.479 OA
BRANCH  21  28
ATOM     22  C   UNL     1       0.141  -2.934   1.892  0.00  0.00    +0.047 C 
ATOM     23  C   UNL     1       0.205  -2.106   0.635  0.00  0.00    -0.007 A 
ATOM     24  C   UNL     1       0.257  -2.725  -0.599  0.00  0.00    +0.027 A 
ATOM     25  C   UNL     1       0.316  -1.965  -1.754  0.00  0.00    +0.042 A 
ATOM     26  C   UNL     1       0.323  -0.584  -1.675  0.00  0.00    +0.027 A 
ATOM     27  C   UNL     1       0.270   0.039  -0.443  0.00  0.00    -0.007 A 
ATOM     28  C   UNL     1       0.205  -0.721   0.715  0.00  0.00    +0.127 A 
ATOM     29  C   UNL     1       0.278   1.544  -0.358  0.00  0.00    +0.047 C 
ATOM     30 CL   UNL     1       0.383  -2.746  -3.303  0.00  0.00    -0.084 Cl
ENDBRANCH  21  28
ENDBRANCH  19  21
ENDBRANCH   1  19
TORSDOF 5
