REMARK  Name = ZINC21126970
REMARK  9 active torsions:
REMARK  status: ('A' for Active; 'I' for Inactive)
REMARK    1  A    between atoms: N_9  and  C_27
REMARK    2  A    between atoms: C_10  and  S_12
REMARK    3  A    between atoms: S_12  and  C_13
REMARK    4  A    between atoms: C_13  and  C_14
REMARK    5  A    between atoms: N_16  and  C_17
REMARK    6  A    between atoms: C_20  and  S_23
REMARK    7  A    between atoms: S_23  and  N_26
REMARK    8  A    between atoms: C_27  and  C_28
REMARK    9  A    between atoms: C_28  and  C_29
REMARK                            x       y       z     vdW  Elec       q    Type
REMARK                         _______ _______ _______ _____ _____    ______ ____
ROOT
ATOM      1  C   UNL     1       3.590  -1.452  -5.218  0.00  0.00    +0.001 A 
ATOM      2  C   UNL     1       3.862  -1.636  -3.869  0.00  0.00    +0.002 A 
ATOM      3  C   UNL     1       3.067  -1.079  -2.908  0.00  0.00    +0.028 A 
ATOM      4  C   UNL     1       1.962  -0.310  -3.285  0.00  0.00    +0.079 A 
ATOM      5  C   UNL     1       1.687  -0.124  -4.659  0.00  0.00    +0.065 A 
ATOM      6  C   UNL     1       2.516  -0.705  -5.618  0.00  0.00    +0.015 A 
ATOM      7  C   UNL     1       0.520   0.688  -5.030  0.00  0.00    +0.262 A 
ATOM      8  O   UNL     1       0.233   0.883  -6.197  0.00  0.00    -0.267 OA
ATOM      9  N   UNL     1      -0.223   1.209  -4.027  0.00  0.00    -0.287 N 
ATOM     10  C   UNL     1       0.115   0.979  -2.723  0.00  0.00    +0.173 A 
ATOM     11  N   UNL     1       1.153   0.262  -2.370  0.00  0.00    -0.223 NA
ENDROOT
BRANCH  10  12
ATOM     12  S   UNL     1      -0.889   1.683  -1.458  0.00  0.00    -0.078 S 
BRANCH  12  13
ATOM     13  C   UNL     1      -0.016   1.080   0.008  0.00  0.00    +0.173 C 
BRANCH  13  14
ATOM     14  C   UNL     1      -0.717   1.573   1.248  0.00  0.00    +0.227 C 
ATOM     15  O   UNL     1      -1.709   2.264   1.150  0.00  0.00    -0.275 OA
ATOM     16  N   UNL     1      -0.242   1.246   2.466  0.00  0.00    -0.285 N 
ATOM     17  H   UNL     1       0.612   0.558   2.557  0.00  0.00    +0.155 HD
BRANCH  16  18
ATOM     18  C   UNL     1      -0.833   1.782   3.615  0.00  0.00    +0.034 A 
ATOM     19  C   UNL     1      -0.052   2.086   4.722  0.00  0.00    +0.025 A 
ATOM     20  C   UNL     1      -0.639   2.621   5.853  0.00  0.00    +0.030 A 
ATOM     21  C   UNL     1      -2.003   2.842   5.887  0.00  0.00    +0.105 A 
ATOM     22  C   UNL     1      -2.784   2.535   4.788  0.00  0.00    +0.030 A 
ATOM     23  C   UNL     1      -2.203   2.006   3.652  0.00  0.00    +0.025 A 
BRANCH  21  24
ATOM     24  S   UNL     1      -2.748   3.518   7.334  0.00  0.00    +0.056 S 
ATOM     25  O   UNL     1      -1.728   4.226   8.023  0.00  0.00    -0.153 OA
ATOM     26  O   UNL     1      -3.957   4.137   6.917  0.00  0.00    -0.153 OA
BRANCH  24  27
ATOM     27  N   UNL     1      -3.178   2.245   8.303  0.00  0.00    -0.204 NA
ATOM     28  H   UNL     1      -3.649   2.627   9.221  0.00  0.00    +0.144 HD
ATOM     29  H   UNL     1      -2.282   1.664   8.564  0.00  0.00    +0.144 HD
ENDBRANCH  24  27
ENDBRANCH  21  24
ENDBRANCH  16  18
ENDBRANCH  13  14
ENDBRANCH  12  13
ENDBRANCH  10  12
BRANCH   9  30
ATOM     30  C   UNL     1      -1.397   2.027  -4.340  0.00  0.00    +0.131 C 
BRANCH  30  31
ATOM     31  C   UNL     1      -0.981   3.495  -4.453  0.00  0.00    +0.052 C 
BRANCH  31  32
ATOM     32  C   UNL     1      -2.189   4.336  -4.776  0.00  0.00    -0.072 C 
ATOM     33  C   UNL     1      -2.817   4.898  -3.793  0.00  0.00    -0.028 C 
ATOM     34  C   UNL     1      -4.039   5.754  -3.956  0.00  0.00    +0.027 C 
ATOM     35  C   UNL     1      -4.175   6.207  -5.412  0.00  0.00    +0.004 C 
ATOM     36  C   UNL     1      -4.029   4.978  -6.318  0.00  0.00    +0.005 C 
ATOM     37  C   UNL     1      -2.586   4.474  -6.216  0.00  0.00    +0.030 C 
ENDBRANCH  31  32
ENDBRANCH  30  31
ENDBRANCH   9  30
TORSDOF 9
