REMARK  Name = ZINC58880931
REMARK  12 active torsions:
REMARK  status: ('A' for Active; 'I' for Inactive)
REMARK    1  A    between atoms: C_1  and  C_2
REMARK    2  A    between atoms: C_2  and  C_3
REMARK    3  A    between atoms: C_2  and  C_4
REMARK    4  A    between atoms: C_7  and  N_10
REMARK    5  A    between atoms: C_11  and  C_13
REMARK    6  A    between atoms: N_15  and  N_16
REMARK    7  A    between atoms: C_17  and  C_18
REMARK    8  A    between atoms: C_21  and  O_24
REMARK    9  A    between atoms: O_24  and  C_25
REMARK   10  A    between atoms: C_25  and  C_26
REMARK   11  A    between atoms: N_28  and  C_29
REMARK   12  A    between atoms: C_29  and  C_30
REMARK                            x       y       z     vdW  Elec       q    Type
REMARK                         _______ _______ _______ _____ _____    ______ ____
ROOT
ATOM      1  N   UNL     1      -9.032  -4.173  -2.142  0.00  0.00    -0.187 NA
ATOM      2  C   UNL     1      -9.485  -4.843  -3.159  0.00  0.00    +0.138 C 
ENDROOT
BRANCH   2   3
ATOM      3  C   UNL     1     -10.898  -5.258  -3.197  0.00  0.00    -0.005 A 
ATOM      4  C   UNL     1     -11.755  -4.927  -2.143  0.00  0.00    +0.013 A 
ATOM      5  C   UNL     1     -13.075  -5.318  -2.183  0.00  0.00    +0.046 A 
ATOM      6  C   UNL     1     -13.556  -6.040  -3.268  0.00  0.00    +0.121 A 
ATOM      7  C   UNL     1     -12.708  -6.371  -4.318  0.00  0.00    +0.046 A 
ATOM      8  C   UNL     1     -11.387  -5.979  -4.290  0.00  0.00    +0.013 A 
BRANCH   6   9
ATOM      9  O   UNL     1     -14.858  -6.423  -3.303  0.00  0.00    -0.483 OA
BRANCH   9  10
ATOM     10  C   UNL     1     -15.287  -7.162  -4.449  0.00  0.00    +0.324 C 
BRANCH  10  11
ATOM     11  C   UNL     1     -16.749  -7.498  -4.312  0.00  0.00    +0.251 C 
ATOM     12  O   UNL     1     -17.365  -7.139  -3.330  0.00  0.00    -0.272 OA
ATOM     13  N   UNL     1     -17.374  -8.197  -5.281  0.00  0.00    -0.310 N 
ATOM     14  H   UNL     1     -16.882  -8.484  -6.066  0.00  0.00    +0.149 HD
BRANCH  13  15
ATOM     15  C   UNL     1     -18.796  -8.522  -5.148  0.00  0.00    +0.135 C 
BRANCH  15  16
ATOM     16  C   UNL     1     -19.254  -9.314  -6.374  0.00  0.00    +0.135 C 
ATOM     17  C   UNL     1     -20.777  -9.558  -6.301  0.00  0.00    +0.035 C 
ATOM     18  C   UNL     1     -20.905 -11.010  -6.837  0.00  0.00    +0.031 C 
ATOM     19  C   UNL     1     -19.594 -11.638  -6.300  0.00  0.00    +0.160 C 
ATOM     20  O   UNL     1     -18.610 -10.593  -6.395  0.00  0.00    -0.375 OA
ENDBRANCH  15  16
ENDBRANCH  13  15
ENDBRANCH  10  11
ENDBRANCH   9  10
ENDBRANCH   6   9
ENDBRANCH   2   3
BRANCH   1  23
ATOM     21  C   UNL     1      -7.218  -3.083  -1.051  0.00  0.00    +0.318 C 
ATOM     22  O   UNL     1      -7.960  -2.799  -0.132  0.00  0.00    -0.263 OA
ATOM     23  N   UNL     1      -7.688  -3.778  -2.106  0.00  0.00    -0.199 N 
ATOM     24  H   UNL     1      -7.096  -4.005  -2.840  0.00  0.00    +0.178 HD
BRANCH  21  26
ATOM     25  N   UNL     1      -5.318  -1.968   0.043  0.00  0.00    -0.278 N 
ATOM     26  C   UNL     1      -5.788  -2.663  -1.012  0.00  0.00    +0.305 C 
ATOM     27  O   UNL     1      -5.047  -2.946  -1.931  0.00  0.00    -0.265 OA
ATOM     28  H   UNL     1      -5.889  -1.807   0.810  0.00  0.00    +0.155 HD
BRANCH  25  32
ATOM     29  C   UNL     1      -1.417  -0.511   0.005  0.00  0.00    -0.045 A 
ATOM     30  C   UNL     1      -1.990  -0.918   1.196  0.00  0.00    +0.006 A 
ATOM     31  C   UNL     1      -3.284  -1.401   1.212  0.00  0.00    +0.023 A 
ATOM     32  C   UNL     1      -4.010  -1.478   0.030  0.00  0.00    +0.034 A 
ATOM     33  C   UNL     1      -3.431  -1.069  -1.165  0.00  0.00    +0.023 A 
ATOM     34  C   UNL     1      -2.139  -0.581  -1.173  0.00  0.00    +0.006 A 
BRANCH  29  36
ATOM     35  C   UNL     1       0.088   1.248   0.893  0.00  0.00    +0.012 C 
ATOM     36  C   UNL     1      -0.005   0.016  -0.009  0.00  0.00    +0.013 C 
ATOM     37  C   UNL     1       0.948  -1.065   0.504  0.00  0.00    +0.012 C 
ENDBRANCH  29  36
ENDBRANCH  25  32
ENDBRANCH  21  26
ENDBRANCH   1  23
TORSDOF 10
