REMARK  Name = ZINC62825405
REMARK  6 active torsions:
REMARK  status: ('A' for Active; 'I' for Inactive)
REMARK    1  A    between atoms: C_1  and  C_2
REMARK    2  A    between atoms: C_2  and  C_4
REMARK    3  A    between atoms: C_2  and  C_6
REMARK    4  A    between atoms: C_4  and  N_5
REMARK    5  A    between atoms: N_8  and  C_9
REMARK    6  A    between atoms: C_10  and  C_17
REMARK                            x       y       z     vdW  Elec       q    Type
REMARK                         _______ _______ _______ _____ _____    ______ ____
ROOT
ATOM      1  C   UNL     1      -1.579   0.082  -0.083  0.00  0.00    +0.218 C 
ATOM      2  O   UNL     1      -2.124  -0.064  -1.156  0.00  0.00    -0.275 OA
ATOM      3  N   UNL     1      -2.232  -0.235   1.053  0.00  0.00    -0.284 N 
ATOM      4  H   UNL     1      -1.770  -0.195   1.905  0.00  0.00    +0.155 HD
ENDROOT
BRANCH   3   5
ATOM      5  C   UNL     1      -3.569  -0.620   1.003  0.00  0.00    +0.062 A 
ATOM      6  C   UNL     1      -4.523   0.038   1.797  0.00  0.00    +0.086 A 
ATOM      7  C   UNL     1      -5.862  -0.358   1.736  0.00  0.00    +0.032 A 
ATOM      8  C   UNL     1      -6.238  -1.389   0.902  0.00  0.00    +0.020 A 
ATOM      9  C   UNL     1      -5.293  -2.036   0.120  0.00  0.00    +0.032 A 
ATOM     10  C   UNL     1      -3.967  -1.652   0.164  0.00  0.00    +0.041 A 
ATOM     11 BR   UNL     1      -2.691  -2.539  -0.913  0.00  0.00    -0.048 Br
ATOM     12 BR   UNL     1      -8.050  -1.923   0.823  0.00  0.00    -0.050 Br
BRANCH   6  13
ATOM     13  C   UNL     1      -4.115   1.137   2.686  0.00  0.00    +0.388 C 
ATOM     14  O   UNL     1      -4.928   1.639   3.451  0.00  0.00    -0.241 OA
ATOM     15  O   UNL     1      -2.963   1.550   2.661  0.00  0.00    -0.241 OA
ENDBRANCH   6  13
ENDBRANCH   3   5
BRANCH   1  17
ATOM     16  C   UNL     1      -0.155   1.915   0.791  0.00  0.00    +0.015 C 
ATOM     17  C   UNL     1      -0.171   0.617  -0.018  0.00  0.00    +0.055 C 
BRANCH  17  18
ATOM     18  C   UNL     1       0.334   0.894  -1.436  0.00  0.00    -0.074 C 
BRANCH  18  19
ATOM     19  N   UNL     1       1.744   1.301  -1.382  0.00  0.00    +0.379 N 
ATOM     20  H   UNL     1       2.078   1.483  -2.317  0.00  0.00    -0.090 HD
ATOM     21  H   UNL     1       1.832   2.137  -0.824  0.00  0.00    -0.090 HD
ATOM     22  H   UNL     1       2.292   0.561  -0.968  0.00  0.00    -0.090 HD
ENDBRANCH  18  19
ENDBRANCH  17  18
ENDBRANCH   1  17
TORSDOF 5
