REMARK  Name = ZINC06904592
REMARK  11 active torsions:
REMARK  status: ('A' for Active; 'I' for Inactive)
REMARK    1  A    between atoms: C_1  and  O_2
REMARK    2  A    between atoms: O_2  and  C_3
REMARK    3  A    between atoms: C_3  and  C_4
REMARK    4  A    between atoms: C_4  and  C_5
REMARK    5  A    between atoms: C_5  and  N_6
REMARK    6  A    between atoms: C_15  and  S_16
REMARK    7  A    between atoms: S_16  and  C_17
REMARK    8  A    between atoms: C_17  and  C_18
REMARK    9  A    between atoms: N_20  and  N_21
REMARK   10  A    between atoms: C_22  and  C_24
REMARK   11  A    between atoms: C_28  and  O_30
REMARK                            x       y       z     vdW  Elec       q    Type
REMARK                         _______ _______ _______ _____ _____    ______ ____
ROOT
ATOM      1  N   UNL     1      -1.183   1.883   0.018  0.00  0.00    -0.287 N 
ATOM      2  C   UNL     1      -0.015   1.215   0.009  0.00  0.00    +0.263 A 
ATOM      3  O   UNL     1       0.002  -0.004   0.002  0.00  0.00    -0.267 OA
ATOM      4  C   UNL     1       1.208   1.958   0.001  0.00  0.00    +0.076 A 
ATOM      5  C   UNL     1       2.584   1.436  -0.014  0.00  0.00    -0.023 A 
ATOM      6  C   UNL     1       3.576   2.341  -0.021  0.00  0.00    -0.004 A 
ATOM      7  S   UNL     1       2.760   3.920  -0.005  0.00  0.00    -0.073 S 
ATOM      8  C   UNL     1       1.079   3.354   0.009  0.00  0.00    +0.117 A 
ATOM      9  N   UNL     1      -0.106   3.954   0.024  0.00  0.00    -0.216 NA
ATOM     10  C   UNL     1      -1.218   3.247   0.030  0.00  0.00    +0.173 A 
ATOM     11  C   UNL     1       4.935   1.694  -0.042  0.00  0.00    +0.043 C 
ATOM     12  C   UNL     1       4.665   0.238  -0.481  0.00  0.00    +0.010 C 
ATOM     13  C   UNL     1       3.208   0.038  -0.020  0.00  0.00    +0.037 C 
ENDROOT
BRANCH   1  14
ATOM     14  C   UNL     1      -2.441   1.131   0.020  0.00  0.00    +0.129 C 
BRANCH  14  15
ATOM     15  C   UNL     1      -2.872   0.862   1.463  0.00  0.00    +0.050 C 
BRANCH  15  16
ATOM     16  C   UNL     1      -4.185   0.077   1.465  0.00  0.00    +0.161 C 
BRANCH  16  18
ATOM     17  C   UNL     1      -5.810  -0.906   2.928  0.00  0.00    +0.193 C 
ATOM     18  O   UNL     1      -4.588  -0.174   2.813  0.00  0.00    -0.383 OA
ENDBRANCH  16  18
ENDBRANCH  15  16
ENDBRANCH  14  15
ENDBRANCH   1  14
BRANCH  10  19
ATOM     19  S   UNL     1      -2.773   4.076   0.049  0.00  0.00    -0.078 S 
BRANCH  19  20
ATOM     20  C   UNL     1      -2.213   5.797   0.053  0.00  0.00    +0.174 C 
BRANCH  20  21
ATOM     21  C   UNL     1      -3.408   6.714   0.069  0.00  0.00    +0.239 C 
ATOM     22  O   UNL     1      -4.529   6.250   0.077  0.00  0.00    -0.273 OA
ATOM     23  N   UNL     1      -3.232   8.050   0.074  0.00  0.00    -0.233 N 
ATOM     24  H   UNL     1      -2.336   8.421   0.068  0.00  0.00    +0.173 HD
BRANCH  23  25
ATOM     25  N   UNL     1      -4.343   8.903   0.089  0.00  0.00    -0.230 N 
ATOM     26  C   UNL     1      -4.167  10.240   0.094  0.00  0.00    +0.260 C 
ATOM     27  O   UNL     1      -3.044  10.705   0.086  0.00  0.00    -0.269 OA
ATOM     28  H   UNL     1      -5.239   8.533   0.095  0.00  0.00    +0.173 HD
BRANCH  26  29
ATOM     29  C   UNL     1      -5.340  11.140   0.110  0.00  0.00    +0.042 A 
ATOM     30  C   UNL     1      -6.630  10.609   0.114  0.00  0.00    +0.013 A 
ATOM     31  C   UNL     1      -7.723  11.452   0.133  0.00  0.00    +0.004 A 
ATOM     32  C   UNL     1      -7.543  12.823   0.139  0.00  0.00    +0.045 A 
ATOM     33  C   UNL     1      -6.263  13.360   0.130  0.00  0.00    +0.118 A 
ATOM     34  C   UNL     1      -5.160  12.523   0.116  0.00  0.00    +0.058 A 
BRANCH  33  35
ATOM     35  O   UNL     1      -6.093  14.709   0.136  0.00  0.00    -0.507 OA
ATOM     36  H   UNL     1      -6.052  15.104  -0.746  0.00  0.00    +0.292 HD
ENDBRANCH  33  35
ENDBRANCH  26  29
ENDBRANCH  23  25
ENDBRANCH  20  21
ENDBRANCH  19  20
ENDBRANCH  10  19
TORSDOF 10
