REMARK  Name = ZINC36049144
REMARK  11 active torsions:
REMARK  status: ('A' for Active; 'I' for Inactive)
REMARK    1  A    between atoms: C_1  and  C_2
REMARK    2  A    between atoms: C_2  and  C_3
REMARK    3  A    between atoms: C_2  and  C_4
REMARK    4  A    between atoms: C_4  and  N_5
REMARK    5  A    between atoms: C_6  and  C_8
REMARK    6  A    between atoms: N_11  and  C_22
REMARK    7  A    between atoms: C_13  and  C_15
REMARK    8  A    between atoms: C_22  and  N_24
REMARK    9  A    between atoms: N_24  and  C_25
REMARK   10  A    between atoms: C_25  and  C_26
REMARK   11  A    between atoms: C_25  and  C_27
REMARK                            x       y       z     vdW  Elec       q    Type
REMARK                         _______ _______ _______ _____ _____    ______ ____
ROOT
ATOM      1  C   UNL     1      -2.558  -4.183  -0.262  0.00  0.00    +0.101 C 
ATOM      2  C   UNL     1      -1.864  -4.830   0.956  0.00  0.00    +0.120 C 
ATOM      3  N   UNL     1      -2.623  -6.042   1.297  0.00  0.00    -0.311 N 
ATOM      4  C   UNL     1      -3.733  -6.190   0.339  0.00  0.00    +0.115 C 
ATOM      5  C   UNL     1      -3.997  -4.757  -0.192  0.00  0.00    +0.050 C 
ENDROOT
BRANCH   5   6
ATOM      6  C   UNL     1      -4.631  -4.791  -1.559  0.00  0.00    -0.042 A 
ATOM      7  C   UNL     1      -4.053  -5.535  -2.570  0.00  0.00    +0.007 A 
ATOM      8  C   UNL     1      -4.634  -5.567  -3.824  0.00  0.00    +0.038 A 
ATOM      9  C   UNL     1      -5.796  -4.854  -4.067  0.00  0.00    +0.123 A 
ATOM     10  C   UNL     1      -6.374  -4.110  -3.053  0.00  0.00    +0.038 A 
ATOM     11  C   UNL     1      -5.794  -4.083  -1.799  0.00  0.00    +0.007 A 
ATOM     12  F   UNL     1      -6.364  -4.885  -5.292  0.00  0.00    -0.205 F 
ENDBRANCH   5   6
BRANCH   1  14
ATOM     13  N   UNL     1      -1.416  -1.993  -0.116  0.00  0.00    -0.315 N 
ATOM     14  C   UNL     1      -2.575  -2.682  -0.130  0.00  0.00    +0.218 C 
ATOM     15  O   UNL     1      -3.631  -2.093  -0.036  0.00  0.00    -0.275 OA
ATOM     16  H   UNL     1      -0.572  -2.463  -0.190  0.00  0.00    +0.149 HD
BRANCH  13  17
ATOM     17  C   UNL     1      -1.433  -0.534   0.013  0.00  0.00    +0.107 C 
BRANCH  17  19
ATOM     18  C   UNL     1      -0.019   1.526   0.010  0.00  0.00    +0.009 C 
ATOM     19  C   UNL     1       0.002  -0.004   0.002  0.00  0.00    -0.000 C 
ATOM     20  C   UNL     1       0.742  -0.511   1.242  0.00  0.00    +0.009 C 
ENDBRANCH  17  19
ENDBRANCH  13  17
ENDBRANCH   1  14
BRANCH   3  21
ATOM     21  C   UNL     1      -2.349  -6.879   2.317  0.00  0.00    +0.133 C 
ATOM     22  S   UNL     1      -3.333  -8.255   2.583  0.00  0.00    -0.019 S 
BRANCH  21  23
ATOM     23  N   UNL     1      -1.300  -6.634   3.127  0.00  0.00    -0.324 N 
ATOM     24  H   UNL     1      -0.743  -5.854   2.976  0.00  0.00    +0.148 HD
BRANCH  23  25
ATOM     25  C   UNL     1      -1.002  -7.544   4.236  0.00  0.00    +0.066 C 
ATOM     26  C   UNL     1      -0.148  -8.706   3.726  0.00  0.00    +0.027 C 
ATOM     27  C   UNL     1      -0.237  -6.788   5.324  0.00  0.00    +0.027 C 
ENDBRANCH  23  25
ENDBRANCH  21  23
ENDBRANCH   3  21
TORSDOF 7
