REMARK  Name = ZINC59364925
REMARK  8 active torsions:
REMARK  status: ('A' for Active; 'I' for Inactive)
REMARK    1  A    between atoms: C_3  and  N_29
REMARK    2  A    between atoms: C_6  and  C_7
REMARK    3  A    between atoms: C_7  and  S_8
REMARK    4  A    between atoms: S_8  and  C_9
REMARK    5  A    between atoms: C_14  and  N_18
REMARK    6  A    between atoms: C_19  and  C_21
REMARK    7  A    between atoms: C_21  and  S_22
REMARK    8  A    between atoms: S_22  and  C_23
REMARK                            x       y       z     vdW  Elec       q    Type
REMARK                         _______ _______ _______ _____ _____    ______ ____
ROOT
ATOM      1  C   UNL     1      -3.320  -2.000  -1.537  0.00  0.00    +0.136 A 
ATOM      2  N   UNL     1      -3.934  -2.364  -0.434  0.00  0.00    -0.233 NA
ATOM      3  C   UNL     1      -5.098  -3.051  -0.444  0.00  0.00    +0.080 A 
ATOM      4  C   UNL     1      -5.855  -3.499   0.663  0.00  0.00    +0.031 A 
ATOM      5  C   UNL     1      -7.024  -4.189   0.481  0.00  0.00    +0.025 A 
ATOM      6  C   UNL     1      -7.510  -4.473  -0.794  0.00  0.00    +0.035 A 
ATOM      7  C   UNL     1      -6.790  -4.046  -1.902  0.00  0.00    +0.040 A 
ATOM      8  C   UNL     1      -5.618  -3.355  -1.723  0.00  0.00    +0.042 A 
ATOM      9  S   UNL     1      -4.409  -2.632  -2.806  0.00  0.00    -0.061 S 
ENDROOT
BRANCH   6  10
ATOM     10  N   UNL     1      -8.708  -5.180  -0.955  0.00  0.00    -0.285 N 
ATOM     11  C   UNL     1      -9.531  -4.886  -1.982  0.00  0.00    +0.227 C 
ATOM     12  O   UNL     1      -9.196  -4.069  -2.813  0.00  0.00    -0.275 OA
ATOM     13  H   UNL     1      -8.946  -5.881  -0.329  0.00  0.00    +0.155 HD
BRANCH  11  14
ATOM     14  C   UNL     1     -10.867  -5.573  -2.096  0.00  0.00    +0.172 C 
BRANCH  14  15
ATOM     15  S   UNL     1     -11.734  -4.967  -3.571  0.00  0.00    -0.088 S 
BRANCH  15  16
ATOM     16  C   UNL     1     -13.257  -5.853  -3.564  0.00  0.00    +0.160 A 
ATOM     17  N   UNL     1     -13.700  -6.748  -2.701  0.00  0.00    -0.133 NA
ATOM     18  N   UNL     1     -14.935  -7.324  -2.887  0.00  0.00    -0.125 NA
ATOM     19  C   UNL     1     -15.671  -6.979  -3.925  0.00  0.00    +0.180 A 
ATOM     20  S   UNL     1     -14.618  -5.774  -4.718  0.00  0.00    -0.025 S 
ATOM     21  N   UNL     1     -16.931  -7.430  -4.300  0.00  0.00    -0.336 N 
ATOM     22  H   UNL     1     -17.390  -8.093  -3.761  0.00  0.00    +0.144 HD
ATOM     23  H   UNL     1     -17.353  -7.080  -5.101  0.00  0.00    +0.144 HD
ENDBRANCH  15  16
ENDBRANCH  14  15
ENDBRANCH  11  14
ENDBRANCH   6  10
BRANCH   1  24
ATOM     24  S   UNL     1      -1.811  -1.109  -1.720  0.00  0.00    -0.094 S 
BRANCH  24  25
ATOM     25  C   UNL     1      -1.272  -0.805  -0.015  0.00  0.00    +0.111 C 
BRANCH  25  31
ATOM     26  C   UNL     1       0.014   1.343  -0.025  0.00  0.00    +0.007 A 
ATOM     27  C   UNL     1       1.204   2.045  -0.036  0.00  0.00    +0.033 A 
ATOM     28  C   UNL     1       2.408   1.365  -0.051  0.00  0.00    +0.126 A 
ATOM     29  C   UNL     1       2.420  -0.018  -0.053  0.00  0.00    +0.033 A 
ATOM     30  C   UNL     1       1.230  -0.720  -0.040  0.00  0.00    +0.007 A 
ATOM     31  C   UNL     1       0.026  -0.039  -0.027  0.00  0.00    -0.037 A 
BRANCH  28  32
ATOM     32  N   UNL     1       3.683   2.116  -0.064  0.00  0.00    +0.056 N 
ATOM     33  O   UNL     1       3.672   3.325  -0.062  0.00  0.00    -0.126 OA
ATOM     34  O   UNL     1       4.735   1.522  -0.076  0.00  0.00    -0.126 OA
ENDBRANCH  28  32
ENDBRANCH  25  31
ENDBRANCH  24  25
ENDBRANCH   1  24
TORSDOF 8
