REMARK  Name = ZINC24878829
REMARK  9 active torsions:
REMARK  status: ('A' for Active; 'I' for Inactive)
REMARK    1  A    between atoms: C_1  and  C_2
REMARK    2  A    between atoms: C_5  and  C_8
REMARK    3  A    between atoms: C_8  and  C_10
REMARK    4  A    between atoms: C_8  and  N_15
REMARK    5  A    between atoms: C_16  and  C_18
REMARK    6  A    between atoms: C_18  and  O_19
REMARK    7  A    between atoms: O_19  and  C_20
REMARK    8  A    between atoms: C_22  and  C_29
REMARK    9  A    between atoms: C_25  and  C_26
REMARK                            x       y       z     vdW  Elec       q    Type
REMARK                         _______ _______ _______ _____ _____    ______ ____
ROOT
ATOM      1  N   UNL     1       3.424   1.737  -0.909  0.00  0.00    -0.301 N 
ATOM      2  C   UNL     1       4.436   1.056  -1.482  0.00  0.00    +0.251 C 
ATOM      3  O   UNL     1       4.574  -0.128  -1.258  0.00  0.00    -0.272 OA
ATOM      4  H   UNL     1       3.300   2.811  -1.112  0.00  0.00    +0.150 HD
ENDROOT
BRANCH   1   5
ATOM      5  C   UNL     1       2.490   1.048  -0.016  0.00  0.00    +0.140 C 
BRANCH   5  10
ATOM      6  C   UNL     1      -2.553   3.869   0.047  0.00  0.00    +0.044 C 
ATOM      7  C   UNL     1      -1.238   3.133   0.030  0.00  0.00    -0.050 A 
ATOM      8  C   UNL     1      -1.219   1.751   0.017  0.00  0.00    +0.004 A 
ATOM      9  C   UNL     1      -0.013   1.076   0.008  0.00  0.00    +0.006 A 
ATOM     10  C   UNL     1       1.175   1.783   0.000  0.00  0.00    -0.022 A 
ATOM     11  C   UNL     1       1.156   3.165   0.008  0.00  0.00    +0.006 A 
ATOM     12  C   UNL     1      -0.050   3.840   0.022  0.00  0.00    +0.004 A 
ENDBRANCH   5  10
BRANCH   5  13
ATOM     13  C   UNL     1       3.062   1.010   1.377  0.00  0.00    +0.014 A 
ATOM     14  C   UNL     1       3.030   0.006   2.287  0.00  0.00    +0.013 A 
ATOM     15  C   UNL     1       3.631   0.195   3.517  0.00  0.00    +0.008 A 
ATOM     16  C   UNL     1       4.227   1.384   3.781  0.00  0.00    +0.045 A 
ATOM     17  S   UNL     1       3.953   2.280   2.262  0.00  0.00    -0.099 S 
ENDBRANCH   5  13
ENDBRANCH   1   5
BRANCH   2  18
ATOM     18  C   UNL     1       5.397   1.766  -2.401  0.00  0.00    +0.324 C 
BRANCH  18  19
ATOM     19  O   UNL     1       6.373   0.838  -2.878  0.00  0.00    -0.482 OA
BRANCH  19  20
ATOM     20  C   UNL     1       7.319   1.319  -3.723  0.00  0.00    +0.134 A 
ATOM     21  C   UNL     1       7.309   2.656  -4.092  0.00  0.00    +0.049 A 
ATOM     22  C   UNL     1       8.275   3.145  -4.948  0.00  0.00    -0.047 A 
ATOM     23  C   UNL     1       9.255   2.305  -5.452  0.00  0.00    +0.004 A 
ATOM     24  C   UNL     1       9.277   0.973  -5.101  0.00  0.00    +0.017 A 
ATOM     25  C   UNL     1       8.309   0.466  -4.231  0.00  0.00    +0.078 A 
ATOM     26  C   UNL     1       8.261   4.600  -5.341  0.00  0.00    +0.044 C 
BRANCH  25  27
ATOM     27  C   UNL     1       8.327  -0.959  -3.850  0.00  0.00    +0.245 C 
ATOM     28  O   UNL     1       7.482  -1.397  -3.093  0.00  0.00    -0.270 OA
ATOM     29  N   UNL     1       9.280  -1.776  -4.342  0.00  0.00    -0.325 N 
ATOM     30  H   UNL     1       9.293  -2.839  -4.058  0.00  0.00    +0.145 HD
ATOM     31  H   UNL     1      10.044  -1.380  -5.027  0.00  0.00    +0.145 HD
ENDBRANCH  25  27
ENDBRANCH  19  20
ENDBRANCH  18  19
ENDBRANCH   2  18
TORSDOF 7
