REMARK  Name = ZINC59046856
REMARK  7 active torsions:
REMARK  status: ('A' for Active; 'I' for Inactive)
REMARK    1  A    between atoms: C_4  and  C_7
REMARK    2  A    between atoms: C_7  and  C_8
REMARK    3  A    between atoms: C_8  and  C_9
REMARK    4  A    between atoms: C_12  and  S_15
REMARK    5  A    between atoms: N_13  and  N_14
REMARK    6  A    between atoms: S_15  and  C_16
REMARK    7  A    between atoms: C_16  and  C_17
REMARK                            x       y       z     vdW  Elec       q    Type
REMARK                         _______ _______ _______ _____ _____    ______ ____
ROOT
ATOM      1  C   UNL     1       5.487  -1.699   1.381  0.00  0.00    +0.151 A 
ATOM      2  N   UNL     1       5.648  -2.992   1.368  0.00  0.00    -0.132 NA
ATOM      3  N   UNL     1       6.900  -3.280   1.354  0.00  0.00    -0.121 NA
ATOM      4  C   UNL     1       7.612  -2.177   1.359  0.00  0.00    +0.209 A 
ATOM      5  N   UNL     1       6.731  -1.133   1.371  0.00  0.00    -0.228 N 
ENDROOT
BRANCH   5   6
ATOM      6  N   UNL     1       7.032   0.199   1.375  0.00  0.00    -0.295 N 
ATOM      7  H   UNL     1       7.122   0.547   2.318  0.00  0.00    +0.163 HD
ATOM      8  H   UNL     1       7.868   0.383   0.841  0.00  0.00    +0.163 HD
ENDBRANCH   5   6
BRANCH   1   9
ATOM      9  C   UNL     1       4.171  -0.963   1.399  0.00  0.00    +0.082 C 
BRANCH   9  10
ATOM     10  C   UNL     1       3.711  -0.707  -0.038  0.00  0.00    +0.043 C 
BRANCH  10  14
ATOM     11  C   UNL     1      -0.017   1.378   0.010  0.00  0.00    +0.000 A 
ATOM     12  C   UNL     1       1.171   2.086   0.002  0.00  0.00    +0.000 A 
ATOM     13  C   UNL     1       2.377   1.411  -0.013  0.00  0.00    +0.003 A 
ATOM     14  C   UNL     1       2.396   0.029  -0.020  0.00  0.00    -0.047 A 
ATOM     15  C   UNL     1       1.208  -0.679  -0.012  0.00  0.00    +0.003 A 
ATOM     16  C   UNL     1       0.002  -0.004   0.002  0.00  0.00    +0.000 A 
ENDBRANCH  10  14
ENDBRANCH   9  10
ENDBRANCH   1   9
BRANCH   4  17
ATOM     17  S   UNL     1       9.370  -2.064   1.345  0.00  0.00    -0.080 S 
BRANCH  17  18
ATOM     18  C   UNL     1       9.921  -3.792   1.323  0.00  0.00    +0.112 C 
BRANCH  18  19
ATOM     19  C   UNL     1      11.427  -3.840   1.310  0.00  0.00    -0.037 A 
ATOM     20  C   UNL     1      12.107  -3.844   0.106  0.00  0.00    +0.006 A 
ATOM     21  C   UNL     1      13.489  -3.887   0.094  0.00  0.00    +0.020 A 
ATOM     22  C   UNL     1      14.191  -3.926   1.286  0.00  0.00    +0.041 A 
ATOM     23  C   UNL     1      13.509  -3.923   2.489  0.00  0.00    +0.020 A 
ATOM     24  C   UNL     1      12.127  -3.873   2.501  0.00  0.00    +0.006 A 
ATOM     25 CL   UNL     1      15.925  -3.982   1.270  0.00  0.00    -0.084 Cl
ENDBRANCH  18  19
ENDBRANCH  17  18
ENDBRANCH   4  17
TORSDOF 7
