REMARK  Name = ZINC20206266
REMARK  9 active torsions:
REMARK  status: ('A' for Active; 'I' for Inactive)
REMARK    1  A    between atoms: C_1  and  C_2
REMARK    2  A    between atoms: C_6  and  O_8
REMARK    3  A    between atoms: O_8  and  C_9
REMARK    4  A    between atoms: C_9  and  C_10
REMARK    5  A    between atoms: C_10  and  O_11
REMARK    6  A    between atoms: O_11  and  C_12
REMARK    7  A    between atoms: C_15  and  C_19
REMARK    8  A    between atoms: C_30  and  S_31
REMARK    9  A    between atoms: S_31  and  C_34
REMARK                            x       y       z     vdW  Elec       q    Type
REMARK                         _______ _______ _______ _____ _____    ______ ____
ROOT
ATOM      1  C   UNL     1      -1.781  -5.507   5.370  0.00  0.00    +0.139 A 
ATOM      2  C   UNL     1      -0.580  -5.888   5.959  0.00  0.00    +0.048 A 
ATOM      3  C   UNL     1      -0.541  -6.240   7.278  0.00  0.00    +0.011 A 
ATOM      4  C   UNL     1      -1.715  -6.220   8.044  0.00  0.00    -0.023 A 
ATOM      5  C   UNL     1      -2.926  -5.836   7.451  0.00  0.00    +0.031 A 
ATOM      6  C   UNL     1      -2.952  -5.476   6.122  0.00  0.00    +0.083 A 
ATOM      7 CL   UNL     1      -4.446  -4.993   5.382  0.00  0.00    -0.080 Cl
ENDROOT
BRANCH   4   8
ATOM      8  C   UNL     1      -1.677  -6.598   9.459  0.00  0.00    +0.024 C 
ATOM      9  C   UNL     1      -2.425  -5.900  10.379  0.00  0.00    +0.078 C 
ATOM     10  C   UNL     1      -2.568  -6.360  11.791  0.00  0.00    +0.117 C 
ATOM     11  N   UNL     1      -1.630  -6.997  12.438  0.00  0.00    -0.386 N 
ATOM     12  N   UNL     1      -3.819  -6.038  12.355  0.00  0.00    -0.203 N 
ATOM     13  C   UNL     1      -4.531  -4.987  11.815  0.00  0.00    +0.183 C 
ATOM     14  N   UNL     1      -4.216  -4.295  10.744  0.00  0.00    -0.152 NA
ATOM     15  C   UNL     1      -3.131  -4.643  10.024  0.00  0.00    +0.273 C 
ATOM     16  O   UNL     1      -2.740  -3.947   9.100  0.00  0.00    -0.268 OA
ATOM     17  S   UNL     1      -5.846  -4.857  12.831  0.00  0.00    +0.049 S 
ATOM     18  N   UNL     1      -5.546  -6.166  13.835  0.00  0.00    -0.174 NA
ATOM     19  C   UNL     1      -4.421  -6.647  13.403  0.00  0.00    +0.257 C 
ATOM     20  H   UNL     1      -0.827  -7.279  11.973  0.00  0.00    +0.157 HD
ATOM     21  H   UNL     1      -1.736  -7.187  13.383  0.00  0.00    +0.157 HD
BRANCH  19  22
ATOM     22  S   UNL     1      -3.696  -8.063  14.161  0.00  0.00    +0.026 S 
ATOM     23  O   UNL     1      -4.775  -8.717  14.814  0.00  0.00    -0.167 OA
ATOM     24  O   UNL     1      -2.983  -8.709  13.116  0.00  0.00    -0.167 OA
ATOM     25  C   UNL     1      -2.538  -7.393  15.386  0.00  0.00    +0.203 C 
ENDBRANCH  19  22
ENDBRANCH   4   8
BRANCH   1  26
ATOM     26  O   UNL     1      -1.810  -5.158   4.059  0.00  0.00    -0.487 OA
BRANCH  26  27
ATOM     27  C   UNL     1      -0.572  -5.211   3.346  0.00  0.00    +0.270 C 
BRANCH  27  28
ATOM     28  C   UNL     1      -0.802  -4.787   1.894  0.00  0.00    +0.270 C 
BRANCH  28  29
ATOM     29  O   UNL     1      -1.201  -3.416   1.856  0.00  0.00    -0.489 OA
BRANCH  29  35
ATOM     30  C   UNL     1      -2.514   0.433  -0.844  0.00  0.00    +0.044 C 
ATOM     31  C   UNL     1      -2.088  -1.008  -0.723  0.00  0.00    -0.047 A 
ATOM     32  C   UNL     1      -1.947  -1.784  -1.859  0.00  0.00    +0.003 A 
ATOM     33  C   UNL     1      -1.556  -3.106  -1.751  0.00  0.00    +0.004 A 
ATOM     34  C   UNL     1      -1.306  -3.655  -0.508  0.00  0.00    +0.045 A 
ATOM     35  C   UNL     1      -1.447  -2.878   0.632  0.00  0.00    +0.121 A 
ATOM     36  C   UNL     1      -1.833  -1.550   0.521  0.00  0.00    +0.049 A 
ENDBRANCH  29  35
ENDBRANCH  28  29
ENDBRANCH  27  28
ENDBRANCH  26  27
ENDBRANCH   1  26
TORSDOF 7
