REMARK  Name = ZINC66187787
REMARK  6 active torsions:
REMARK  status: ('A' for Active; 'I' for Inactive)
REMARK    1  A    between atoms: C_1  and  C_2
REMARK    2  A    between atoms: C_5  and  C_7
REMARK    3  A    between atoms: C_7  and  C_9
REMARK    4  A    between atoms: C_7  and  N_10
REMARK    5  A    between atoms: N_13  and  C_14
REMARK    6  A    between atoms: N_13  and  C_15
REMARK                            x       y       z     vdW  Elec       q    Type
REMARK                         _______ _______ _______ _____ _____    ______ ____
ROOT
ATOM      1  N   UNL     1       2.172  -4.135   0.906  0.00  0.00    -0.292 N 
ATOM      2  C   UNL     1       2.528  -5.321   1.439  0.00  0.00    +0.303 C 
ATOM      3  O   UNL     1       1.884  -6.320   1.184  0.00  0.00    -0.253 OA
ATOM      4  N   UNL     1       3.598  -5.398   2.255  0.00  0.00    -0.286 N 
ATOM      5  C   UNL     1       4.374  -4.194   2.562  0.00  0.00    +0.134 C 
ATOM      6  H   UNL     1       2.686  -3.338   1.109  0.00  0.00    +0.151 HD
ENDROOT
BRANCH   4   7
ATOM      7  C   UNL     1       3.985  -6.687   2.835  0.00  0.00    +0.080 C 
ATOM      8  C   UNL     1       3.934  -6.595   4.362  0.00  0.00    +0.041 C 
ATOM      9  C   UNL     1       4.306  -7.953   4.964  0.00  0.00    +0.108 C 
ATOM     10  N   UNL     1       5.609  -8.367   4.428  0.00  0.00    -0.317 N 
ATOM     11  C   UNL     1       5.795  -8.403   2.971  0.00  0.00    +0.108 C 
ATOM     12  C   UNL     1       5.407  -7.039   2.391  0.00  0.00    +0.041 C 
ATOM     13  C   UNL     1       6.647  -8.719   5.283  0.00  0.00    +0.099 A 
ATOM     14  C   UNL     1       7.831  -9.227   4.757  0.00  0.00    +0.042 A 
ATOM     15  C   UNL     1       8.856  -9.572   5.620  0.00  0.00    +0.005 A 
ATOM     16  C   UNL     1       8.662  -9.397   6.984  0.00  0.00    +0.018 A 
ATOM     17  C   UNL     1       7.462  -8.888   7.436  0.00  0.00    +0.084 A 
ATOM     18  N   UNL     1       6.503  -8.562   6.590  0.00  0.00    -0.350 N 
ATOM     19  H   UNL     1       5.670  -8.202   6.934  0.00  0.00    +0.166 HD
ENDBRANCH   4   7
BRANCH   1  20
ATOM     20  C   UNL     1       1.009  -4.051   0.019  0.00  0.00    +0.108 C 
ATOM     21  C   UNL     1       1.431  -4.401  -1.410  0.00  0.00    +0.033 C 
BRANCH  20  26
ATOM     22  C   UNL     1      -0.128   1.497   0.141  0.00  0.00    +0.051 C 
ATOM     23  C   UNL     1      -0.087  -0.009   0.108  0.00  0.00    -0.013 A 
ATOM     24  C   UNL     1      -1.116  -0.890   0.088  0.00  0.00    +0.011 A 
ATOM     25  C   UNL     1      -0.839  -2.244   0.058  0.00  0.00    +0.013 A 
ATOM     26  C   UNL     1       0.454  -2.650   0.050  0.00  0.00    +0.010 A 
ATOM     27  S   UNL     1       1.330  -1.094   0.078  0.00  0.00    -0.097 S 
ENDBRANCH  20  26
ENDBRANCH   1  20
TORSDOF 3
