REMARK  Name = ZINC39561047
REMARK  6 active torsions:
REMARK  status: ('A' for Active; 'I' for Inactive)
REMARK    1  A    between atoms: C_4  and  N_7
REMARK    2  A    between atoms: C_11  and  C_13
REMARK    3  A    between atoms: C_13  and  O_14
REMARK    4  A    between atoms: O_14  and  C_15
REMARK    5  A    between atoms: C_15  and  C_17
REMARK    6  A    between atoms: C_19  and  N_25
REMARK                            x       y       z     vdW  Elec       q    Type
REMARK                         _______ _______ _______ _____ _____    ______ ____
ROOT
ATOM      1  C   UNL     1       5.346  -3.789  -4.842  0.00  0.00    +0.328 C 
ENDROOT
BRANCH   1   6
ATOM      2  N   UNL     1       2.839  -0.440  -2.473  0.00  0.00    -0.296 N 
ATOM      3  C   UNL     1       3.424  -1.655  -2.483  0.00  0.00    +0.306 C 
ATOM      4  O   UNL     1       3.383  -2.357  -1.493  0.00  0.00    -0.252 OA
ATOM      5  N   UNL     1       4.055  -2.089  -3.592  0.00  0.00    -0.237 N 
ATOM      6  C   UNL     1       4.640  -3.303  -3.603  0.00  0.00    +0.258 C 
ATOM      7  O   UNL     1       4.599  -4.004  -2.614  0.00  0.00    -0.272 OA
ATOM      8  H   UNL     1       2.872   0.121  -3.264  0.00  0.00    +0.151 HD
ATOM      9  H   UNL     1       4.088  -1.528  -4.383  0.00  0.00    +0.159 HD
BRANCH   2  13
ATOM     10  C   UNL     1      -0.019   1.526   0.010  0.00  0.00    +0.000 C 
ATOM     11  C   UNL     1       1.417   2.055  -0.000  0.00  0.00    +0.002 C 
ATOM     12  C   UNL     1       2.133   1.562  -1.259  0.00  0.00    +0.022 C 
ATOM     13  C   UNL     1       2.154   0.032  -1.268  0.00  0.00    +0.074 C 
ATOM     14  C   UNL     1       0.718  -0.497  -1.257  0.00  0.00    +0.022 C 
ATOM     15  C   UNL     1       0.002  -0.004   0.002  0.00  0.00    +0.002 C 
ENDBRANCH   2  13
ENDBRANCH   1   6
BRANCH   1  16
ATOM     16  O   UNL     1       5.880  -5.093  -4.606  0.00  0.00    -0.451 OA
BRANCH  16  17
ATOM     17  C   UNL     1       6.546  -5.675  -5.623  0.00  0.00    +0.360 C 
ATOM     18  O   UNL     1       6.669  -5.091  -6.680  0.00  0.00    -0.243 OA
BRANCH  17  19
ATOM     19  C   UNL     1       7.126  -7.024  -5.450  0.00  0.00    +0.169 A 
ATOM     20  C   UNL     1       7.818  -7.617  -6.503  0.00  0.00    +0.095 A 
ATOM     21  C   UNL     1       8.360  -8.890  -6.325  0.00  0.00    +0.067 A 
ATOM     22  C   UNL     1       8.184  -9.517  -5.093  0.00  0.00    +0.100 A 
ATOM     23  C   UNL     1       7.482  -8.862  -4.093  0.00  0.00    +0.150 A 
ATOM     24  N   UNL     1       6.987  -7.658  -4.290  0.00  0.00    -0.226 NA
ATOM     25 CL   UNL     1       7.259  -9.637  -2.555  0.00  0.00    -0.060 Cl
ATOM     26 CL   UNL     1       8.835 -11.102  -4.813  0.00  0.00    -0.078 Cl
ATOM     27 CL   UNL     1       8.003  -6.785  -8.016  0.00  0.00    -0.079 Cl
BRANCH  21  28
ATOM     28  N   UNL     1       9.059  -9.520  -7.353  0.00  0.00    -0.356 N 
ATOM     29  H   UNL     1       9.174  -9.072  -8.206  0.00  0.00    +0.142 HD
ATOM     30  H   UNL     1       9.431 -10.405  -7.215  0.00  0.00    +0.142 HD
ENDBRANCH  21  28
ENDBRANCH  17  19
ENDBRANCH  16  17
ENDBRANCH   1  16
TORSDOF 6
