REMARK  Name = ZINC04372264
REMARK  5 active torsions:
REMARK  status: ('A' for Active; 'I' for Inactive)
REMARK    1  A    between atoms: C_1  and  C_2
REMARK    2  A    between atoms: C_2  and  O_3
REMARK    3  A    between atoms: O_3  and  C_4
REMARK    4  A    between atoms: C_7  and  N_10
REMARK    5  A    between atoms: C_17  and  C_26
REMARK                            x       y       z     vdW  Elec       q    Type
REMARK                         _______ _______ _______ _____ _____    ______ ____
ROOT
ATOM      1  N   UNL     1       1.490   1.835  -2.171  0.00  0.00    -0.244 N 
ATOM      2  C   UNL     1       1.944   1.595  -0.931  0.00  0.00    +0.141 C 
ATOM      3  S   UNL     1       3.634   1.543  -0.666  0.00  0.00    -0.018 S 
ATOM      4  N   UNL     1       1.119   1.393   0.110  0.00  0.00    -0.319 N 
ATOM      5  C   UNL     1      -0.337   1.357  -0.107  0.00  0.00    +0.111 C 
ATOM      6  C   UNL     1      -0.671   2.403  -1.182  0.00  0.00    +0.096 C 
ATOM      7  C   UNL     1       0.067   1.980  -2.460  0.00  0.00    +0.183 C 
ATOM      8  O   UNL     1      -0.486   0.750  -2.921  0.00  0.00    -0.468 OA
ATOM      9  C   UNL     1      -0.722  -0.238  -2.020  0.00  0.00    +0.129 A 
ATOM     10  C   UNL     1      -0.677  -0.011  -0.656  0.00  0.00    +0.017 A 
ATOM     11  C   UNL     1      -0.942  -1.040   0.229  0.00  0.00    +0.047 A 
ATOM     12  C   UNL     1      -1.250  -2.304  -0.245  0.00  0.00    +0.124 A 
ATOM     13  C   UNL     1      -1.291  -2.536  -1.609  0.00  0.00    +0.042 A 
ATOM     14  C   UNL     1      -1.028  -1.510  -2.494  0.00  0.00    +0.049 A 
ATOM     15  F   UNL     1      -1.508  -3.308   0.621  0.00  0.00    -0.205 F 
ATOM     16  C   UNL     1      -0.127   3.056  -3.531  0.00  0.00    +0.079 C 
ATOM     17  H   UNL     1       1.481   1.272   1.002  0.00  0.00    +0.148 HD
ENDROOT
BRANCH   1  21
ATOM     18  C   UNL     1       4.232   2.180  -5.293  0.00  0.00    +0.121 A 
ATOM     19  C   UNL     1       3.942   3.281  -4.501  0.00  0.00    +0.047 A 
ATOM     20  C   UNL     1       3.034   3.167  -3.467  0.00  0.00    +0.027 A 
ATOM     21  C   UNL     1       2.412   1.951  -3.220  0.00  0.00    +0.039 A 
ATOM     22  C   UNL     1       2.707   0.848  -4.010  0.00  0.00    +0.027 A 
ATOM     23  C   UNL     1       3.612   0.964  -5.047  0.00  0.00    +0.047 A 
BRANCH  18  24
ATOM     24  O   UNL     1       5.127   2.292  -6.311  0.00  0.00    -0.492 OA
BRANCH  24  26
ATOM     25  C   UNL     1       6.403   1.437  -8.177  0.00  0.00    +0.048 C 
ATOM     26  C   UNL     1       5.378   1.118  -7.086  0.00  0.00    +0.225 C 
ENDBRANCH  24  26
ENDBRANCH  18  24
ENDBRANCH   1  21
TORSDOF 3
