REMARK  Name = ZINC53207928
REMARK  7 active torsions:
REMARK  status: ('A' for Active; 'I' for Inactive)
REMARK    1  A    between atoms: C_10  and  C_12
REMARK    2  A    between atoms: C_12  and  N_13
REMARK    3  A    between atoms: C_14  and  C_16
REMARK    4  A    between atoms: C_16  and  S_17
REMARK    5  A    between atoms: S_17  and  C_18
REMARK    6  A    between atoms: C_21  and  C_24
REMARK    7  A    between atoms: N_22  and  N_23
REMARK                            x       y       z     vdW  Elec       q    Type
REMARK                         _______ _______ _______ _____ _____    ______ ____
ROOT
ATOM      1  N   UNL     1       4.827   1.450  -0.551  0.00  0.00    -0.314 N 
ATOM      2  C   UNL     1       5.528   2.318  -1.307  0.00  0.00    +0.223 C 
ATOM      3  O   UNL     1       6.029   1.949  -2.348  0.00  0.00    -0.275 OA
ATOM      4  H   UNL     1       4.426   1.745   0.281  0.00  0.00    +0.149 HD
ENDROOT
BRANCH   1   5
ATOM      5  C   UNL     1       4.671   0.060  -0.987  0.00  0.00    +0.112 C 
BRANCH   5  15
ATOM      6  C   UNL     1       3.217  -4.674  -1.402  0.00  0.00    +0.000 A 
ATOM      7  C   UNL     1       3.039  -3.564  -2.206  0.00  0.00    +0.000 A 
ATOM      8  C   UNL     1       3.284  -2.305  -1.699  0.00  0.00    +0.004 A 
ATOM      9  C   UNL     1       3.712  -2.143  -0.387  0.00  0.00    -0.040 A 
ATOM     10  C   UNL     1       3.894  -3.249   0.412  0.00  0.00    -0.044 A 
ATOM     11  C   UNL     1       3.643  -4.516  -0.100  0.00  0.00    +0.004 A 
ATOM     12  C   UNL     1       4.371  -3.149   1.837  0.00  0.00    +0.035 C 
ATOM     13  C   UNL     1       4.187  -1.729   2.367  0.00  0.00    +0.005 C 
ATOM     14  C   UNL     1       4.814  -0.752   1.365  0.00  0.00    +0.010 C 
ATOM     15  C   UNL     1       3.954  -0.739   0.103  0.00  0.00    +0.036 C 
ENDBRANCH   5  15
ENDBRANCH   1   5
BRANCH   2  16
ATOM     16  C   UNL     1       5.689   3.748  -0.859  0.00  0.00    +0.173 C 
BRANCH  16  17
ATOM     17  S   UNL     1       6.675   4.657  -2.080  0.00  0.00    -0.075 S 
BRANCH  17  18
ATOM     18  C   UNL     1       6.771   6.288  -1.420  0.00  0.00    +0.209 A 
ATOM     19  N   UNL     1       6.240   6.705  -0.293  0.00  0.00    -0.121 NA
ATOM     20  N   UNL     1       6.503   7.951  -0.115  0.00  0.00    -0.126 NA
ATOM     21  C   UNL     1       7.219   8.407  -1.119  0.00  0.00    +0.188 A 
ATOM     22  N   UNL     1       7.418   7.354  -1.984  0.00  0.00    -0.223 N 
BRANCH  21  23
ATOM     23  C   UNL     1       7.718   9.782  -1.285  0.00  0.00    +0.058 A 
ATOM     24  C   UNL     1       7.810  10.786  -0.354  0.00  0.00    +0.019 A 
ATOM     25  C   UNL     1       8.317  12.005  -0.746  0.00  0.00    +0.008 A 
ATOM     26  C   UNL     1       8.710  12.175  -2.035  0.00  0.00    +0.046 A 
ATOM     27  S   UNL     1       8.370  10.574  -2.746  0.00  0.00    -0.093 S 
ENDBRANCH  21  23
BRANCH  22  28
ATOM     28  N   UNL     1       8.113   7.370  -3.159  0.00  0.00    -0.295 N 
ATOM     29  H   UNL     1       7.510   7.608  -3.933  0.00  0.00    +0.163 HD
ATOM     30  H   UNL     1       8.899   8.001  -3.106  0.00  0.00    +0.163 HD
ENDBRANCH  22  28
ENDBRANCH  17  18
ENDBRANCH  16  17
ENDBRANCH   2  16
TORSDOF 7
