REMARK  Name = ZINC12657978
REMARK  10 active torsions:
REMARK  status: ('A' for Active; 'I' for Inactive)
REMARK    1  A    between atoms: C_1  and  C_2
REMARK    2  A    between atoms: C_2  and  C_3
REMARK    3  A    between atoms: C_3  and  C_4
REMARK    4  A    between atoms: C_4  and  N_74
REMARK    5  A    between atoms: C_5  and  C_6
REMARK    6  A    between atoms: C_9  and  O_37
REMARK    7  A    between atoms: C_12  and  O_36
REMARK    8  A    between atoms: C_21  and  C_35
REMARK    9  A    between atoms: C_22  and  O_34
REMARK   10  A    between atoms: C_25  and  C_27
REMARK                            x       y       z     vdW  Elec       q    Type
REMARK                         _______ _______ _______ _____ _____    ______ ____
ROOT
ATOM      1  C   UNL     1       2.279   2.055   1.240  0.00  0.00    +0.036 C 
ATOM      2  C   UNL     1       1.980   0.554   1.224  0.00  0.00    +0.018 C 
ATOM      3  C   UNL     1       0.466   0.336   1.240  0.00  0.00    +0.032 C 
ATOM      4  C   UNL     1      -0.156   0.991   0.005  0.00  0.00    +0.117 C 
ATOM      5  C   UNL     1       0.145   2.491   0.016  0.00  0.00    +0.067 C 
ATOM      6  C   UNL     1       1.660   2.707   0.001  0.00  0.00    +0.079 C 
ATOM      7  C   UNL     1       1.954   4.209   0.017  0.00  0.00    +0.036 C 
ATOM      8  C   UNL     1       1.361   4.837   1.280  0.00  0.00    +0.009 C 
ATOM      9  C   UNL     1       1.984   4.185   2.514  0.00  0.00    +0.025 C 
ATOM     10  C   UNL     1       1.677   2.679   2.500  0.00  0.00    +0.009 C 
ATOM     11  C   UNL     1       2.224   1.983   3.740  0.00  0.00    +0.005 C 
ATOM     12  C   UNL     1       1.708   2.647   5.029  0.00  0.00    +0.010 C 
ATOM     13  C   UNL     1       2.116   4.107   4.978  0.00  0.00    +0.003 C 
ATOM     14  C   UNL     1       1.371   4.756   3.779  0.00  0.00    +0.075 C 
ATOM     15  C   UNL     1       1.622   6.247   4.030  0.00  0.00    +0.036 C 
ATOM     16  C   UNL     1       1.429   6.378   5.566  0.00  0.00    +0.011 C 
ATOM     17  C   UNL     1       1.697   4.973   6.161  0.00  0.00    +0.043 C 
ATOM     18  C   UNL     1       3.627   4.215   4.767  0.00  0.00    +0.014 C 
ENDROOT
BRANCH  17  19
ATOM     19  C   UNL     1       0.423   4.417   6.800  0.00  0.00    +0.204 C 
ATOM     20  C   UNL     1      -0.003   5.290   7.957  0.00  0.00    +0.024 C 
ATOM     21  C   UNL     1      -1.215   5.758   7.662  0.00  0.00    +0.091 C 
ATOM     22  C   UNL     1      -1.635   5.243   6.356  0.00  0.00    +0.332 C 
ATOM     23  O   UNL     1      -2.695   5.493   5.816  0.00  0.00    -0.246 OA
ATOM     24  O   UNL     1      -0.674   4.451   5.844  0.00  0.00    -0.454 OA
ENDBRANCH  17  19
BRANCH   1  25
ATOM     25  C   UNL     1       3.770   2.272   1.233  0.00  0.00    +0.060 C 
ATOM     26  N   UNL     1       4.534   1.203   1.216  0.00  0.00    -0.393 N 
ATOM     27  H   UNL     1       4.110   0.269   1.207  0.00  0.00    +0.159 HD
BRANCH  26  28
ATOM     28  C   UNL     1       6.030   1.350   1.208  0.00  0.00    +0.112 C 
BRANCH  28  29
ATOM     29  C   UNL     1       6.583   0.755   2.505  0.00  0.00    +0.021 C 
BRANCH  29  31
ATOM     30  C   UNL     1       8.663   0.249   3.793  0.00  0.00    +0.004 C 
ATOM     31  C   UNL     1       8.111   0.844   2.496  0.00  0.00    -0.002 C 
ENDBRANCH  29  31
ENDBRANCH  28  29
ENDBRANCH  26  28
ENDBRANCH   1  25
BRANCH  14  32
ATOM     32  O   UNL     1      -0.027   4.468   3.844  0.00  0.00    -0.388 OA
ATOM     33  H   UNL     1      -0.541   4.849   3.119  0.00  0.00    +0.210 HD
ENDBRANCH  14  32
BRANCH   6  34
ATOM     34  O   UNL     1       2.215   2.118  -1.176  0.00  0.00    -0.388 OA
ATOM     35  H   UNL     1       1.867   2.483  -2.001  0.00  0.00    +0.210 HD
ENDBRANCH   6  34
BRANCH   4  36
ATOM     36  O   UNL     1       0.395   0.403  -1.175  0.00  0.00    -0.392 OA
ATOM     37  H   UNL     1       0.242  -0.549  -1.249  0.00  0.00    +0.210 HD
ENDBRANCH   4  36
TORSDOF 8
