REMARK  Name = ZINC15971991
REMARK  7 active torsions:
REMARK  status: ('A' for Active; 'I' for Inactive)
REMARK    1  A    between atoms: C_1  and  O_2
REMARK    2  A    between atoms: O_2  and  C_3
REMARK    3  A    between atoms: C_6  and  C_11
REMARK    4  A    between atoms: C_7  and  O_9
REMARK    5  A    between atoms: O_9  and  C_10
REMARK    6  A    between atoms: C_15  and  C_17
REMARK    7  A    between atoms: C_17  and  C_19
REMARK                            x       y       z     vdW  Elec       q    Type
REMARK                         _______ _______ _______ _____ _____    ______ ____
ROOT
ATOM      1  C   UNL     1       0.017   0.124  -0.075  0.00  0.00    +0.106 C 
ATOM      2  N   UNL     1       0.149   1.407   0.021  0.00  0.00    -0.086 NA
ATOM      3  O   UNL     1       1.501   1.812   0.157  0.00  0.00    -0.371 OA
ATOM      4  C   UNL     1       2.256   0.657   0.526  0.00  0.00    +0.255 C 
ATOM      5  C   UNL     1       1.399  -0.504   0.002  0.00  0.00    +0.173 C 
ATOM      6  C   UNL     1       3.630   0.654  -0.075  0.00  0.00    +0.030 A 
ATOM      7  C   UNL     1       4.103   0.714  -1.367  0.00  0.00    +0.010 A 
ATOM      8  C   UNL     1       5.465   0.691  -1.608  0.00  0.00    +0.001 A 
ATOM      9  C   UNL     1       6.350   0.609  -0.548  0.00  0.00    +0.002 A 
ATOM     10  C   UNL     1       5.881   0.549   0.747  0.00  0.00    +0.024 A 
ATOM     11  C   UNL     1       4.512   0.570   0.999  0.00  0.00    +0.041 A 
ATOM     12  N   UNL     1       3.804   0.520   2.202  0.00  0.00    -0.281 N 
ATOM     13  C   UNL     1       2.471   0.565   2.009  0.00  0.00    +0.270 C 
ATOM     14  O   UNL     1       1.613   0.537   2.866  0.00  0.00    -0.271 OA
ATOM     15  H   UNL     1       4.223   0.459   3.075  0.00  0.00    +0.155 HD
ENDROOT
BRANCH   1  19
ATOM     16  C   UNL     1      -3.649  -1.975  -0.525  0.00  0.00    +0.124 A 
ATOM     17  C   UNL     1      -2.442  -2.663  -0.583  0.00  0.00    +0.046 A 
ATOM     18  C   UNL     1      -1.251  -1.986  -0.438  0.00  0.00    +0.017 A 
ATOM     19  C   UNL     1      -1.255  -0.604  -0.232  0.00  0.00    +0.042 A 
ATOM     20  C   UNL     1      -2.473   0.087  -0.169  0.00  0.00    +0.133 A 
ATOM     21  C   UNL     1      -3.663  -0.603  -0.321  0.00  0.00    +0.091 A 
BRANCH  16  23
ATOM     22  C   UNL     1      -4.733  -4.061  -0.878  0.00  0.00    +0.277 C 
ATOM     23  O   UNL     1      -4.819  -2.650  -0.670  0.00  0.00    -0.495 OA
ENDBRANCH  16  23
BRANCH  20  24
ATOM     24  O   UNL     1      -2.486   1.429   0.037  0.00  0.00    -0.494 OA
ATOM     25  C   UNL     1      -3.764   2.065   0.089  0.00  0.00    +0.277 C 
ENDBRANCH  20  24
ENDBRANCH   1  19
BRANCH   5  26
ATOM     26  C   UNL     1       1.863  -0.946  -1.362  0.00  0.00    +0.177 C 
ATOM     27  O   UNL     1       1.457  -0.380  -2.354  0.00  0.00    -0.291 OA
BRANCH  26  28
ATOM     28  C   UNL     1       2.810  -2.064  -1.489  0.00  0.00    +0.019 A 
ATOM     29  C   UNL     1       3.249  -2.745  -0.336  0.00  0.00    +0.012 A 
ATOM     30  C   UNL     1       4.121  -3.780  -0.429  0.00  0.00    +0.009 A 
ATOM     31  C   UNL     1       4.599  -4.187  -1.689  0.00  0.00    -0.018 A 
ATOM     32  C   UNL     1       5.502  -5.256  -1.808  0.00  0.00    +0.008 A 
ATOM     33  C   UNL     1       5.949  -5.629  -3.040  0.00  0.00    +0.001 A 
ATOM     34  C   UNL     1       5.523  -4.965  -4.189  0.00  0.00    +0.001 A 
ATOM     35  C   UNL     1       4.649  -3.925  -4.113  0.00  0.00    +0.008 A 
ATOM     36  C   UNL     1       4.167  -3.511  -2.858  0.00  0.00    -0.017 A 
ATOM     37  C   UNL     1       3.260  -2.447  -2.745  0.00  0.00    +0.020 A 
ENDBRANCH  26  28
ENDBRANCH   5  26
TORSDOF 5
