REMARK  Name = ZINC10130578
REMARK  10 active torsions:
REMARK  status: ('A' for Active; 'I' for Inactive)
REMARK    1  A    between atoms: C_1  and  O_2
REMARK    2  A    between atoms: O_2  and  C_3
REMARK    3  A    between atoms: C_6  and  O_32
REMARK    4  A    between atoms: C_7  and  C_9
REMARK    5  A    between atoms: C_14  and  C_15
REMARK    6  A    between atoms: C_14  and  N_59
REMARK    7  A    between atoms: N_17  and  C_18
REMARK    8  A    between atoms: C_18  and  C_20
REMARK    9  A    between atoms: C_18  and  C_27
REMARK   10  A    between atoms: O_32  and  C_33
REMARK                            x       y       z     vdW  Elec       q    Type
REMARK                         _______ _______ _______ _____ _____    ______ ____
ROOT
ATOM      1  C   UNL     1      -1.155   0.475  -2.043  0.00  0.00    +0.019 C 
ENDROOT
BRANCH   1   6
ATOM      2  C   UNL     1      -1.908   2.205  -0.512  0.00  0.00    -0.033 C 
ATOM      3  C   UNL     1      -1.645   2.430   0.998  0.00  0.00    -0.012 C 
ATOM      4  C   UNL     1      -1.009   1.075   1.414  0.00  0.00    -0.020 C 
ATOM      5  C   UNL     1      -0.183   0.685   0.170  0.00  0.00    -0.077 C 
ATOM      6  N   UNL     1      -0.746   1.424  -0.975  0.00  0.00    +0.390 N 
ATOM      7  H   UNL     1      -0.035   2.064  -1.349  0.00  0.00    -0.080 HD
BRANCH   2  12
ATOM      8  C   UNL     1      -0.887   5.234  -2.528  0.00  0.00    +0.121 A 
ATOM      9  C   UNL     1      -2.073   5.952  -2.569  0.00  0.00    +0.049 A 
ATOM     10  C   UNL     1      -3.202   5.458  -1.946  0.00  0.00    +0.049 A 
ATOM     11  C   UNL     1      -3.150   4.243  -1.278  0.00  0.00    +0.122 A 
ATOM     12  C   UNL     1      -1.964   3.524  -1.238  0.00  0.00    -0.016 A 
ATOM     13  C   UNL     1      -0.834   4.021  -1.857  0.00  0.00    +0.051 A 
BRANCH   8  15
ATOM     14  C   UNL     1       0.099   6.977  -3.811  0.00  0.00    +0.277 C 
ATOM     15  O   UNL     1       0.224   5.720  -3.142  0.00  0.00    -0.495 OA
ENDBRANCH   8  15
BRANCH  11  16
ATOM     16  O   UNL     1      -4.261   3.757  -0.664  0.00  0.00    -0.495 OA
ATOM     17  C   UNL     1      -5.447   4.549  -0.746  0.00  0.00    +0.277 C 
ENDBRANCH  11  16
ENDBRANCH   2  12
ENDBRANCH   1   6
BRANCH   1  18
ATOM     18  C   UNL     1       0.069  -0.195  -2.612  0.00  0.00    +0.197 C 
ATOM     19  O   UNL     1       1.174   0.151  -2.249  0.00  0.00    -0.278 OA
ATOM     20  N   UNL     1      -0.063  -1.179  -3.523  0.00  0.00    -0.306 N 
ATOM     21  H   UNL     1      -0.947  -1.456  -3.813  0.00  0.00    +0.150 HD
BRANCH  20  22
ATOM     22  C   UNL     1       1.127  -1.831  -4.075  0.00  0.00    +0.140 C 
BRANCH  22  23
ATOM     23  C   UNL     1       0.767  -3.216  -4.548  0.00  0.00    -0.022 A 
ATOM     24  C   UNL     1      -0.437  -3.435  -5.191  0.00  0.00    +0.008 A 
ATOM     25  C   UNL     1      -0.765  -4.704  -5.630  0.00  0.00    +0.038 A 
ATOM     26  C   UNL     1       0.107  -5.757  -5.416  0.00  0.00    +0.123 A 
ATOM     27  C   UNL     1       1.310  -5.537  -4.767  0.00  0.00    +0.038 A 
ATOM     28  C   UNL     1       1.639  -4.267  -4.334  0.00  0.00    +0.008 A 
ATOM     29  F   UNL     1      -0.216  -6.999  -5.839  0.00  0.00    -0.205 F 
ENDBRANCH  22  23
BRANCH  22  30
ATOM     30  C   UNL     1       1.648  -1.023  -5.236  0.00  0.00    +0.014 A 
ATOM     31  C   UNL     1       2.931  -0.744  -5.574  0.00  0.00    +0.013 A 
ATOM     32  C   UNL     1       3.177   0.025  -6.696  0.00  0.00    +0.008 A 
ATOM     33  C   UNL     1       2.127   0.478  -7.425  0.00  0.00    +0.045 A 
ATOM     34  S   UNL     1       0.737  -0.193  -6.528  0.00  0.00    -0.099 S 
ENDBRANCH  22  30
ENDBRANCH  20  22
ENDBRANCH   1  18
TORSDOF 8
