REMARK  Name = ZINC62707867
REMARK  4 active torsions:
REMARK  status: ('A' for Active; 'I' for Inactive)
REMARK    1  A    between atoms: C_1  and  C_2
REMARK    2  A    between atoms: C_6  and  C_20
REMARK    3  A    between atoms: N_9  and  C_10
REMARK    4  A    between atoms: C_13  and  C_17
REMARK                            x       y       z     vdW  Elec       q    Type
REMARK                         _______ _______ _______ _____ _____    ______ ____
ROOT
ATOM      1  C   UNL     1      -0.019   1.526   0.010  0.00  0.00    +0.028 C 
ATOM      2  C   UNL     1       0.002  -0.004   0.002  0.00  0.00    +0.071 C 
ATOM      3  C   UNL     1      -1.434  -0.537   0.020  0.00  0.00    +0.023 C 
ATOM      4  C   UNL     1      -2.101  -0.151   1.343  0.00  0.00    +0.016 C 
ATOM      5  C   UNL     1      -1.335  -0.786   2.506  0.00  0.00    +0.092 C 
ATOM      6  C   UNL     1       0.102  -0.256   2.516  0.00  0.00    +0.118 C 
ATOM      7  N   UNL     1       0.706  -0.494   1.195  0.00  0.00    -0.322 N 
ENDROOT
BRANCH   7   8
ATOM      8  C   UNL     1       1.917  -1.170   1.076  0.00  0.00    +0.101 A 
ATOM      9  C   UNL     1       1.927  -2.557   0.931  0.00  0.00    +0.148 A 
ATOM     10  C   UNL     1       3.123  -3.229   0.813  0.00  0.00    +0.051 A 
ATOM     11  C   UNL     1       4.330  -2.519   0.839  0.00  0.00    +0.020 A 
ATOM     12  C   UNL     1       4.316  -1.125   0.985  0.00  0.00    +0.051 A 
ATOM     13  C   UNL     1       3.115  -0.459   1.097  0.00  0.00    +0.148 A 
ATOM     14  F   UNL     1       3.100   0.885   1.232  0.00  0.00    -0.203 F 
ATOM     15  F   UNL     1       0.763  -3.241   0.907  0.00  0.00    -0.203 F 
BRANCH  11  16
ATOM     16  C   UNL     1       5.606  -3.232   0.714  0.00  0.00    +0.259 C 
ATOM     17  O   UNL     1       6.651  -2.615   0.737  0.00  0.00    -0.296 OA
ENDBRANCH  11  16
ENDBRANCH   7   8
BRANCH   5  18
ATOM     18  C   UNL     1      -2.011  -0.433   3.805  0.00  0.00    +0.215 C 
ATOM     19  O   UNL     1      -1.405   0.180   4.658  0.00  0.00    -0.276 OA
ATOM     20  N   UNL     1      -3.291  -0.798   4.020  0.00  0.00    -0.329 N 
ATOM     21  H   UNL     1      -3.776  -1.288   3.338  0.00  0.00    +0.145 HD
ATOM     22  H   UNL     1      -3.726  -0.571   4.856  0.00  0.00    +0.145 HD
ENDBRANCH   5  18
TORSDOF 3
