REMARK  Name = ZINC40815128
REMARK  7 active torsions:
REMARK  status: ('A' for Active; 'I' for Inactive)
REMARK    1  A    between atoms: C_1  and  C_2
REMARK    2  A    between atoms: C_5  and  S_8
REMARK    3  A    between atoms: S_8  and  N_11
REMARK    4  A    between atoms: N_11  and  N_12
REMARK    5  A    between atoms: C_19  and  C_32
REMARK    6  A    between atoms: C_20  and  C_22
REMARK    7  A    between atoms: C_29  and  C_31
REMARK                            x       y       z     vdW  Elec       q    Type
REMARK                         _______ _______ _______ _____ _____    ______ ____
ROOT
ATOM      1  N   UNL     1       2.454  -4.609   1.033  0.00  0.00    -0.170 NA
ATOM      2  C   UNL     1       3.602  -5.192   1.186  0.00  0.00    +0.071 C 
ATOM      3  C   UNL     1       4.100  -6.274   0.239  0.00  0.00    +0.058 C 
ATOM      4  C   UNL     1       4.743  -7.385   1.077  0.00  0.00    +0.014 C 
ATOM      5  C   UNL     1       5.985  -6.862   1.804  0.00  0.00    +0.075 C 
ATOM      6  C   UNL     1       5.627  -5.621   2.580  0.00  0.00    +0.115 A 
ATOM      7  C   UNL     1       4.527  -4.848   2.291  0.00  0.00    +0.042 A 
ATOM      8  C   UNL     1       4.505  -3.785   3.201  0.00  0.00    +0.009 A 
ATOM      9  C   UNL     1       5.599  -3.949   4.005  0.00  0.00    +0.193 A 
ATOM     10  O   UNL     1       6.256  -5.068   3.615  0.00  0.00    -0.454 OA
ATOM     11  C   UNL     1       3.482  -2.682   3.279  0.00  0.00    +0.048 C 
ENDROOT
BRANCH   9  12
ATOM     12  C   UNL     1       5.988  -3.068   5.113  0.00  0.00    +0.282 C 
ATOM     13  O   UNL     1       5.242  -2.176   5.472  0.00  0.00    -0.267 OA
ATOM     14  N   UNL     1       7.171  -3.247   5.732  0.00  0.00    -0.292 N 
ATOM     15  C   UNL     1       8.157  -4.199   5.202  0.00  0.00    +0.108 C 
ATOM     16  C   UNL     1       9.493  -3.473   5.017  0.00  0.00    +0.019 C 
ATOM     17  C   UNL     1       9.900  -2.817   6.338  0.00  0.00    +0.003 C 
ATOM     18  C   UNL     1       8.844  -1.787   6.745  0.00  0.00    +0.022 C 
ATOM     19  C   UNL     1       7.503  -2.489   6.947  0.00  0.00    +0.073 C 
ATOM     20  C   UNL     1       6.415  -1.447   7.214  0.00  0.00    +0.028 C 
ENDBRANCH   9  12
BRANCH   1  21
ATOM     21  N   UNL     1       1.618  -4.974  -0.030  0.00  0.00    -0.136 N 
ATOM     22  H   UNL     1       1.899  -5.663  -0.653  0.00  0.00    +0.197 HD
BRANCH  21  23
ATOM     23  S   UNL     1       0.152  -4.230  -0.225  0.00  0.00    +0.086 S 
ATOM     24  O   UNL     1      -0.538  -4.362   1.010  0.00  0.00    -0.149 OA
ATOM     25  O   UNL     1      -0.385  -4.705  -1.452  0.00  0.00    -0.149 OA
BRANCH  23  30
ATOM     26  C   UNL     1       1.223   1.660  -0.979  0.00  0.00    +0.044 C 
ATOM     27  C   UNL     1       0.956   0.189  -0.791  0.00  0.00    -0.050 A 
ATOM     28  C   UNL     1       0.907  -0.651  -1.888  0.00  0.00    +0.005 A 
ATOM     29  C   UNL     1       0.662  -2.001  -1.715  0.00  0.00    +0.029 A 
ATOM     30  C   UNL     1       0.466  -2.510  -0.445  0.00  0.00    +0.110 A 
ATOM     31  C   UNL     1       0.515  -1.671   0.652  0.00  0.00    +0.029 A 
ATOM     32  C   UNL     1       0.764  -0.322   0.479  0.00  0.00    +0.005 A 
ENDBRANCH  23  30
ENDBRANCH  21  23
ENDBRANCH   1  21
TORSDOF 4
