REMARK  Name = ZINC06621649
REMARK  6 active torsions:
REMARK  status: ('A' for Active; 'I' for Inactive)
REMARK    1  A    between atoms: C_1  and  O_2
REMARK    2  A    between atoms: O_2  and  C_3
REMARK    3  A    between atoms: C_6  and  C_9
REMARK    4  A    between atoms: N_17  and  C_20
REMARK    5  A    between atoms: C_27  and  N_31
REMARK    6  A    between atoms: C_28  and  C_29
REMARK                            x       y       z     vdW  Elec       q    Type
REMARK                         _______ _______ _______ _____ _____    ______ ____
ROOT
ATOM      1  C   UNL     1      -4.981  -2.629   0.035  0.00  0.00    +0.075 C 
ATOM      2  C   UNL     1      -5.087  -3.410   1.339  0.00  0.00    +0.110 C 
ATOM      3  C   UNL     1      -6.242  -4.424   1.322  0.00  0.00    +0.152 C 
ATOM      4  C   UNL     1      -7.455  -3.547   1.414  0.00  0.00    +0.240 C 
ATOM      5  O   UNL     1      -8.555  -3.762   0.952  0.00  0.00    -0.274 OA
ATOM      6  N   UNL     1      -7.059  -2.463   2.126  0.00  0.00    -0.209 N 
ATOM      7  C   UNL     1      -5.697  -2.384   2.321  0.00  0.00    +0.232 C 
ATOM      8  O   UNL     1      -5.092  -1.676   3.097  0.00  0.00    -0.274 OA
ATOM      9  S   UNL     1      -6.206  -5.544  -0.070  0.00  0.00    -0.096 S 
ATOM     10  C   UNL     1      -5.629  -4.579  -1.424  0.00  0.00    +0.074 C 
ATOM     11  C   UNL     1      -5.102  -3.382  -1.227  0.00  0.00    +0.064 C 
ENDROOT
BRANCH   1  15
ATOM     12  C   UNL     1      -1.200  -0.637   0.010  0.00  0.00    +0.120 A 
ATOM     13  C   UNL     1      -2.375   0.101   0.019  0.00  0.00    +0.046 A 
ATOM     14  C   UNL     1      -3.596  -0.545   0.027  0.00  0.00    +0.008 A 
ATOM     15  C   UNL     1      -3.648  -1.927   0.026  0.00  0.00    -0.038 A 
ATOM     16  C   UNL     1      -2.479  -2.665   0.017  0.00  0.00    +0.008 A 
ATOM     17  C   UNL     1      -1.255  -2.024   0.003  0.00  0.00    +0.046 A 
BRANCH  12  19
ATOM     18  C   UNL     1      -0.017   1.425   0.010  0.00  0.00    +0.277 C 
ATOM     19  O   UNL     1       0.002  -0.004   0.002  0.00  0.00    -0.495 OA
ENDBRANCH  12  19
ENDBRANCH   1  15
BRANCH   6  20
ATOM     20  C   UNL     1      -7.954  -1.504   2.620  0.00  0.00    +0.044 A 
ATOM     21  C   UNL     1      -7.479  -0.414   3.337  0.00  0.00    +0.024 A 
ATOM     22  C   UNL     1      -8.362   0.530   3.823  0.00  0.00    +0.002 A 
ATOM     23  C   UNL     1      -9.719   0.390   3.597  0.00  0.00    +0.000 A 
ATOM     24  C   UNL     1     -10.195  -0.695   2.884  0.00  0.00    +0.002 A 
ATOM     25  C   UNL     1      -9.316  -1.639   2.390  0.00  0.00    +0.024 A 
ENDBRANCH   6  20
BRANCH  10  26
ATOM     26  N   UNL     1      -5.718  -5.081  -2.700  0.00  0.00    -0.352 N 
ATOM     27  H   UNL     1      -6.097  -5.961  -2.850  0.00  0.00    +0.143 HD
ATOM     28  H   UNL     1      -5.402  -4.555  -3.451  0.00  0.00    +0.143 HD
ENDBRANCH  10  26
BRANCH  11  29
ATOM     29  C   UNL     1      -4.573  -2.745  -2.395  0.00  0.00    +0.098 C 
ATOM     30  N   UNL     1      -4.152  -2.240  -3.322  0.00  0.00    -0.191 NA
ENDBRANCH  11  29
TORSDOF 5
