REMARK  Name = ZINC36585817
REMARK  15 active torsions:
REMARK  status: ('A' for Active; 'I' for Inactive)
REMARK    1  A    between atoms: C_1  and  C_2
REMARK    2  A    between atoms: C_2  and  C_3
REMARK    3  A    between atoms: C_2  and  C_4
REMARK    4  A    between atoms: C_2  and  N_5
REMARK    5  A    between atoms: C_6  and  C_8
REMARK    6  A    between atoms: C_8  and  C_10
REMARK    7  A    between atoms: C_8  and  N_23
REMARK    8  A    between atoms: C_10  and  C_11
REMARK    9  A    between atoms: C_10  and  C_17
REMARK   10  A    between atoms: N_23  and  C_36
REMARK   11  A    between atoms: C_24  and  C_26
REMARK   12  A    between atoms: C_28  and  N_33
REMARK   13  A    between atoms: C_36  and  C_37
REMARK   14  A    between atoms: C_36  and  C_38
REMARK   15  A    between atoms: C_36  and  C_39
REMARK                            x       y       z     vdW  Elec       q    Type
REMARK                         _______ _______ _______ _____ _____    ______ ____
ROOT
ATOM      1  C   UNL     1       4.600   1.037  -3.413  0.00  0.00    +0.174 C 
ENDROOT
BRANCH   1   3
ATOM      2  N   UNL     1       3.557   2.908  -2.175  0.00  0.00    -0.309 N 
ATOM      3  C   UNL     1       4.157   1.702  -2.135  0.00  0.00    +0.235 C 
ATOM      4  O   UNL     1       4.339   1.151  -1.070  0.00  0.00    -0.274 OA
ATOM      5  H   UNL     1       3.412   3.349  -3.027  0.00  0.00    +0.149 HD
BRANCH   2   7
ATOM      6  C   UNL     1       4.338   3.774  -0.025  0.00  0.00    +0.031 C 
ATOM      7  C   UNL     1       3.126   3.554  -0.933  0.00  0.00    +0.026 C 
ATOM      8  C   UNL     1       2.110   2.661  -0.220  0.00  0.00    +0.031 C 
ATOM      9  C   UNL     1       2.481   4.903  -1.257  0.00  0.00    +0.031 C 
ENDBRANCH   2   7
ENDBRANCH   1   3
BRANCH   1  10
ATOM     10  N   UNL     1       5.156  -0.284  -3.109  0.00  0.00    -0.280 N 
ATOM     11  C   UNL     1       6.380  -0.620  -3.560  0.00  0.00    +0.251 C 
ATOM     12  O   UNL     1       6.980   0.130  -4.307  0.00  0.00    -0.270 OA
BRANCH  11  13
ATOM     13  C   UNL     1       6.994  -1.897  -3.149  0.00  0.00    +0.086 A 
ATOM     14  C   UNL     1       6.544  -2.555  -2.001  0.00  0.00    +0.049 A 
ATOM     15  C   UNL     1       7.121  -3.747  -1.623  0.00  0.00    +0.127 A 
ATOM     16  C   UNL     1       8.146  -4.298  -2.374  0.00  0.00    +0.036 A 
ATOM     17  C   UNL     1       8.601  -3.658  -3.510  0.00  0.00    +0.054 A 
ATOM     18  C   UNL     1       8.027  -2.460  -3.910  0.00  0.00    +0.191 A 
ATOM     19  O   UNL     1       8.469  -1.833  -5.029  0.00  0.00    -0.287 OA
BRANCH  15  20
ATOM     20  N   UNL     1       6.644  -4.443  -0.406  0.00  0.00    +0.056 N 
ATOM     21  O   UNL     1       5.691  -4.013   0.201  0.00  0.00    -0.126 OA
ATOM     22  O   UNL     1       7.206  -5.441  -0.021  0.00  0.00    -0.126 OA
ENDBRANCH  15  20
ENDBRANCH  11  13
BRANCH  10  23
ATOM     23  C   UNL     1       4.381  -1.240  -2.314  0.00  0.00    +0.030 C 
ATOM     24  C   UNL     1       2.887  -0.988  -2.528  0.00  0.00    +0.031 C 
ATOM     25  C   UNL     1       4.726  -2.664  -2.751  0.00  0.00    +0.031 C 
ATOM     26  C   UNL     1       4.720  -1.064  -0.832  0.00  0.00    +0.031 C 
ENDBRANCH  10  23
ENDBRANCH   1  10
BRANCH   1  27
ATOM     27  C   UNL     1       3.400   0.882  -4.350  0.00  0.00    +0.078 C 
BRANCH  27  28
ATOM     28  C   UNL     1       2.916   2.245  -4.774  0.00  0.00    -0.038 A 
ATOM     29  C   UNL     1       3.790   3.135  -5.369  0.00  0.00    +0.004 A 
ATOM     30  C   UNL     1       3.345   4.385  -5.758  0.00  0.00    +0.000 A 
ATOM     31  C   UNL     1       2.026   4.744  -5.554  0.00  0.00    +0.000 A 
ATOM     32  C   UNL     1       1.151   3.853  -4.960  0.00  0.00    +0.000 A 
ATOM     33  C   UNL     1       1.595   2.602  -4.575  0.00  0.00    +0.004 A 
ENDBRANCH  27  28
BRANCH  27  34
ATOM     34  C   UNL     1       3.812   0.094  -5.566  0.00  0.00    -0.038 A 
ATOM     35  C   UNL     1       2.893  -0.714  -6.210  0.00  0.00    +0.004 A 
ATOM     36  C   UNL     1       3.270  -1.437  -7.326  0.00  0.00    +0.000 A 
ATOM     37  C   UNL     1       4.567  -1.352  -7.798  0.00  0.00    +0.000 A 
ATOM     38  C   UNL     1       5.485  -0.544  -7.155  0.00  0.00    +0.000 A 
ATOM     39  C   UNL     1       5.107   0.183  -6.042  0.00  0.00    +0.004 A 
ENDBRANCH  27  34
ENDBRANCH   1  27
TORSDOF 9
