REMARK  Name = ZINC59596455
REMARK  3 active torsions:
REMARK  status: ('A' for Active; 'I' for Inactive)
REMARK    1  A    between atoms: C_1  and  C_2
REMARK    2  A    between atoms: C_2  and  C_17
REMARK    3  A    between atoms: C_7  and  C_8
REMARK                            x       y       z     vdW  Elec       q    Type
REMARK                         _______ _______ _______ _____ _____    ______ ____
ROOT
ATOM      1  C   UNL     1      -0.377   2.195   0.371  0.00  0.00    +0.110 C 
ATOM      2  C   UNL     1      -0.034   0.709   0.247  0.00  0.00    +0.283 C 
ATOM      3  O   UNL     1      -1.242  -0.048   0.105  0.00  0.00    -0.414 OA
ATOM      4  C   UNL     1      -2.074  -0.031   1.184  0.00  0.00    +0.350 C 
ATOM      5  O   UNL     1      -3.272   0.147   1.083  0.00  0.00    -0.245 OA
ATOM      6  C   UNL     1      -1.407  -0.247   2.493  0.00  0.00    +0.146 C 
ATOM      7  C   UNL     1      -2.011  -0.923   3.547  0.00  0.00    +0.068 C 
ATOM      8  C   UNL     1      -0.038   0.323   2.578  0.00  0.00    +0.350 C 
ATOM      9  O   UNL     1       0.414   0.788   3.607  0.00  0.00    -0.245 OA
ATOM     10  O   UNL     1       0.674   0.285   1.417  0.00  0.00    -0.414 OA
ENDROOT
BRANCH   7  11
ATOM     11  C   UNL     1      -1.269  -1.240   4.696  0.00  0.00    +0.130 A 
ATOM     12  C   UNL     1      -1.769  -1.788   5.867  0.00  0.00    +0.050 A 
ATOM     13  C   UNL     1      -0.682  -1.932   6.734  0.00  0.00    +0.057 A 
ATOM     14  C   UNL     1       0.418  -1.479   6.080  0.00  0.00    +0.171 A 
ATOM     15  O   UNL     1       0.062  -1.070   4.856  0.00  0.00    -0.449 OA
ATOM     16 BR   UNL     1       2.173  -1.438   6.784  0.00  0.00    -0.008 Br
ENDBRANCH   7  11
BRANCH   2  17
ATOM     17  C   UNL     1       0.833   0.496  -0.968  0.00  0.00    +0.036 A 
ATOM     18  C   UNL     1       0.252   0.234  -2.194  0.00  0.00    +0.011 A 
ATOM     19  C   UNL     1       1.047   0.038  -3.308  0.00  0.00    +0.001 A 
ATOM     20  C   UNL     1       2.424   0.106  -3.195  0.00  0.00    +0.000 A 
ATOM     21  C   UNL     1       3.004   0.369  -1.968  0.00  0.00    +0.001 A 
ATOM     22  C   UNL     1       2.209   0.568  -0.856  0.00  0.00    +0.011 A 
ENDBRANCH   2  17
TORSDOF 2
