REMARK  Name = ZINC45245722
REMARK  9 active torsions:
REMARK  status: ('A' for Active; 'I' for Inactive)
REMARK    1  A    between atoms: C_1  and  C_2
REMARK    2  A    between atoms: C_2  and  O_3
REMARK    3  A    between atoms: O_3  and  C_4
REMARK    4  A    between atoms: C_7  and  C_13
REMARK    5  A    between atoms: C_9  and  O_10
REMARK    6  A    between atoms: O_10  and  C_11
REMARK    7  A    between atoms: C_11  and  C_12
REMARK    8  A    between atoms: C_13  and  C_23
REMARK    9  A    between atoms: C_27  and  C_29
REMARK                            x       y       z     vdW  Elec       q    Type
REMARK                         _______ _______ _______ _____ _____    ______ ____
ROOT
ATOM      1  C   UNL     1       1.107  -6.044  -1.844  0.00  0.00    +0.168 C 
ATOM      2  C   UNL     1       1.580  -6.931  -0.723  0.00  0.00    +0.114 C 
ATOM      3  N   UNL     1       1.007  -7.251   0.381  0.00  0.00    -0.373 N 
ATOM      4  C   UNL     1       1.708  -8.130   1.326  0.00  0.00    +0.115 C 
ATOM      5  C   UNL     1       2.620  -9.101   0.573  0.00  0.00    +0.040 C 
ATOM      6  C   UNL     1       3.613  -8.313  -0.293  0.00  0.00    +0.116 C 
ATOM      7  N   UNL     1       2.827  -7.382  -1.118  0.00  0.00    -0.261 N 
ATOM      8  C   UNL     1       3.152  -6.841  -2.330  0.00  0.00    +0.182 C 
ATOM      9  N   UNL     1       2.221  -6.070  -2.808  0.00  0.00    -0.232 NA
ATOM     10  N   UNL     1       4.341  -7.086  -2.976  0.00  0.00    -0.331 N 
ATOM     11  H   UNL     1       5.001  -7.670  -2.571  0.00  0.00    +0.145 HD
ATOM     12  H   UNL     1       4.519  -6.674  -3.836  0.00  0.00    +0.145 HD
ATOM     13  H   UNL     1       0.120  -6.916   0.589  0.00  0.00    +0.161 HD
ENDROOT
BRANCH   1  17
ATOM     14  C   UNL     1       0.434  -2.067  -0.424  0.00  0.00    +0.162 A 
ATOM     15  C   UNL     1      -0.186  -3.141   0.195  0.00  0.00    +0.050 A 
ATOM     16  C   UNL     1       0.033  -4.425  -0.267  0.00  0.00    +0.010 A 
ATOM     17  C   UNL     1       0.871  -4.642  -1.345  0.00  0.00    -0.005 A 
ATOM     18  C   UNL     1       1.493  -3.575  -1.967  0.00  0.00    +0.056 A 
ATOM     19  C   UNL     1       1.272  -2.285  -1.513  0.00  0.00    +0.162 A 
BRANCH  14  20
ATOM     20  O   UNL     1       0.218  -0.803   0.028  0.00  0.00    -0.489 OA
BRANCH  20  22
ATOM     21  C   UNL     1      -0.773   0.827   1.512  0.00  0.00    +0.048 C 
ATOM     22  C   UNL     1      -0.654  -0.655   1.150  0.00  0.00    +0.226 C 
ENDBRANCH  20  22
ENDBRANCH  14  20
BRANCH  19  23
ATOM     23  O   UNL     1       1.878  -1.234  -2.127  0.00  0.00    -0.489 OA
BRANCH  23  24
ATOM     24  C   UNL     1       2.726  -1.532  -3.239  0.00  0.00    +0.226 C 
ATOM     25  C   UNL     1       3.314  -0.234  -3.795  0.00  0.00    +0.048 C 
ENDBRANCH  23  24
ENDBRANCH  19  23
ENDBRANCH   1  17
BRANCH   1  26
ATOM     26  C   UNL     1      -0.146  -6.600  -2.469  0.00  0.00    -0.008 A 
ATOM     27  C   UNL     1      -1.232  -6.918  -1.673  0.00  0.00    +0.007 A 
ATOM     28  C   UNL     1      -2.386  -7.429  -2.240  0.00  0.00    +0.001 A 
ATOM     29  C   UNL     1      -2.460  -7.623  -3.605  0.00  0.00    +0.008 A 
ATOM     30  C   UNL     1      -1.369  -7.304  -4.411  0.00  0.00    -0.013 A 
ATOM     31  C   UNL     1      -0.211  -6.785  -3.835  0.00  0.00    +0.015 A 
BRANCH  30  32
ATOM     32  C   UNL     1      -1.442  -7.511  -5.878  0.00  0.00    +0.036 A 
ATOM     33  C   UNL     1      -1.877  -8.730  -6.403  0.00  0.00    +0.014 A 
ATOM     34  C   UNL     1      -1.929  -8.873  -7.779  0.00  0.00    +0.020 A 
ATOM     35  C   UNL     1      -1.551  -7.814  -8.585  0.00  0.00    +0.114 A 
ATOM     36  N   UNL     1      -1.143  -6.673  -8.063  0.00  0.00    -0.227 NA
ATOM     37  C   UNL     1      -1.083  -6.488  -6.758  0.00  0.00    +0.221 A 
ATOM     38  F   UNL     1      -0.664  -5.300  -6.269  0.00  0.00    -0.183 F 
ENDBRANCH  30  32
ENDBRANCH   1  26
TORSDOF 7
