REMARK  Name = ZINC20059483
REMARK  9 active torsions:
REMARK  status: ('A' for Active; 'I' for Inactive)
REMARK    1  A    between atoms: C_4  and  C_7
REMARK    2  A    between atoms: C_7  and  N_8
REMARK    3  A    between atoms: N_8  and  C_9
REMARK    4  A    between atoms: N_8  and  S_29
REMARK    5  A    between atoms: C_14  and  C_15
REMARK    6  A    between atoms: N_17  and  N_18
REMARK    7  A    between atoms: C_19  and  C_20
REMARK    8  A    between atoms: C_25  and  C_26
REMARK    9  A    between atoms: S_29  and  C_32
REMARK                            x       y       z     vdW  Elec       q    Type
REMARK                         _______ _______ _______ _____ _____    ______ ____
ROOT
ATOM      1  C   UNL     1      -8.511   1.625   0.197  0.00  0.00    +0.064 A 
ATOM      2  C   UNL     1      -9.707   0.925   0.303  0.00  0.00    +0.025 A 
ATOM      3  C   UNL     1      -9.693  -0.441   0.494  0.00  0.00    +0.002 A 
ATOM      4  C   UNL     1      -8.491  -1.126   0.580  0.00  0.00    +0.001 A 
ATOM      5  C   UNL     1      -7.296  -0.451   0.471  0.00  0.00    +0.015 A 
ATOM      6  C   UNL     1      -7.292   0.934   0.284  0.00  0.00    +0.061 A 
ENDROOT
BRANCH   6   7
ATOM      7  C   UNL     1      -6.016   1.664   0.173  0.00  0.00    +0.265 C 
ATOM      8  O   UNL     1      -6.018   2.869   0.005  0.00  0.00    -0.268 OA
ATOM      9  N   UNL     1      -4.849   0.997   0.257  0.00  0.00    -0.203 N 
ATOM     10  H   UNL     1      -4.848  -0.093   0.409  0.00  0.00    +0.178 HD
BRANCH   9  11
ATOM     11  N   UNL     1      -3.636   1.690   0.151  0.00  0.00    -0.187 NA
ATOM     12  C   UNL     1      -2.510   1.047   0.232  0.00  0.00    +0.139 C 
BRANCH  12  13
ATOM     13  C   UNL     1      -1.237   1.775   0.121  0.00  0.00    +0.009 A 
ATOM     14  C   UNL     1      -0.026   1.110   0.321  0.00  0.00    +0.010 A 
ATOM     15  C   UNL     1       1.165   1.796   0.210  0.00  0.00    +0.001 A 
ATOM     16  C   UNL     1       1.171   3.149  -0.094  0.00  0.00    +0.001 A 
ATOM     17  C   UNL     1      -0.013   3.828  -0.290  0.00  0.00    +0.016 A 
ATOM     18  C   UNL     1      -1.230   3.153  -0.182  0.00  0.00    +0.072 A 
BRANCH  18  19
ATOM     19  C   UNL     1      -2.499   3.873  -0.390  0.00  0.00    +0.387 C 
ATOM     20  O   UNL     1      -2.872   4.695   0.423  0.00  0.00    -0.241 OA
ATOM     21  O   UNL     1      -3.247   3.619  -1.482  0.00  0.00    -0.241 OA
ENDBRANCH  18  19
ENDBRANCH  12  13
ENDBRANCH   9  11
ENDBRANCH   6   7
BRANCH   1  22
ATOM     22  N   UNL     1      -8.522   3.001   0.005  0.00  0.00    -0.198 N 
BRANCH  22  23
ATOM     23  S   UNL     1      -8.414   3.624  -1.526  0.00  0.00    +0.075 S 
ATOM     24  O   UNL     1      -7.764   4.881  -1.407  0.00  0.00    -0.150 OA
ATOM     25  O   UNL     1      -7.914   2.583  -2.354  0.00  0.00    -0.150 OA
BRANCH  23  26
ATOM     26  C   UNL     1     -10.057   3.955  -2.070  0.00  0.00    +0.109 A 
ATOM     27  C   UNL     1     -10.771   2.982  -2.744  0.00  0.00    +0.029 A 
ATOM     28  C   UNL     1     -12.062   3.241  -3.166  0.00  0.00    +0.002 A 
ATOM     29  C   UNL     1     -12.634   4.476  -2.925  0.00  0.00    +0.000 A 
ATOM     30  C   UNL     1     -11.917   5.451  -2.256  0.00  0.00    +0.002 A 
ATOM     31  C   UNL     1     -10.629   5.190  -1.829  0.00  0.00    +0.029 A 
ENDBRANCH  23  26
ENDBRANCH  22  23
BRANCH  22  32
ATOM     32  C   UNL     1      -8.628   3.900   1.156  0.00  0.00    +0.166 C 
BRANCH  32  36
ATOM     33  C   UNL     1      -4.744   4.573   2.802  0.00  0.00    +0.000 A 
ATOM     34  C   UNL     1      -5.229   5.407   1.812  0.00  0.00    +0.000 A 
ATOM     35  C   UNL     1      -6.486   5.189   1.280  0.00  0.00    +0.005 A 
ATOM     36  C   UNL     1      -7.258   4.137   1.737  0.00  0.00    -0.028 A 
ATOM     37  C   UNL     1      -6.775   3.307   2.731  0.00  0.00    +0.005 A 
ATOM     38  C   UNL     1      -5.516   3.521   3.260  0.00  0.00    +0.000 A 
ENDBRANCH  32  36
ENDBRANCH  22  32
ENDBRANCH   1  22
TORSDOF 9
