REMARK  Name = ZINC37216701
REMARK  4 active torsions:
REMARK  status: ('A' for Active; 'I' for Inactive)
REMARK    1  A    between atoms: C_1  and  C_2
REMARK    2  A    between atoms: C_2  and  C_4
REMARK    3  A    between atoms: C_2  and  N_10
REMARK    4  A    between atoms: N_10  and  C_11
REMARK                            x       y       z     vdW  Elec       q    Type
REMARK                         _______ _______ _______ _____ _____    ______ ____
ROOT
ATOM      1  C   UNL     1       0.030  -0.638   2.393  0.00  0.00    +0.028 A 
ATOM      2  C   UNL     1      -1.324  -0.331   2.465  0.00  0.00    +0.024 A 
ATOM      3  C   UNL     1      -2.011  -0.474   3.655  0.00  0.00    +0.015 A 
ATOM      4  C   UNL     1      -1.346  -0.928   4.787  0.00  0.00    +0.049 A 
ATOM      5  C   UNL     1       0.029  -1.241   4.717  0.00  0.00    +0.051 A 
ATOM      6  C   UNL     1       0.708  -1.101   3.521  0.00  0.00    +0.036 A 
ATOM      7  C   UNL     1       0.410  -1.686   6.075  0.00  0.00    +0.251 C 
ATOM      8  O   UNL     1       1.519  -2.042   6.419  0.00  0.00    -0.270 OA
ATOM      9  N   UNL     1      -0.677  -1.628   6.864  0.00  0.00    -0.248 N 
ATOM     10  C   UNL     1      -1.750  -1.192   6.180  0.00  0.00    +0.251 C 
ATOM     11  O   UNL     1      -2.867  -1.041   6.634  0.00  0.00    -0.270 OA
ATOM     12  H   UNL     1      -0.687  -1.870   7.804  0.00  0.00    +0.158 HD
ENDROOT
BRANCH   1  13
ATOM     13  N   UNL     1       0.711  -0.489   1.189  0.00  0.00    -0.337 N 
ATOM     14  H   UNL     1       1.654  -0.707   1.135  0.00  0.00    +0.147 HD
BRANCH  13  16
ATOM     15  C   UNL     1      -0.019   1.526   0.010  0.00  0.00    +0.033 C 
ATOM     16  C   UNL     1       0.002  -0.004   0.002  0.00  0.00    +0.105 C 
BRANCH  16  17
ATOM     17  C   UNL     1       0.707  -0.490  -1.238  0.00  0.00    +0.024 A 
ATOM     18  C   UNL     1       0.180  -1.028  -2.365  0.00  0.00    +0.030 A 
ATOM     19  C   UNL     1       1.029  -1.406  -3.388  0.00  0.00    +0.023 A 
ATOM     20  C   UNL     1       2.364  -1.229  -3.234  0.00  0.00    +0.046 A 
ATOM     21  S   UNL     1       2.454  -0.500  -1.607  0.00  0.00    -0.099 S 
ATOM     22 BR   UNL     1      -1.690  -1.257  -2.535  0.00  0.00    -0.049 Br
ENDBRANCH  16  17
ENDBRANCH  13  16
ENDBRANCH   1  13
TORSDOF 3
