REMARK  Name = ZINC03670208
REMARK  8 active torsions:
REMARK  status: ('A' for Active; 'I' for Inactive)
REMARK    1  A    between atoms: C_1  and  O_2
REMARK    2  A    between atoms: O_2  and  C_3
REMARK    3  A    between atoms: C_7  and  N_9
REMARK    4  A    between atoms: C_19  and  C_20
REMARK    5  A    between atoms: C_19  and  O_31
REMARK    6  A    between atoms: N_22  and  C_23
REMARK    7  A    between atoms: C_23  and  C_24
REMARK    8  A    between atoms: C_24  and  C_25
REMARK                            x       y       z     vdW  Elec       q    Type
REMARK                         _______ _______ _______ _____ _____    ______ ____
ROOT
ATOM      1  N   UNL     1      -1.756  -1.981   6.695  0.00  0.00    -0.214 N 
ATOM      2  C   UNL     1      -1.010  -2.125   7.806  0.00  0.00    +0.314 C 
ATOM      3  O   UNL     1      -1.523  -1.891   8.883  0.00  0.00    -0.252 OA
ATOM      4  N   UNL     1       0.271  -2.516   7.780  0.00  0.00    -0.269 N 
ATOM      5  C   UNL     1       0.952  -2.808   6.598  0.00  0.00    +0.043 A 
ATOM      6  C   UNL     1       2.281  -3.208   6.626  0.00  0.00    +0.024 A 
ATOM      7  C   UNL     1       2.938  -3.492   5.445  0.00  0.00    +0.002 A 
ATOM      8  C   UNL     1       2.279  -3.380   4.234  0.00  0.00    +0.001 A 
ATOM      9  C   UNL     1       0.954  -2.980   4.201  0.00  0.00    +0.010 A 
ATOM     10  C   UNL     1       0.297  -2.697   5.376  0.00  0.00    +0.033 A 
ATOM     11  C   UNL     1      -1.149  -2.259   5.382  0.00  0.00    +0.247 C 
ATOM     12  H   UNL     1       0.746  -2.599   8.621  0.00  0.00    +0.156 HD
ENDROOT
BRANCH   1  17
ATOM     13  C   UNL     1      -4.722   0.184   6.942  0.00  0.00    +0.122 A 
ATOM     14  C   UNL     1      -5.735  -0.765   6.968  0.00  0.00    +0.046 A 
ATOM     15  C   UNL     1      -5.426  -2.110   6.903  0.00  0.00    +0.005 A 
ATOM     16  C   UNL     1      -4.108  -2.515   6.812  0.00  0.00    +0.024 A 
ATOM     17  C   UNL     1      -3.090  -1.570   6.786  0.00  0.00    +0.045 A 
ATOM     18  C   UNL     1      -3.398  -0.219   6.857  0.00  0.00    +0.069 A 
BRANCH  13  20
ATOM     19  C   UNL     1      -6.412   1.849   7.098  0.00  0.00    +0.277 C 
ATOM     20  O   UNL     1      -5.027   1.507   7.005  0.00  0.00    -0.495 OA
ENDBRANCH  13  20
ENDBRANCH   1  17
BRANCH  11  21
ATOM     21  C   UNL     1      -1.260  -1.010   4.545  0.00  0.00    +0.269 C 
ATOM     22  O   UNL     1      -1.978  -0.998   3.567  0.00  0.00    -0.270 OA
ATOM     23  N   UNL     1      -0.562   0.092   4.883  0.00  0.00    -0.311 N 
ATOM     24  H   UNL     1       0.012   0.081   5.665  0.00  0.00    +0.149 HD
BRANCH  23  25
ATOM     25  C   UNL     1      -0.669   1.305   4.069  0.00  0.00    +0.108 C 
BRANCH  25  26
ATOM     26  C   UNL     1       0.218   2.400   4.666  0.00  0.00    +0.049 C 
BRANCH  26  27
ATOM     27  C   UNL     1       0.107   3.648   3.829  0.00  0.00    -0.072 C 
ATOM     28  C   UNL     1      -0.742   4.549   4.200  0.00  0.00    -0.028 C 
ATOM     29  C   UNL     1      -0.975   5.836   3.464  0.00  0.00    +0.027 C 
ATOM     30  C   UNL     1       0.189   6.117   2.511  0.00  0.00    +0.004 C 
ATOM     31  C   UNL     1       0.456   4.852   1.686  0.00  0.00    +0.005 C 
ATOM     32  C   UNL     1       0.990   3.766   2.622  0.00  0.00    +0.030 C 
ENDBRANCH  26  27
ENDBRANCH  25  26
ENDBRANCH  23  25
ENDBRANCH  11  21
BRANCH  11  33
ATOM     33  O   UNL     1      -1.922  -3.280   4.748  0.00  0.00    -0.360 OA
ATOM     34  H   UNL     1      -1.631  -3.493   3.850  0.00  0.00    +0.213 HD
ENDBRANCH  11  33
TORSDOF 7
