REMARK  Name = ZINC48229488
REMARK  6 active torsions:
REMARK  status: ('A' for Active; 'I' for Inactive)
REMARK    1  A    between atoms: C_12  and  S_14
REMARK    2  A    between atoms: S_14  and  C_15
REMARK    3  A    between atoms: C_15  and  C_16
REMARK    4  A    between atoms: C_16  and  C_17
REMARK    5  A    between atoms: N_19  and  C_20
REMARK    6  A    between atoms: C_23  and  C_26
REMARK                            x       y       z     vdW  Elec       q    Type
REMARK                         _______ _______ _______ _____ _____    ______ ____
ROOT
ATOM      1  C   UNL     1      10.491  -2.104   0.481  0.00  0.00    +0.218 C 
ATOM      2  O   UNL     1      11.579  -2.227   1.003  0.00  0.00    -0.275 OA
ATOM      3  N   UNL     1      10.148  -0.934  -0.094  0.00  0.00    -0.285 N 
ATOM      4  H   UNL     1       9.307  -0.856  -0.570  0.00  0.00    +0.155 HD
ENDROOT
BRANCH   3   5
ATOM      5  C   UNL     1      11.007   0.167  -0.005  0.00  0.00    +0.033 A 
ATOM      6  C   UNL     1      10.485   1.449   0.108  0.00  0.00    +0.023 A 
ATOM      7  C   UNL     1      11.335   2.534   0.196  0.00  0.00    +0.006 A 
ATOM      8  C   UNL     1      12.704   2.345   0.171  0.00  0.00    -0.041 A 
ATOM      9  C   UNL     1      13.227   1.070   0.058  0.00  0.00    +0.006 A 
ATOM     10  C   UNL     1      12.383  -0.020  -0.024  0.00  0.00    +0.023 A 
BRANCH   8  11
ATOM     11  C   UNL     1      13.629   3.531   0.267  0.00  0.00    -0.003 C 
ATOM     12  C   UNL     1      13.380   4.266   1.586  0.00  0.00    +0.015 C 
ATOM     13  C   UNL     1      14.319   5.470   1.683  0.00  0.00    -0.010 C 
ATOM     14  C   UNL     1      15.771   4.991   1.633  0.00  0.00    +0.007 C 
ATOM     15  C   UNL     1      16.020   4.256   0.314  0.00  0.00    -0.010 C 
ATOM     16  C   UNL     1      15.081   3.051   0.216  0.00  0.00    +0.015 C 
ATOM     17  C   UNL     1      15.755   5.205  -0.857  0.00  0.00    +0.007 C 
ATOM     18  C   UNL     1      14.303   5.684  -0.806  0.00  0.00    -0.010 C 
ATOM     19  C   UNL     1      14.054   6.419   0.513  0.00  0.00    +0.007 C 
ATOM     20  C   UNL     1      13.364   4.480  -0.903  0.00  0.00    +0.015 C 
ENDBRANCH   8  11
ENDBRANCH   3   5
BRANCH   1  21
ATOM     21  C   UNL     1       9.522  -3.259   0.475  0.00  0.00    +0.107 C 
BRANCH  21  22
ATOM     22  C   UNL     1      10.153  -4.457   1.187  0.00  0.00    +0.086 C 
BRANCH  22  23
ATOM     23  S   UNL     1       8.988  -5.847   1.180  0.00  0.00    -0.085 S 
BRANCH  23  35
ATOM     24  C   UNL     1      13.223  -9.787   4.470  0.00  0.00    +0.001 A 
ATOM     25  C   UNL     1      13.775  -8.531   4.258  0.00  0.00    +0.002 A 
ATOM     26  C   UNL     1      13.070  -7.554   3.594  0.00  0.00    +0.028 A 
ATOM     27  C   UNL     1      11.781  -7.825   3.126  0.00  0.00    +0.077 A 
ATOM     28  C   UNL     1      11.222  -9.105   3.344  0.00  0.00    +0.045 A 
ATOM     29  C   UNL     1      11.954 -10.080   4.019  0.00  0.00    +0.014 A 
ATOM     30  C   UNL     1       9.867  -9.359   2.841  0.00  0.00    +0.168 A 
ATOM     31  N   UNL     1       9.054 -10.394   2.860  0.00  0.00    -0.214 NA
ATOM     32  C   UNL     1       7.916 -10.080   2.247  0.00  0.00    +0.246 A 
ATOM     33  N   UNL     1       7.973  -8.842   1.823  0.00  0.00    -0.151 NA
ATOM     34  N   UNL     1       9.228  -8.338   2.191  0.00  0.00    -0.188 N 
ATOM     35  C   UNL     1       9.850  -7.130   2.025  0.00  0.00    +0.192 A 
ATOM     36  N   UNL     1      11.057  -6.888   2.469  0.00  0.00    -0.222 NA
ENDBRANCH  23  35
ENDBRANCH  22  23
ENDBRANCH  21  22
ENDBRANCH   1  21
TORSDOF 6
