REMARK  Name = ZINC15840417
REMARK  6 active torsions:
REMARK  status: ('A' for Active; 'I' for Inactive)
REMARK    1  A    between atoms: C_1  and  C_2
REMARK    2  A    between atoms: C_5  and  C_8
REMARK    3  A    between atoms: C_8  and  S_9
REMARK    4  A    between atoms: S_9  and  C_10
REMARK    5  A    between atoms: N_13  and  C_17
REMARK    6  A    between atoms: C_20  and  C_23
REMARK                            x       y       z     vdW  Elec       q    Type
REMARK                         _______ _______ _______ _____ _____    ______ ____
ROOT
ATOM      1  C   UNL     1      -3.384   3.224   1.458  0.00  0.00    +0.107 A 
ATOM      2  C   UNL     1      -3.898   4.092   2.446  0.00  0.00    +0.004 A 
ATOM      3  C   UNL     1      -5.052   4.751   2.202  0.00  0.00    +0.034 A 
ATOM      4  N   UNL     1      -5.695   4.551   1.012  0.00  0.00    -0.265 N 
ATOM      5  C   UNL     1      -5.182   3.713   0.093  0.00  0.00    +0.354 A 
ATOM      6  O   UNL     1      -5.770   3.548  -0.963  0.00  0.00    -0.244 OA
ATOM      7  N   UNL     1      -4.043   3.062   0.318  0.00  0.00    -0.186 NA
ATOM      8  C   UNL     1      -5.415   5.626   3.382  0.00  0.00    +0.054 C 
ATOM      9  C   UNL     1      -4.113   5.752   4.203  0.00  0.00    +0.011 C 
ATOM     10  C   UNL     1      -3.361   4.461   3.811  0.00  0.00    +0.040 C 
ENDROOT
BRANCH   4  11
ATOM     11  C   UNL     1      -6.894   5.224   0.747  0.00  0.00    +0.051 A 
ATOM     12  C   UNL     1      -8.107   4.650   1.106  0.00  0.00    +0.026 A 
ATOM     13  C   UNL     1      -9.288   5.318   0.848  0.00  0.00    +0.005 A 
ATOM     14  C   UNL     1      -9.264   6.552   0.224  0.00  0.00    -0.050 A 
ATOM     15  C   UNL     1      -8.059   7.123  -0.140  0.00  0.00    +0.005 A 
ATOM     16  C   UNL     1      -6.874   6.462   0.120  0.00  0.00    +0.026 A 
ATOM     17  C   UNL     1     -10.555   7.275  -0.062  0.00  0.00    +0.044 C 
ENDBRANCH   4  11
BRANCH   1  18
ATOM     18  S   UNL     1      -1.878   2.354   1.741  0.00  0.00    -0.101 S 
BRANCH  18  19
ATOM     19  C   UNL     1      -1.748   1.436   0.186  0.00  0.00    +0.111 C 
BRANCH  19  24
ATOM     20  C   UNL     1       3.046  -1.790   0.227  0.00  0.00    +0.044 C 
ATOM     21  C   UNL     1       1.796  -0.948   0.217  0.00  0.00    -0.050 A 
ATOM     22  C   UNL     1       0.609  -1.467   0.701  0.00  0.00    +0.003 A 
ATOM     23  C   UNL     1      -0.537  -0.695   0.692  0.00  0.00    +0.005 A 
ATOM     24  C   UNL     1      -0.497   0.597   0.201  0.00  0.00    -0.037 A 
ATOM     25  C   UNL     1       0.690   1.116  -0.281  0.00  0.00    +0.005 A 
ATOM     26  C   UNL     1       1.836   0.343  -0.274  0.00  0.00    +0.003 A 
ENDBRANCH  19  24
ENDBRANCH  18  19
ENDBRANCH   1  18
TORSDOF 4
