REMARK  Name = ZINC06062185
REMARK  6 active torsions:
REMARK  status: ('A' for Active; 'I' for Inactive)
REMARK    1  A    between atoms: C_3  and  O_11
REMARK    2  A    between atoms: C_6  and  N_7
REMARK    3  A    between atoms: O_11  and  C_12
REMARK    4  A    between atoms: C_12  and  C_13
REMARK    5  A    between atoms: N_15  and  C_16
REMARK    6  A    between atoms: C_17  and  C_25
REMARK                            x       y       z     vdW  Elec       q    Type
REMARK                         _______ _______ _______ _____ _____    ______ ____
ROOT
ATOM      1  C   UNL     1       3.713  -0.859  -0.040  0.00  0.00    +0.255 C 
ATOM      2  O   UNL     1       4.664  -0.106  -0.044  0.00  0.00    -0.272 OA
ATOM      3  N   UNL     1       3.910  -2.192  -0.049  0.00  0.00    -0.277 N 
ATOM      4  H   UNL     1       3.149  -2.795  -0.045  0.00  0.00    +0.155 HD
ENDROOT
BRANCH   3   5
ATOM      5  C   UNL     1       5.199  -2.703  -0.065  0.00  0.00    +0.084 A 
ATOM      6  C   UNL     1       5.600  -4.031  -0.070  0.00  0.00    +0.068 A 
ATOM      7  C   UNL     1       7.027  -4.302  -0.092  0.00  0.00    -0.023 A 
ATOM      8  C   UNL     1       7.820  -3.208  -0.093  0.00  0.00    -0.004 A 
ATOM      9  S   UNL     1       6.700  -1.837  -0.074  0.00  0.00    -0.077 S 
ATOM     10  C   UNL     1       9.317  -3.178  -0.106  0.00  0.00    +0.043 C 
ATOM     11  C   UNL     1       9.833  -4.577   0.258  0.00  0.00    +0.005 C 
ATOM     12  C   UNL     1       9.077  -5.615  -0.578  0.00  0.00    +0.005 C 
ATOM     13  C   UNL     1       7.625  -5.704  -0.107  0.00  0.00    +0.037 C 
BRANCH   6  14
ATOM     14  C   UNL     1       4.620  -5.122  -0.060  0.00  0.00    +0.244 C 
ATOM     15  O   UNL     1       4.201  -5.574  -1.109  0.00  0.00    -0.270 OA
ATOM     16  N   UNL     1       4.183  -5.623   1.112  0.00  0.00    -0.325 N 
ATOM     17  H   UNL     1       4.516  -5.263   1.949  0.00  0.00    +0.145 HD
ATOM     18  H   UNL     1       3.534  -6.345   1.119  0.00  0.00    +0.145 HD
ENDBRANCH   6  14
ENDBRANCH   3   5
BRANCH   1  19
ATOM     19  C   UNL     1       2.312  -0.304  -0.023  0.00  0.00    +0.325 C 
BRANCH  19  20
ATOM     20  O   UNL     1       2.366   1.124  -0.015  0.00  0.00    -0.481 OA
BRANCH  20  23
ATOM     21  C   UNL     1      -1.218   1.751   0.017  0.00  0.00    +0.036 A 
ATOM     22  C   UNL     1      -0.013   1.076   0.008  0.00  0.00    +0.049 A 
ATOM     23  C   UNL     1       1.179   1.786   0.000  0.00  0.00    +0.140 A 
ATOM     24  C   UNL     1       1.156   3.174   0.008  0.00  0.00    +0.085 A 
ATOM     25  C   UNL     1      -0.052   3.844   0.023  0.00  0.00    +0.056 A 
ATOM     26  C   UNL     1      -1.238   3.133   0.030  0.00  0.00    +0.128 A 
ATOM     27 CL   UNL     1       2.645   4.067  -0.002  0.00  0.00    -0.080 Cl
BRANCH  26  28
ATOM     28  N   UNL     1      -2.531   3.853   0.046  0.00  0.00    +0.056 N 
ATOM     29  O   UNL     1      -2.550   5.071   0.052  0.00  0.00    -0.126 OA
ATOM     30  O   UNL     1      -3.577   3.228   0.052  0.00  0.00    -0.126 OA
ENDBRANCH  26  28
ENDBRANCH  20  23
ENDBRANCH  19  20
ENDBRANCH   1  19
TORSDOF 6
