REMARK  Name = ZINC38669082
REMARK  9 active torsions:
REMARK  status: ('A' for Active; 'I' for Inactive)
REMARK    1  A    between atoms: C_1  and  C_2
REMARK    2  A    between atoms: C_2  and  C_3
REMARK    3  A    between atoms: N_9  and  C_10
REMARK    4  A    between atoms: C_10  and  C_11
REMARK    5  A    between atoms: N_13  and  C_14
REMARK    6  A    between atoms: C_18  and  C_28
REMARK    7  A    between atoms: C_22  and  C_24
REMARK    8  A    between atoms: C_24  and  O_26
REMARK    9  A    between atoms: O_26  and  C_27
REMARK                            x       y       z     vdW  Elec       q    Type
REMARK                         _______ _______ _______ _____ _____    ______ ____
ROOT
ATOM      1  C   UNL     1      -2.283   3.868  -4.522  0.00  0.00    +0.053 C 
ATOM      2  C   UNL     1      -2.651   5.148  -4.898  0.00  0.00    +0.018 A 
ATOM      3  C   UNL     1      -2.415   6.418  -4.320  0.00  0.00    +0.012 A 
ATOM      4  C   UNL     1      -2.908   7.531  -4.918  0.00  0.00    +0.004 A 
ATOM      5  C   UNL     1      -3.651   7.460  -6.100  0.00  0.00    -0.048 A 
ATOM      6  C   UNL     1      -3.916   6.279  -6.709  0.00  0.00    +0.029 A 
ATOM      7  C   UNL     1      -3.433   5.069  -6.144  0.00  0.00    +0.045 A 
ATOM      8  N   UNL     1      -3.553   3.816  -6.534  0.00  0.00    -0.367 N 
ATOM      9  C   UNL     1      -2.852   2.950  -5.581  0.00  0.00    +0.234 C 
ATOM     10  C   UNL     1      -4.172   8.733  -6.715  0.00  0.00    +0.044 C 
ATOM     11  H   UNL     1      -4.025   3.516  -7.326  0.00  0.00    +0.161 HD
ENDROOT
BRANCH   1  14
ATOM     12  C   UNL     1      -1.039   2.267  -3.340  0.00  0.00    +0.200 C 
ATOM     13  O   UNL     1      -1.274   1.450  -4.204  0.00  0.00    -0.278 OA
ATOM     14  N   UNL     1      -1.553   3.510  -3.429  0.00  0.00    -0.288 N 
ATOM     15  H   UNL     1      -1.403   4.149  -2.715  0.00  0.00    +0.155 HD
BRANCH  12  16
ATOM     16  C   UNL     1      -0.171   1.893  -2.166  0.00  0.00    +0.019 C 
BRANCH  16  22
ATOM     17  C   UNL     1       0.946   0.076  -1.073  0.00  0.00    -0.068 C 
ATOM     18  C   UNL     1       1.326  -1.403  -1.177  0.00  0.00    -0.015 C 
ATOM     19  C   UNL     1       2.256  -1.602  -2.377  0.00  0.00    -0.003 C 
ATOM     20  C   UNL     1       1.560  -1.091  -3.641  0.00  0.00    -0.019 C 
ATOM     21  C   UNL     1       1.171   0.376  -3.446  0.00  0.00    -0.078 C 
ATOM     22  N   UNL     1       0.261   0.496  -2.301  0.00  0.00    +0.387 N 
ATOM     23  H   UNL     1      -0.547  -0.090  -2.451  0.00  0.00    -0.081 HD
BRANCH  17  25
ATOM     24  C   UNL     1       0.756  -0.085   1.413  0.00  0.00    +0.002 C 
ATOM     25  C   UNL     1       0.016   0.280   0.125  0.00  0.00    -0.019 C 
ENDBRANCH  17  25
ENDBRANCH  16  22
ENDBRANCH  12  16
ENDBRANCH   1  14
BRANCH   9  26
ATOM     26  C   UNL     1      -3.821   1.978  -4.958  0.00  0.00    +0.335 C 
ATOM     27  O   UNL     1      -5.010   2.178  -5.035  0.00  0.00    -0.248 OA
BRANCH  26  28
ATOM     28  O   UNL     1      -3.363   0.890  -4.319  0.00  0.00    -0.466 OA
ATOM     29  C   UNL     1      -4.338   0.012  -3.752  0.00  0.00    +0.280 C 
ENDBRANCH  26  28
ENDBRANCH   9  26
TORSDOF 6
