REMARK  Name = ZINC21258968
REMARK  6 active torsions:
REMARK  status: ('A' for Active; 'I' for Inactive)
REMARK    1  A    between atoms: C_1  and  C_2
REMARK    2  A    between atoms: C_2  and  C_3
REMARK    3  A    between atoms: C_6  and  C_9
REMARK    4  A    between atoms: C_14  and  C_20
REMARK    5  A    between atoms: C_23  and  C_26
REMARK    6  A    between atoms: C_26  and  C_27
REMARK                            x       y       z     vdW  Elec       q    Type
REMARK                         _______ _______ _______ _____ _____    ______ ____
ROOT
ATOM      1  C   UNL     1       1.848   1.383  -7.415  0.00  0.00    +0.032 C 
ATOM      2  C   UNL     1       1.184   0.049  -7.762  0.00  0.00    +0.059 C 
ATOM      3  C   UNL     1       1.401  -0.933  -6.637  0.00  0.00    +0.018 C 
ATOM      4  C   UNL     1       2.508  -0.871  -5.869  0.00  0.00    +0.020 C 
ATOM      5  C   UNL     1       2.707  -1.869  -4.752  0.00  0.00    +0.063 C 
ATOM      6  C   UNL     1       2.128  -3.221  -5.171  0.00  0.00    +0.109 C 
ATOM      7  C   UNL     1       0.742  -3.014  -5.725  0.00  0.00    +0.218 C 
ATOM      8  O   UNL     1      -0.110  -3.860  -5.556  0.00  0.00    -0.275 OA
ATOM      9  N   UNL     1       0.449  -1.894  -6.408  0.00  0.00    -0.289 N 
ATOM     10  C   UNL     1       3.493   0.108  -6.081  0.00  0.00    +0.162 C 
ATOM     11  O   UNL     1       4.482   0.125  -5.377  0.00  0.00    -0.292 OA
ATOM     12  C   UNL     1       3.340   1.138  -7.169  0.00  0.00    +0.088 C 
ATOM     13  H   UNL     1      -0.575  -1.755  -6.786  0.00  0.00    +0.155 HD
ENDROOT
BRANCH   1  17
ATOM     14  C   UNL     1       1.360   4.115 -10.663  0.00  0.00    -0.048 A 
ATOM     15  C   UNL     1       0.850   4.425  -9.416  0.00  0.00    +0.004 A 
ATOM     16  C   UNL     1       1.007   3.541  -8.365  0.00  0.00    +0.004 A 
ATOM     17  C   UNL     1       1.675   2.347  -8.561  0.00  0.00    -0.043 A 
ATOM     18  C   UNL     1       2.191   2.039  -9.806  0.00  0.00    +0.004 A 
ATOM     19  C   UNL     1       2.029   2.921 -10.858  0.00  0.00    +0.004 A 
BRANCH  14  21
ATOM     20  C   UNL     1       2.374   6.043 -11.846  0.00  0.00    +0.009 C 
ATOM     21  C   UNL     1       1.188   5.078 -11.809  0.00  0.00    +0.032 C 
ENDBRANCH  14  21
ENDBRANCH   1  17
BRANCH   5  22
ATOM     22  C   UNL     1       2.001  -1.383  -3.512  0.00  0.00    -0.039 A 
ATOM     23  C   UNL     1       2.720  -1.148  -2.355  0.00  0.00    +0.004 A 
ATOM     24  C   UNL     1       2.073  -0.702  -1.218  0.00  0.00    +0.004 A 
ATOM     25  C   UNL     1       0.707  -0.490  -1.238  0.00  0.00    -0.048 A 
ATOM     26  C   UNL     1      -0.012  -0.729  -2.394  0.00  0.00    +0.004 A 
ATOM     27  C   UNL     1       0.635  -1.171  -3.532  0.00  0.00    +0.004 A 
BRANCH  25  28
ATOM     28  C   UNL     1       0.002  -0.004   0.002  0.00  0.00    +0.032 C 
ATOM     29  C   UNL     1      -0.019   1.526   0.010  0.00  0.00    +0.009 C 
ENDBRANCH  25  28
ENDBRANCH   5  22
TORSDOF 4
