REMARK  Name = ZINC06849429
REMARK  5 active torsions:
REMARK  status: ('A' for Active; 'I' for Inactive)
REMARK    1  A    between atoms: C_1  and  C_2
REMARK    2  A    between atoms: N_4  and  S_12
REMARK    3  A    between atoms: C_5  and  C_7
REMARK    4  A    between atoms: C_5  and  O_11
REMARK    5  A    between atoms: S_12  and  C_15
REMARK                            x       y       z     vdW  Elec       q    Type
REMARK                         _______ _______ _______ _____ _____    ______ ____
ROOT
ATOM      1  S   UNL     1      -1.438   2.376  -0.039  0.00  0.00    +0.092 S 
ATOM      2  O   UNL     1      -1.327   3.659  -0.639  0.00  0.00    -0.148 OA
ATOM      3  O   UNL     1      -2.308   1.371  -0.544  0.00  0.00    -0.148 OA
ENDROOT
BRANCH   1   4
ATOM      4  C   UNL     1      -1.898   2.643   1.640  0.00  0.00    +0.111 A 
ATOM      5  C   UNL     1      -1.481   3.804   2.290  0.00  0.00    +0.029 A 
ATOM      6  C   UNL     1      -1.820   4.041   3.586  0.00  0.00    +0.010 A 
ATOM      7  C   UNL     1      -2.602   3.105   4.284  0.00  0.00    -0.018 A 
ATOM      8  C   UNL     1      -2.971   3.315   5.623  0.00  0.00    +0.008 A 
ATOM      9  C   UNL     1      -3.730   2.386   6.266  0.00  0.00    +0.001 A 
ATOM     10  C   UNL     1      -4.146   1.225   5.617  0.00  0.00    +0.001 A 
ATOM     11  C   UNL     1      -3.807   0.988   4.321  0.00  0.00    +0.008 A 
ATOM     12  C   UNL     1      -3.026   1.924   3.623  0.00  0.00    -0.016 A 
ATOM     13  C   UNL     1      -2.660   1.716   2.282  0.00  0.00    +0.037 A 
ENDBRANCH   1   4
BRANCH   1  17
ATOM     14  C   UNL     1       3.732   2.249   0.166  0.00  0.00    +0.062 C 
ATOM     15  C   UNL     1       2.323   1.724   0.060  0.00  0.00    +0.040 C 
ATOM     16  N   UNL     1       1.274   2.439   0.084  0.00  0.00    -0.170 NA
ATOM     17  N   UNL     1       0.084   1.724  -0.032  0.00  0.00    -0.082 N 
ATOM     18  C   UNL     1       0.405   0.292  -0.153  0.00  0.00    +0.271 C 
ATOM     19  C   UNL     1       1.946   0.268  -0.092  0.00  0.00    +0.120 C 
BRANCH  18  20
ATOM     20  C   UNL     1      -0.197  -0.497   1.012  0.00  0.00    +0.439 C 
ATOM     21  F   UNL     1      -1.593  -0.446   0.937  0.00  0.00    -0.166 F 
ATOM     22  F   UNL     1       0.226  -1.829   0.942  0.00  0.00    -0.166 F 
ATOM     23  F   UNL     1       0.226   0.063   2.222  0.00  0.00    -0.166 F 
ENDBRANCH  18  20
BRANCH  18  24
ATOM     24  O   UNL     1      -0.058  -0.225  -1.402  0.00  0.00    -0.362 OA
ATOM     25  H   UNL     1      -1.016  -0.166  -1.521  0.00  0.00    +0.212 HD
ENDBRANCH  18  24
ENDBRANCH   1  17
TORSDOF 4
