REMARK  Name = ZINC03500231
REMARK  10 active torsions:
REMARK  status: ('A' for Active; 'I' for Inactive)
REMARK    1  A    between atoms: C_1  and  C_2
REMARK    2  A    between atoms: C_5  and  C_8
REMARK    3  A    between atoms: C_11  and  S_14
REMARK    4  A    between atoms: N_12  and  N_13
REMARK    5  A    between atoms: S_14  and  C_15
REMARK    6  A    between atoms: C_15  and  C_17
REMARK    7  A    between atoms: C_15  and  C_18
REMARK    8  A    between atoms: N_20  and  C_21
REMARK    9  A    between atoms: C_21  and  C_22
REMARK   10  A    between atoms: N_24  and  C_25
REMARK                            x       y       z     vdW  Elec       q    Type
REMARK                         _______ _______ _______ _____ _____    ______ ____
ROOT
ATOM      1  C   UNL     1       5.308   8.025   0.516  0.00  0.00    +0.137 C 
ATOM      2  C   UNL     1       5.877   8.199  -0.893  0.00  0.00    +0.029 C 
ENDROOT
BRANCH   1   3
ATOM      3  C   UNL     1       3.895   7.507   0.427  0.00  0.00    +0.227 C 
ATOM      4  O   UNL     1       2.962   8.281   0.459  0.00  0.00    -0.275 OA
ATOM      5  N   UNL     1       3.669   6.183   0.312  0.00  0.00    -0.306 N 
ATOM      6  H   UNL     1       4.416   5.564   0.286  0.00  0.00    +0.149 HD
BRANCH   5   7
ATOM      7  C   UNL     1       2.296   5.679   0.225  0.00  0.00    +0.200 C 
BRANCH   7   8
ATOM      8  C   UNL     1       2.319   4.177   0.104  0.00  0.00    +0.234 C 
ATOM      9  O   UNL     1       3.378   3.586   0.091  0.00  0.00    -0.274 OA
ATOM     10  N   UNL     1       1.163   3.491   0.009  0.00  0.00    -0.282 N 
ATOM     11  H   UNL     1       0.321   3.967  -0.061  0.00  0.00    +0.155 HD
BRANCH  10  12
ATOM     12  C   UNL     1       1.178   2.090   0.013  0.00  0.00    +0.072 A 
ATOM     13  C   UNL     1       2.230   1.407   0.608  0.00  0.00    +0.029 A 
ATOM     14  C   UNL     1       2.244   0.026   0.611  0.00  0.00    +0.043 A 
ATOM     15  C   UNL     1       1.210  -0.680   0.022  0.00  0.00    +0.161 A 
ATOM     16  C   UNL     1       0.156  -0.003  -0.574  0.00  0.00    +0.195 A 
ATOM     17  C   UNL     1       0.139   1.381  -0.579  0.00  0.00    +0.182 A 
ATOM     18  F   UNL     1      -0.884   2.043  -1.163  0.00  0.00    -0.200 F 
ATOM     19  F   UNL     1      -0.852  -0.694  -1.149  0.00  0.00    -0.199 F 
ATOM     20  F   UNL     1       1.226  -2.031   0.026  0.00  0.00    -0.202 F 
ENDBRANCH  10  12
ENDBRANCH   7   8
ENDBRANCH   5   7
ENDBRANCH   1   3
BRANCH   1  21
ATOM     21  S   UNL     1       5.312   9.621   1.370  0.00  0.00    -0.072 S 
BRANCH  21  25
ATOM     22  C   UNL     1       9.007  10.788   1.870  0.00  0.00    +0.182 A 
ATOM     23  N   UNL     1       9.149   9.640   1.250  0.00  0.00    -0.127 NA
ATOM     24  N   UNL     1       7.996   9.124   1.013  0.00  0.00    -0.121 NA
ATOM     25  C   UNL     1       7.047   9.912   1.467  0.00  0.00    +0.209 A 
ATOM     26  N   UNL     1       7.656  11.000   2.023  0.00  0.00    -0.224 N 
BRANCH  22  31
ATOM     27  C   UNL     1      13.235  14.287   3.600  0.00  0.00    +0.044 C 
ATOM     28  C   UNL     1      12.128  13.371   3.147  0.00  0.00    -0.050 A 
ATOM     29  C   UNL     1      12.398  12.358   2.244  0.00  0.00    +0.004 A 
ATOM     30  C   UNL     1      11.389  11.515   1.826  0.00  0.00    +0.012 A 
ATOM     31  C   UNL     1      10.093  11.687   2.315  0.00  0.00    +0.021 A 
ATOM     32  C   UNL     1       9.826  12.714   3.222  0.00  0.00    +0.012 A 
ATOM     33  C   UNL     1      10.845  13.546   3.636  0.00  0.00    +0.004 A 
ENDBRANCH  22  31
BRANCH  26  34
ATOM     34  N   UNL     1       7.050  12.075   2.610  0.00  0.00    -0.295 N 
ATOM     35  H   UNL     1       6.917  11.919   3.598  0.00  0.00    +0.163 HD
ATOM     36  H   UNL     1       7.575  12.921   2.444  0.00  0.00    +0.163 HD
ENDBRANCH  26  34
ENDBRANCH  21  25
ENDBRANCH   1  21
TORSDOF 8
