REMARK  Name = ZINC38976062
REMARK  8 active torsions:
REMARK  status: ('A' for Active; 'I' for Inactive)
REMARK    1  A    between atoms: C_1  and  O_2
REMARK    2  A    between atoms: O_2  and  C_3
REMARK    3  A    between atoms: C_6  and  C_9
REMARK    4  A    between atoms: C_9  and  C_10
REMARK    5  A    between atoms: C_10  and  N_11
REMARK    6  A    between atoms: N_11  and  C_12
REMARK    7  A    between atoms: N_15  and  S_16
REMARK    8  A    between atoms: S_16  and  C_19
REMARK                            x       y       z     vdW  Elec       q    Type
REMARK                         _______ _______ _______ _____ _____    ______ ____
ROOT
ATOM      1  C   UNL     1       1.310  -3.735   7.651  0.00  0.00    +0.217 C 
ATOM      2  C   UNL     1       1.478  -5.180   8.065  0.00  0.00    +0.167 C 
ATOM      3  N   UNL     1       1.311  -6.137   7.201  0.00  0.00    -0.111 NA
ATOM      4  N   UNL     1       1.801  -5.460   9.338  0.00  0.00    -0.338 N 
ATOM      5  C   UNL     1       1.976  -4.508  10.231  0.00  0.00    +0.064 A 
ATOM      6  C   UNL     1       2.317  -4.840  11.567  0.00  0.00    +0.028 A 
ATOM      7  C   UNL     1       2.497  -3.868  12.488  0.00  0.00    +0.002 A 
ATOM      8  C   UNL     1       2.360  -2.502  12.187  0.00  0.00    +0.002 A 
ATOM      9  C   UNL     1       2.037  -2.077  10.946  0.00  0.00    +0.027 A 
ATOM     10  C   UNL     1       1.825  -3.073   9.886  0.00  0.00    +0.060 A 
ATOM     11  N   UNL     1       1.514  -2.700   8.676  0.00  0.00    -0.362 N 
ATOM     12  H   UNL     1       1.419  -1.760   8.457  0.00  0.00    +0.162 HD
ATOM     13  H   UNL     1       1.909  -6.385   9.606  0.00  0.00    +0.167 HD
ENDROOT
BRANCH   3  14
ATOM     14  S   UNL     1       1.497  -7.715   7.668  0.00  0.00    +0.107 S 
ATOM     15  O   UNL     1       2.868  -7.882   8.000  0.00  0.00    -0.146 OA
ATOM     16  O   UNL     1       0.451  -7.992   8.590  0.00  0.00    -0.146 OA
BRANCH  14  17
ATOM     17  C   UNL     1       1.196  -8.717   6.250  0.00  0.00    +0.150 A 
ATOM     18  C   UNL     1       2.074  -9.160   5.316  0.00  0.00    +0.037 A 
ATOM     19  C   UNL     1       1.608  -9.944   4.277  0.00  0.00    +0.010 A 
ATOM     20  C   UNL     1       0.288 -10.246   4.223  0.00  0.00    +0.047 A 
ATOM     21  S   UNL     1      -0.341  -9.418   5.674  0.00  0.00    -0.076 S 
ENDBRANCH  14  17
ENDBRANCH   3  14
BRANCH   1  22
ATOM     22  N   UNL     1       2.251  -3.472   6.554  0.00  0.00    -0.290 NA
ATOM     23  H   UNL     1       2.703  -4.322   6.253  0.00  0.00    +0.124 HD
BRANCH  22  24
ATOM     24  C   UNL     1       1.577  -2.808   5.431  0.00  0.00    +0.088 C 
BRANCH  24  25
ATOM     25  C   UNL     1       2.587  -2.550   4.310  0.00  0.00    +0.050 C 
BRANCH  25  29
ATOM     26  C   UNL     1       0.626  -0.618   1.042  0.00  0.00    +0.120 A 
ATOM     27  C   UNL     1       1.202   0.138   2.051  0.00  0.00    +0.046 A 
ATOM     28  C   UNL     1       1.835  -0.488   3.107  0.00  0.00    +0.007 A 
ATOM     29  C   UNL     1       1.895  -1.869   3.158  0.00  0.00    -0.046 A 
ATOM     30  C   UNL     1       1.322  -2.625   2.152  0.00  0.00    +0.007 A 
ATOM     31  C   UNL     1       0.682  -2.003   1.098  0.00  0.00    +0.046 A 
BRANCH  26  33
ATOM     32  C   UNL     1      -0.017   1.425   0.010  0.00  0.00    +0.277 C 
ATOM     33  O   UNL     1       0.002  -0.004   0.002  0.00  0.00    -0.495 OA
ENDBRANCH  26  33
ENDBRANCH  25  29
ENDBRANCH  24  25
ENDBRANCH  22  24
ENDBRANCH   1  22
TORSDOF 7
