REMARK  Name = ZINC39370666
REMARK  8 active torsions:
REMARK  status: ('A' for Active; 'I' for Inactive)
REMARK    1  A    between atoms: C_1  and  O_2
REMARK    2  A    between atoms: O_2  and  C_3
REMARK    3  A    between atoms: C_5  and  C_23
REMARK    4  A    between atoms: C_8  and  O_9
REMARK    5  A    between atoms: O_9  and  C_10
REMARK    6  A    between atoms: C_10  and  C_11
REMARK    7  A    between atoms: C_24  and  C_25
REMARK    8  A    between atoms: C_24  and  C_27
REMARK                            x       y       z     vdW  Elec       q    Type
REMARK                         _______ _______ _______ _____ _____    ______ ____
ROOT
ATOM      1  C   UNL     1       1.033  -0.965   0.953  0.00  0.00    +0.162 A 
ATOM      2  C   UNL     1       1.370  -0.114   1.988  0.00  0.00    +0.057 A 
ATOM      3  C   UNL     1       2.091  -0.603   3.084  0.00  0.00    -0.020 A 
ATOM      4  C   UNL     1       2.465  -1.950   3.125  0.00  0.00    +0.012 A 
ATOM      5  C   UNL     1       2.124  -2.791   2.088  0.00  0.00    +0.050 A 
ATOM      6  C   UNL     1       1.405  -2.307   1.004  0.00  0.00    +0.163 A 
ENDROOT
BRANCH   1   8
ATOM      7  C   UNL     1      -0.016   0.892  -0.099  0.00  0.00    +0.277 C 
ATOM      8  O   UNL     1       0.333  -0.493  -0.113  0.00  0.00    -0.491 OA
ENDBRANCH   1   8
BRANCH   3   9
ATOM      9  C   UNL     1       2.454   0.298   4.188  0.00  0.00    +0.026 C 
ATOM     10  C   UNL     1       2.433  -0.152   5.460  0.00  0.00    +0.072 C 
BRANCH  10  11
ATOM     11  C   UNL     1       2.959   0.715   6.575  0.00  0.00    +0.216 C 
ATOM     12  N   UNL     1       4.023   0.010   7.302  0.00  0.00    -0.359 N 
ATOM     13  C   UNL     1       3.633  -0.119   8.537  0.00  0.00    +0.060 A 
ATOM     14  C   UNL     1       4.253  -0.726   9.723  0.00  0.00    +0.027 A 
ATOM     15  C   UNL     1       3.596  -0.709  10.899  0.00  0.00    +0.002 A 
ATOM     16  C   UNL     1       2.324  -0.129  11.049  0.00  0.00    +0.002 A 
ATOM     17  C   UNL     1       1.666   0.453  10.027  0.00  0.00    +0.027 A 
ATOM     18  C   UNL     1       2.286   0.496   8.696  0.00  0.00    +0.060 A 
ATOM     19  N   UNL     1       1.896   0.980   7.552  0.00  0.00    -0.359 N 
ATOM     20  H   UNL     1       4.862  -0.303   6.929  0.00  0.00    +0.162 HD
ATOM     21  H   UNL     1       1.056   1.434   7.378  0.00  0.00    +0.162 HD
ENDBRANCH  10  11
BRANCH  10  22
ATOM     22  C   UNL     1       1.910  -1.453   5.751  0.00  0.00    +0.099 C 
ATOM     23  N   UNL     1       1.495  -2.486   5.981  0.00  0.00    -0.191 NA
ENDBRANCH  10  22
ENDBRANCH   3   9
BRANCH   6  24
ATOM     24  O   UNL     1       1.067  -3.143  -0.012  0.00  0.00    -0.481 OA
BRANCH  24  25
ATOM     25  C   UNL     1       1.480  -4.506   0.104  0.00  0.00    +0.303 C 
BRANCH  25  26
ATOM     26  C   UNL     1       1.020  -5.275  -1.107  0.00  0.00    +0.148 A 
ATOM     27  N   UNL     1       1.314  -6.600  -1.179  0.00  0.00    -0.308 N 
ATOM     28  H   UNL     1       1.809  -7.022  -0.460  0.00  0.00    +0.170 HD
ATOM     29  C   UNL     1       0.923  -7.335  -2.246  0.00  0.00    +0.259 A 
ATOM     30  O   UNL     1       1.179  -8.523  -2.324  0.00  0.00    -0.267 OA
ATOM     31  C   UNL     1       0.176  -6.644  -3.308  0.00  0.00    +0.065 A 
ATOM     32  C   UNL     1      -0.272  -7.309  -4.447  0.00  0.00    +0.015 A 
ATOM     33  C   UNL     1      -0.967  -6.612  -5.411  0.00  0.00    +0.001 A 
ATOM     34  C   UNL     1      -1.223  -5.256  -5.255  0.00  0.00    +0.002 A 
ATOM     35  C   UNL     1      -0.789  -4.580  -4.137  0.00  0.00    +0.028 A 
ATOM     36  C   UNL     1      -0.083  -5.265  -3.146  0.00  0.00    +0.078 A 
ATOM     37  N   UNL     1       0.358  -4.639  -2.026  0.00  0.00    -0.230 NA
ENDBRANCH  25  26
ENDBRANCH  24  25
ENDBRANCH   6  24
TORSDOF 7
