REMARK  Name = ZINC36523819
REMARK  9 active torsions:
REMARK  status: ('A' for Active; 'I' for Inactive)
REMARK    1  A    between atoms: C_1  and  N_2
REMARK    2  A    between atoms: N_2  and  C_3
REMARK    3  A    between atoms: C_3  and  C_5
REMARK    4  A    between atoms: C_3  and  C_12
REMARK    5  A    between atoms: N_14  and  C_15
REMARK    6  A    between atoms: C_21  and  C_23
REMARK    7  A    between atoms: C_29  and  O_31
REMARK    8  A    between atoms: O_31  and  C_32
REMARK    9  A    between atoms: C_32  and  C_33
REMARK                            x       y       z     vdW  Elec       q    Type
REMARK                         _______ _______ _______ _____ _____    ______ ____
ROOT
ATOM      1  C   UNL     1       0.324   1.667   0.484  0.00  0.00    +0.133 C 
ATOM      2  N   UNL     1       0.175   0.242   0.176  0.00  0.00    -0.287 N 
ATOM      3  C   UNL     1       0.076  -0.164  -1.105  0.00  0.00    +0.237 C 
ATOM      4  O   UNL     1      -0.047  -1.343  -1.361  0.00  0.00    -0.274 OA
ENDROOT
BRANCH   3   5
ATOM      5  C   UNL     1       0.118   0.848  -2.221  0.00  0.00    +0.165 C 
ATOM      6  C   UNL     1       1.579   1.247  -2.514  0.00  0.00    +0.033 C 
ATOM      7  C   UNL     1       1.601   1.377  -4.060  0.00  0.00    +0.021 C 
ATOM      8  C   UNL     1       0.627   0.249  -4.481  0.00  0.00    +0.112 C 
ATOM      9  N   UNL     1      -0.432   0.260  -3.451  0.00  0.00    -0.256 N 
ATOM     10  C   UNL     1      -1.691  -0.195  -3.610  0.00  0.00    +0.404 C 
ATOM     11  O   UNL     1      -2.479  -0.135  -2.687  0.00  0.00    -0.226 OA
BRANCH  10  12
ATOM     12  O   UNL     1      -2.076  -0.714  -4.791  0.00  0.00    -0.445 OA
BRANCH  12  13
ATOM     13  C   UNL     1      -3.425  -1.177  -4.888  0.00  0.00    +0.269 C 
BRANCH  13  14
ATOM     14  C   UNL     1      -3.671  -1.721  -6.271  0.00  0.00    -0.010 A 
ATOM     15  C   UNL     1      -4.124  -0.882  -7.273  0.00  0.00    +0.007 A 
ATOM     16  C   UNL     1      -4.350  -1.381  -8.542  0.00  0.00    +0.000 A 
ATOM     17  C   UNL     1      -4.122  -2.718  -8.810  0.00  0.00    +0.000 A 
ATOM     18  C   UNL     1      -3.668  -3.556  -7.809  0.00  0.00    +0.000 A 
ATOM     19  C   UNL     1      -3.438  -3.056  -6.541  0.00  0.00    +0.007 A 
ENDBRANCH  13  14
ENDBRANCH  12  13
ENDBRANCH  10  12
ENDBRANCH   3   5
BRANCH   2  20
ATOM     20  C   UNL     1       0.135  -0.742   1.261  0.00  0.00    +0.192 C 
BRANCH  20  21
ATOM     21  C   UNL     1      -1.079  -0.494   2.118  0.00  0.00    -0.018 A 
ATOM     22  C   UNL     1      -1.137   0.625   2.928  0.00  0.00    +0.007 A 
ATOM     23  C   UNL     1      -2.250   0.853   3.715  0.00  0.00    +0.020 A 
ATOM     24  C   UNL     1      -3.307  -0.040   3.692  0.00  0.00    +0.041 A 
ATOM     25  C   UNL     1      -3.249  -1.160   2.882  0.00  0.00    +0.020 A 
ATOM     26  C   UNL     1      -2.138  -1.383   2.091  0.00  0.00    +0.007 A 
ATOM     27 CL   UNL     1      -4.706   0.245   4.681  0.00  0.00    -0.084 Cl
ENDBRANCH  20  21
BRANCH  20  28
ATOM     28  C   UNL     1       1.379  -0.614   2.102  0.00  0.00    +0.238 C 
ATOM     29  O   UNL     1       2.216   0.218   1.823  0.00  0.00    -0.273 OA
ATOM     30  N   UNL     1       1.560  -1.423   3.164  0.00  0.00    -0.311 N 
ATOM     31  H   UNL     1       0.890  -2.087   3.388  0.00  0.00    +0.149 HD
BRANCH  30  32
ATOM     32  C   UNL     1       2.769  -1.298   3.982  0.00  0.00    +0.073 C 
ATOM     33  C   UNL     1       3.898  -2.116   3.352  0.00  0.00    +0.022 C 
ATOM     34  C   UNL     1       5.160  -1.986   4.206  0.00  0.00    +0.002 C 
ATOM     35  C   UNL     1       4.878  -2.508   5.616  0.00  0.00    +0.000 C 
ATOM     36  C   UNL     1       3.750  -1.690   6.246  0.00  0.00    +0.002 C 
ATOM     37  C   UNL     1       2.487  -1.820   5.392  0.00  0.00    +0.022 C 
ENDBRANCH  30  32
ENDBRANCH  20  28
ENDBRANCH   2  20
TORSDOF 8
