REMARK  Name = ZINC54580844
REMARK  15 active torsions:
REMARK  status: ('A' for Active; 'I' for Inactive)
REMARK    1  A    between atoms: C_1  and  C_2
REMARK    2  A    between atoms: C_2  and  C_3
REMARK    3  A    between atoms: C_2  and  N_4
REMARK    4  A    between atoms: N_4  and  C_5
REMARK    5  A    between atoms: N_4  and  C_24
REMARK    6  A    between atoms: C_5  and  C_6
REMARK    7  A    between atoms: C_6  and  N_7
REMARK    8  A    between atoms: N_10  and  C_11
REMARK    9  A    between atoms: C_11  and  C_12
REMARK   10  A    between atoms: C_11  and  C_13
REMARK   11  A    between atoms: C_16  and  S_19
REMARK   12  A    between atoms: S_19  and  N_22
REMARK   13  A    between atoms: N_22  and  C_23
REMARK   14  A    between atoms: C_24  and  C_25
REMARK   15  A    between atoms: C_24  and  C_26
REMARK                            x       y       z     vdW  Elec       q    Type
REMARK                         _______ _______ _______ _____ _____    ______ ____
ROOT
ATOM      1  N   UNL     1      -3.042   2.023  -2.231  0.00  0.00    -0.301 N 
ATOM      2  C   UNL     1      -3.288   3.337  -2.405  0.00  0.00    +0.300 C 
ATOM      3  O   UNL     1      -2.849   4.148  -1.613  0.00  0.00    -0.253 OA
ATOM      4  N   UNL     1      -4.021   3.751  -3.458  0.00  0.00    -0.293 N 
ATOM      5  H   UNL     1      -3.392   1.376  -2.863  0.00  0.00    +0.150 HD
ATOM      6  H   UNL     1      -4.372   3.104  -4.090  0.00  0.00    +0.151 HD
ENDROOT
BRANCH   4   7
ATOM      7  C   UNL     1      -4.289   5.179  -3.647  0.00  0.00    +0.102 C 
ATOM      8  C   UNL     1      -5.513   5.582  -2.822  0.00  0.00    +0.033 C 
BRANCH   7   9
ATOM      9  C   UNL     1      -4.554   5.452  -5.105  0.00  0.00    -0.027 A 
ATOM     10  C   UNL     1      -5.310   4.564  -5.848  0.00  0.00    +0.007 A 
ATOM     11  C   UNL     1      -5.552   4.814  -7.186  0.00  0.00    +0.029 A 
ATOM     12  C   UNL     1      -5.039   5.952  -7.780  0.00  0.00    +0.105 A 
ATOM     13  C   UNL     1      -4.284   6.840  -7.037  0.00  0.00    +0.029 A 
ATOM     14  C   UNL     1      -4.045   6.592  -5.699  0.00  0.00    +0.007 A 
BRANCH  12  15
ATOM     15  S   UNL     1      -5.348   6.270  -9.486  0.00  0.00    +0.058 S 
ATOM     16  O   UNL     1      -4.302   7.120  -9.936  0.00  0.00    -0.153 OA
ATOM     17  O   UNL     1      -5.621   5.013 -10.090  0.00  0.00    -0.153 OA
BRANCH  15  18
ATOM     18  N   UNL     1      -6.747   7.152  -9.574  0.00  0.00    -0.193 NA
ATOM     19  C   UNL     1      -6.799   8.502  -9.008  0.00  0.00    +0.127 C 
ATOM     20  H   UNL     1      -7.532   6.774 -10.001  0.00  0.00    +0.148 HD
ENDBRANCH  15  18
ENDBRANCH  12  15
ENDBRANCH   7   9
ENDBRANCH   4   7
BRANCH   1  21
ATOM     21  C   UNL     1      -2.245   1.573  -1.087  0.00  0.00    +0.087 C 
BRANCH  21  22
ATOM     22  C   UNL     1      -2.116   0.048  -1.124  0.00  0.00    -0.059 C 
BRANCH  22  23
ATOM     23  N   UNL     1      -1.448  -0.416   0.099  0.00  0.00    +0.384 N 
ATOM     24  H   UNL     1      -1.932  -0.052   0.905  0.00  0.00    -0.081 HD
BRANCH  23  26
ATOM     25  C   UNL     1       0.438   0.208  -1.333  0.00  0.00    -0.014 C 
ATOM     26  C   UNL     1      -0.057   0.057   0.107  0.00  0.00    -0.074 C 
ATOM     27  C   UNL     1       0.017   1.410   0.817  0.00  0.00    -0.014 C 
ENDBRANCH  23  26
BRANCH  23  28
ATOM     28  C   UNL     1      -1.466  -1.885   0.139  0.00  0.00    -0.074 C 
ATOM     29  C   UNL     1      -0.882  -2.366   1.469  0.00  0.00    -0.014 C 
ATOM     30  C   UNL     1      -2.907  -2.381   0.005  0.00  0.00    -0.014 C 
ENDBRANCH  23  28
ENDBRANCH  22  23
ENDBRANCH  21  22
ENDBRANCH   1  21
TORSDOF 9
