REMARK  Name = ZINC31004245
REMARK  10 active torsions:
REMARK  status: ('A' for Active; 'I' for Inactive)
REMARK    1  A    between atoms: C_1  and  C_2
REMARK    2  A    between atoms: C_2  and  C_3
REMARK    3  A    between atoms: C_3  and  N_4
REMARK    4  A    between atoms: N_4  and  C_5
REMARK    5  A    between atoms: N_4  and  C_16
REMARK    6  A    between atoms: C_5  and  C_6
REMARK    7  A    between atoms: N_8  and  C_9
REMARK    8  A    between atoms: C_14  and  C_15
REMARK    9  A    between atoms: C_16  and  C_17
REMARK   10  A    between atoms: C_22  and  C_25
REMARK                            x       y       z     vdW  Elec       q    Type
REMARK                         _______ _______ _______ _____ _____    ______ ____
ROOT
ATOM      1  C   UNL     1       0.738   3.729   1.814  0.00  0.00    +0.019 C 
ENDROOT
BRANCH   1   2
ATOM      2  C   UNL     1       1.840   3.100   1.002  0.00  0.00    +0.199 C 
ATOM      3  O   UNL     1       2.958   3.570   1.030  0.00  0.00    -0.278 OA
ATOM      4  N   UNL     1       1.584   2.016   0.243  0.00  0.00    -0.299 N 
ATOM      5  C   UNL     1       2.639   1.378  -0.563  0.00  0.00    +0.112 C 
ATOM      6  C   UNL     1       2.829  -0.051  -0.048  0.00  0.00    +0.054 C 
ATOM      7  C   UNL     1       1.499  -0.716   0.150  0.00  0.00    -0.039 C 
ATOM      8  C   UNL     1       0.359  -0.075   0.262  0.00  0.00    -0.004 C 
ATOM      9  C   UNL     1       0.240   1.422   0.188  0.00  0.00    +0.135 C 
BRANCH   7  10
ATOM     10  C   UNL     1       1.470  -2.190   0.223  0.00  0.00    +0.003 A 
ATOM     11  C   UNL     1       1.598  -3.056  -0.815  0.00  0.00    +0.091 A 
ATOM     12  N   UNL     1       1.524  -4.339  -0.356  0.00  0.00    -0.360 N 
ATOM     13  H   UNL     1       1.615  -5.181  -1.059  0.00  0.00    +0.165 HD
ATOM     14  C   UNL     1       1.333  -4.346   1.009  0.00  0.00    +0.047 A 
ATOM     15  C   UNL     1       1.291  -3.008   1.435  0.00  0.00    +0.007 A 
ATOM     16  C   UNL     1       1.107  -2.710   2.784  0.00  0.00    +0.010 A 
ATOM     17  C   UNL     1       0.967  -3.733   3.695  0.00  0.00    +0.001 A 
ATOM     18  C   UNL     1       1.009  -5.055   3.276  0.00  0.00    +0.002 A 
ATOM     19  C   UNL     1       1.190  -5.365   1.945  0.00  0.00    +0.026 A 
ENDBRANCH   7  10
ENDBRANCH   1   2
BRANCH   1  20
ATOM     20  N   UNL     1       1.269   4.886   2.547  0.00  0.00    +0.391 N 
ATOM     21  H   UNL     1       1.783   5.537   1.824  0.00  0.00    -0.080 HD
BRANCH  20  22
ATOM     22  C   UNL     1       2.251   4.466   3.555  0.00  0.00    -0.078 C 
BRANCH  22  24
ATOM     23  C   UNL     1       3.992   5.268   5.157  0.00  0.00    +0.002 C 
ATOM     24  C   UNL     1       2.879   5.703   4.201  0.00  0.00    -0.022 C 
ENDBRANCH  22  24
ENDBRANCH  20  22
BRANCH  20  25
ATOM     25  C   UNL     1       0.184   5.664   3.160  0.00  0.00    +0.020 C 
BRANCH  25  26
ATOM     26  C   UNL     1      -0.526   6.462   2.097  0.00  0.00    +0.201 C 
ATOM     27  O   UNL     1      -0.222   6.323   0.930  0.00  0.00    -0.278 OA
ATOM     28  N   UNL     1      -1.498   7.330   2.441  0.00  0.00    -0.287 N 
ATOM     29  H   UNL     1      -1.838   7.388   3.486  0.00  0.00    +0.155 HD
BRANCH  28  30
ATOM     30  C   UNL     1      -2.074   8.157   1.471  0.00  0.00    +0.036 A 
ATOM     31  C   UNL     1      -1.363   8.482   0.322  0.00  0.00    +0.023 A 
ATOM     32  C   UNL     1      -1.936   9.294  -0.636  0.00  0.00    +0.002 A 
ATOM     33  C   UNL     1      -3.212   9.793  -0.449  0.00  0.00    +0.000 A 
ATOM     34  C   UNL     1      -3.920   9.476   0.696  0.00  0.00    +0.005 A 
ATOM     35  C   UNL     1      -3.355   8.659   1.656  0.00  0.00    -0.029 A 
ATOM     36  C   UNL     1      -4.127   8.315   2.903  0.00  0.00    +0.045 C 
ENDBRANCH  28  30
ENDBRANCH  25  26
ENDBRANCH  20  25
ENDBRANCH   1  20
TORSDOF 8
