REMARK  Name = ZINC08625789
REMARK  15 active torsions:
REMARK  status: ('A' for Active; 'I' for Inactive)
REMARK    1  A    between atoms: C_1  and  C_2
REMARK    2  A    between atoms: C_2  and  O_3
REMARK    3  A    between atoms: O_3  and  C_4
REMARK    4  A    between atoms: C_4  and  C_6
REMARK    5  A    between atoms: C_7  and  C_22
REMARK    6  A    between atoms: C_12  and  C_14
REMARK    7  A    between atoms: C_17  and  O_20
REMARK    8  A    between atoms: O_20  and  C_21
REMARK    9  A    between atoms: C_22  and  O_23
REMARK   10  A    between atoms: O_23  and  C_24
REMARK   11  A    between atoms: C_24  and  C_26
REMARK   12  A    between atoms: C_26  and  N_27
REMARK   13  A    between atoms: C_28  and  C_30
REMARK   14  A    between atoms: C_30  and  O_31
REMARK   15  A    between atoms: O_31  and  C_32
REMARK                            x       y       z     vdW  Elec       q    Type
REMARK                         _______ _______ _______ _____ _____    ______ ____
ROOT
ATOM      1  C   UNL     1       3.063   0.984   1.394  0.00  0.00    +0.081 C 
ATOM      2  C   UNL     1       4.257   1.576   1.608  0.00  0.00    +0.061 C 
ATOM      3  N   UNL     1       4.944   2.166   0.586  0.00  0.00    -0.269 N 
ATOM      4  C   UNL     1       4.505   2.207  -0.678  0.00  0.00    +0.304 C 
ATOM      5  O   UNL     1       5.187   2.756  -1.521  0.00  0.00    -0.252 OA
ATOM      6  N   UNL     1       3.330   1.658  -1.047  0.00  0.00    -0.288 N 
ATOM      7  C   UNL     1       2.512   0.996  -0.017  0.00  0.00    +0.144 C 
ATOM      8  H   UNL     1       5.798   2.580   0.787  0.00  0.00    +0.156 HD
ATOM      9  H   UNL     1       3.030   1.699  -1.969  0.00  0.00    +0.151 HD
ENDROOT
BRANCH   7  10
ATOM     10  C   UNL     1       1.167   1.675   0.015  0.00  0.00    -0.022 A 
ATOM     11  C   UNL     1       0.011   0.917   0.019  0.00  0.00    +0.009 A 
ATOM     12  C   UNL     1      -1.224   1.538   0.043  0.00  0.00    +0.046 A 
ATOM     13  C   UNL     1      -1.302   2.922   0.075  0.00  0.00    +0.120 A 
ATOM     14  C   UNL     1      -0.141   3.681   0.071  0.00  0.00    +0.046 A 
ATOM     15  C   UNL     1       1.091   3.056   0.042  0.00  0.00    +0.009 A 
BRANCH  13  16
ATOM     16  O   UNL     1      -2.515   3.535   0.104  0.00  0.00    -0.495 OA
ATOM     17  C   UNL     1      -3.668   2.691   0.106  0.00  0.00    +0.277 C 
ENDBRANCH  13  16
ENDBRANCH   7  10
BRANCH   1  18
ATOM     18  C   UNL     1       2.350   0.373   2.453  0.00  0.00    +0.339 C 
ATOM     19  O   UNL     1       2.853   0.292   3.558  0.00  0.00    -0.245 OA
BRANCH  18  20
ATOM     20  O   UNL     1       1.113  -0.121   2.236  0.00  0.00    -0.462 OA
BRANCH  20  22
ATOM     21  C   UNL     1      -0.929  -1.221   2.915  0.00  0.00    +0.048 C 
ATOM     22  C   UNL     1       0.451  -0.724   3.350  0.00  0.00    +0.229 C 
ENDBRANCH  20  22
ENDBRANCH  18  20
ENDBRANCH   1  18
BRANCH   2  23
ATOM     23  C   UNL     1       4.842   1.586   2.997  0.00  0.00    +0.283 C 
BRANCH  23  24
ATOM     24  O   UNL     1       6.092   2.325   2.990  0.00  0.00    -0.458 OA
BRANCH  24  25
ATOM     25  C   UNL     1       6.745   2.428   4.159  0.00  0.00    +0.325 C 
ATOM     26  O   UNL     1       6.287   1.918   5.154  0.00  0.00    -0.249 OA
BRANCH  25  27
ATOM     27  C   UNL     1       8.049   3.180   4.229  0.00  0.00    +0.225 C 
BRANCH  27  28
ATOM     28  N   UNL     1       8.557   3.148   5.603  0.00  0.00    -0.302 N 
ATOM     29  C   UNL     1       9.719   3.760   5.906  0.00  0.00    +0.251 C 
ATOM     30  O   UNL     1      10.344   4.337   5.041  0.00  0.00    -0.272 OA
ATOM     31  H   UNL     1       8.058   2.687   6.294  0.00  0.00    +0.149 HD
BRANCH  29  32
ATOM     32  C   UNL     1      10.242   3.728   7.319  0.00  0.00    +0.324 C 
BRANCH  32  33
ATOM     33  O   UNL     1      11.479   4.441   7.386  0.00  0.00    -0.483 OA
BRANCH  33  34
ATOM     34  C   UNL     1      12.088   4.508   8.599  0.00  0.00    +0.121 A 
ATOM     35  C   UNL     1      11.504   3.904   9.703  0.00  0.00    +0.045 A 
ATOM     36  C   UNL     1      12.128   3.968  10.934  0.00  0.00    +0.004 A 
ATOM     37  C   UNL     1      13.328   4.643  11.068  0.00  0.00    +0.000 A 
ATOM     38  C   UNL     1      13.908   5.250   9.970  0.00  0.00    +0.004 A 
ATOM     39  C   UNL     1      13.291   5.184   8.736  0.00  0.00    +0.045 A 
ENDBRANCH  33  34
ENDBRANCH  32  33
ENDBRANCH  29  32
ENDBRANCH  27  28
ENDBRANCH  25  27
ENDBRANCH  24  25
ENDBRANCH  23  24
ENDBRANCH   2  23
TORSDOF 13
