REMARK  Name = ZINC01984266
REMARK  8 active torsions:
REMARK  status: ('A' for Active; 'I' for Inactive)
REMARK    1  A    between atoms: C_1  and  C_2
REMARK    2  A    between atoms: C_4  and  O_11
REMARK    3  A    between atoms: C_6  and  C_9
REMARK    4  A    between atoms: O_11  and  C_12
REMARK    5  A    between atoms: C_12  and  C_13
REMARK    6  A    between atoms: N_15  and  C_16
REMARK    7  A    between atoms: C_17  and  C_27
REMARK    8  A    between atoms: C_22  and  C_26
REMARK                            x       y       z     vdW  Elec       q    Type
REMARK                         _______ _______ _______ _____ _____    ______ ____
ROOT
ATOM      1  C   UNL     1       0.017  -2.877  -4.781  0.00  0.00    +0.255 C 
ATOM      2  O   UNL     1       0.034  -4.080  -4.628  0.00  0.00    -0.272 OA
ATOM      3  N   UNL     1       0.004  -2.357  -6.024  0.00  0.00    -0.277 N 
ATOM      4  H   UNL     1      -0.010  -1.394  -6.147  0.00  0.00    +0.155 HD
ENDROOT
BRANCH   3   5
ATOM      5  C   UNL     1       0.010  -3.196  -7.128  0.00  0.00    +0.084 A 
ATOM      6  C   UNL     1       0.004  -2.842  -8.467  0.00  0.00    +0.068 A 
ATOM      7  C   UNL     1       0.012  -3.921  -9.440  0.00  0.00    -0.023 A 
ATOM      8  C   UNL     1       0.025  -5.157  -8.894  0.00  0.00    -0.004 A 
ATOM      9  S   UNL     1       0.033  -4.875  -7.147  0.00  0.00    -0.077 S 
ATOM     10  C   UNL     1       0.038  -6.463  -9.625  0.00  0.00    +0.046 C 
ATOM     11  C   UNL     1       0.415  -6.193 -11.089  0.00  0.00    -0.009 C 
ATOM     12  C   UNL     1      -0.434  -5.030 -11.612  0.00  0.00    +0.008 C 
ATOM     13  C   UNL     1       0.006  -3.724 -10.948  0.00  0.00    +0.037 C 
ATOM     14  C   UNL     1       0.146  -7.444 -11.927  0.00  0.00    +0.008 C 
BRANCH   6  15
ATOM     15  C   UNL     1      -0.011  -1.437  -8.886  0.00  0.00    +0.244 C 
ATOM     16  O   UNL     1       1.037  -0.844  -9.062  0.00  0.00    -0.270 OA
ATOM     17  N   UNL     1      -1.185  -0.803  -9.076  0.00  0.00    -0.325 N 
ATOM     18  H   UNL     1      -2.020  -1.276  -8.936  0.00  0.00    +0.145 HD
ATOM     19  H   UNL     1      -1.195   0.127  -9.353  0.00  0.00    +0.145 HD
ENDBRANCH   6  15
ENDBRANCH   3   5
BRANCH   1  20
ATOM     20  C   UNL     1       0.011  -1.965  -3.582  0.00  0.00    +0.325 C 
BRANCH  20  21
ATOM     21  O   UNL     1       0.028  -2.749  -2.387  0.00  0.00    -0.482 OA
BRANCH  21  25
ATOM     22  C   UNL     1      -0.018   1.503   0.010  0.00  0.00    +0.045 C 
ATOM     23  C   UNL     1       0.002  -0.004   0.002  0.00  0.00    -0.028 A 
ATOM     24  C   UNL     1       0.006  -0.688  -1.199  0.00  0.00    +0.051 A 
ATOM     25  C   UNL     1       0.025  -2.074  -1.206  0.00  0.00    +0.136 A 
ATOM     26  C   UNL     1       0.040  -2.773  -0.007  0.00  0.00    +0.064 A 
ATOM     27  C   UNL     1       0.036  -2.085   1.192  0.00  0.00    -0.014 A 
ATOM     28  C   UNL     1       0.023  -0.702   1.196  0.00  0.00    +0.048 A 
ATOM     29 CL   UNL     1       0.025   0.160   2.704  0.00  0.00    -0.083 Cl
ATOM     30  C   UNL     1       0.052  -2.843   2.495  0.00  0.00    +0.046 C 
ATOM     31 BR   UNL     1       0.065  -4.664  -0.013  0.00  0.00    -0.046 Br
ENDBRANCH  21  25
ENDBRANCH  20  21
ENDBRANCH   1  20
TORSDOF 5
