REMARK  Name = ZINC13923521
REMARK  4 active torsions:
REMARK  status: ('A' for Active; 'I' for Inactive)
REMARK    1  A    between atoms: C_6  and  C_7
REMARK    2  A    between atoms: N_8  and  N_9
REMARK    3  A    between atoms: C_10  and  C_12
REMARK    4  A    between atoms: N_14  and  C_15
REMARK                            x       y       z     vdW  Elec       q    Type
REMARK                         _______ _______ _______ _____ _____    ______ ____
ROOT
ATOM      1  N   UNL     1      -2.443  -2.780   0.007  0.00  0.00    -0.199 N 
ATOM      2  C   UNL     1      -2.421  -4.128  -0.003  0.00  0.00    +0.318 C 
ATOM      3  O   UNL     1      -1.360  -4.718  -0.025  0.00  0.00    -0.263 OA
ATOM      4  H   UNL     1      -3.290  -2.309   0.025  0.00  0.00    +0.178 HD
ENDROOT
BRANCH   2   5
ATOM      5  C   UNL     1      -3.700  -4.894   0.015  0.00  0.00    +0.305 C 
ATOM      6  O   UNL     1      -4.761  -4.304   0.037  0.00  0.00    -0.265 OA
ATOM      7  N   UNL     1      -3.679  -6.242   0.005  0.00  0.00    -0.278 N 
ATOM      8  H   UNL     1      -2.835  -6.713  -0.081  0.00  0.00    +0.155 HD
BRANCH   7   9
ATOM      9  C   UNL     1      -4.872  -6.960   0.119  0.00  0.00    +0.037 A 
ATOM     10  C   UNL     1      -4.896  -8.163   0.814  0.00  0.00    +0.043 A 
ATOM     11  C   UNL     1      -6.078  -8.871   0.925  0.00  0.00    +0.044 A 
ATOM     12  C   UNL     1      -7.236  -8.384   0.344  0.00  0.00    +0.040 A 
ATOM     13  C   UNL     1      -7.214  -7.187  -0.350  0.00  0.00    +0.044 A 
ATOM     14  C   UNL     1      -6.037  -6.471  -0.459  0.00  0.00    +0.043 A 
ATOM     15 CL   UNL     1      -8.668  -6.580  -1.078  0.00  0.00    -0.083 Cl
ATOM     16 CL   UNL     1      -6.110 -10.374   1.794  0.00  0.00    -0.083 Cl
ENDBRANCH   7   9
ENDBRANCH   2   5
BRANCH   1  18
ATOM     17  C   UNL     1      -1.262  -0.762  -0.000  0.00  0.00    +0.138 C 
ATOM     18  N   UNL     1      -1.241  -2.061  -0.009  0.00  0.00    -0.187 NA
BRANCH  17  24
ATOM     19  C   UNL     1      -0.016   1.393  -0.007  0.00  0.00    +0.011 A 
ATOM     20  C   UNL     1       1.170   2.095  -0.023  0.00  0.00    +0.020 A 
ATOM     21  C   UNL     1       2.379   1.419  -0.049  0.00  0.00    +0.041 A 
ATOM     22  C   UNL     1       2.405   0.034  -0.059  0.00  0.00    +0.020 A 
ATOM     23  C   UNL     1       1.225  -0.680  -0.043  0.00  0.00    +0.011 A 
ATOM     24  C   UNL     1       0.003  -0.004  -0.017  0.00  0.00    -0.005 A 
ATOM     25 CL   UNL     1       3.868   2.311  -0.069  0.00  0.00    -0.084 Cl
ENDBRANCH  17  24
ENDBRANCH   1  18
TORSDOF 4
