REMARK  Name = ZINC67292616
REMARK  7 active torsions:
REMARK  status: ('A' for Active; 'I' for Inactive)
REMARK    1  A    between atoms: C_1  and  C_2
REMARK    2  A    between atoms: C_2  and  C_3
REMARK    3  A    between atoms: C_2  and  C_4
REMARK    4  A    between atoms: C_8  and  N_10
REMARK    5  A    between atoms: C_12  and  C_23
REMARK    6  A    between atoms: C_18  and  O_21
REMARK    7  A    between atoms: O_21  and  C_22
REMARK                            x       y       z     vdW  Elec       q    Type
REMARK                         _______ _______ _______ _____ _____    ______ ____
ROOT
ATOM      1  N   UNL     1      -3.612  -2.600  -2.032  0.00  0.00    -0.325 N 
ATOM      2  C   UNL     1      -4.306  -3.686  -1.764  0.00  0.00    +0.212 A 
ATOM      3  C   UNL     1      -4.894  -4.500  -2.846  0.00  0.00    +0.097 A 
ATOM      4  C   UNL     1      -5.097  -5.848  -2.585  0.00  0.00    +0.030 A 
ATOM      5  C   UNL     1      -4.710  -6.343  -1.261  0.00  0.00    +0.022 A 
ATOM      6  C   UNL     1      -4.631  -7.718  -1.005  0.00  0.00    +0.012 A 
ATOM      7  C   UNL     1      -4.262  -8.157   0.235  0.00  0.00    +0.004 A 
ATOM      8  C   UNL     1      -3.966  -7.254   1.246  0.00  0.00    +0.049 A 
ATOM      9  C   UNL     1      -4.040  -5.891   1.016  0.00  0.00    +0.163 A 
ATOM     10  C   UNL     1      -4.415  -5.422  -0.240  0.00  0.00    +0.179 A 
ATOM     11  O   UNL     1      -4.497  -4.094  -0.484  0.00  0.00    -0.435 OA
ATOM     12  H   UNL     1      -3.410  -2.369  -2.953  0.00  0.00    +0.169 HD
ENDROOT
BRANCH   1  17
ATOM     13  C   UNL     1      -1.434  -0.505   0.017  0.00  0.00    -0.043 A 
ATOM     14  C   UNL     1      -2.296  -0.173   1.048  0.00  0.00    +0.004 A 
ATOM     15  C   UNL     1      -3.595  -0.649   1.054  0.00  0.00    +0.002 A 
ATOM     16  C   UNL     1      -4.041  -1.459   0.030  0.00  0.00    +0.026 A 
ATOM     17  C   UNL     1      -3.177  -1.798  -1.014  0.00  0.00    +0.042 A 
ATOM     18  C   UNL     1      -1.868  -1.309  -1.016  0.00  0.00    +0.029 A 
BRANCH  13  20
ATOM     19  C   UNL     1      -0.045   1.549   0.013  0.00  0.00    +0.012 C 
ATOM     20  C   UNL     1      -0.021   0.019   0.019  0.00  0.00    +0.013 C 
ATOM     21  C   UNL     1       0.703  -0.474   1.274  0.00  0.00    +0.012 C 
ENDBRANCH  13  20
ENDBRANCH   1  17
BRANCH   3  22
ATOM     22  C   UNL     1      -5.250  -3.907  -4.147  0.00  0.00    +0.247 C 
ATOM     23  O   UNL     1      -4.981  -2.744  -4.379  0.00  0.00    -0.270 OA
ATOM     24  N   UNL     1      -5.874  -4.653  -5.079  0.00  0.00    -0.325 N 
ATOM     25  H   UNL     1      -6.155  -5.558  -4.869  0.00  0.00    +0.145 HD
ATOM     26  H   UNL     1      -6.043  -4.286  -5.961  0.00  0.00    +0.145 HD
ENDBRANCH   3  22
BRANCH   9  27
ATOM     27  O   UNL     1      -3.749  -5.014   2.013  0.00  0.00    -0.491 OA
ATOM     28  C   UNL     1      -3.373  -5.568   3.276  0.00  0.00    +0.277 C 
ENDBRANCH   9  27
TORSDOF 4
