REMARK  Name = ZINC43639873
REMARK  6 active torsions:
REMARK  status: ('A' for Active; 'I' for Inactive)
REMARK    1  A    between atoms: C_1  and  C_2
REMARK    2  A    between atoms: C_2  and  C_3
REMARK    3  A    between atoms: C_6  and  C_8
REMARK    4  A    between atoms: C_8  and  C_10
REMARK    5  A    between atoms: C_8  and  N_21
REMARK    6  A    between atoms: N_21  and  C_22
REMARK                            x       y       z     vdW  Elec       q    Type
REMARK                         _______ _______ _______ _____ _____    ______ ____
ROOT
ATOM      1  C   UNL     1       3.550  -1.835   4.021  0.00  0.00    -0.002 C 
ENDROOT
BRANCH   1   2
ATOM      2  C   UNL     1       3.871  -3.276   3.717  0.00  0.00    -0.039 A 
ATOM      3  C   UNL     1       4.951  -3.586   2.912  0.00  0.00    +0.052 A 
ATOM      4  C   UNL     1       5.251  -4.911   2.632  0.00  0.00    +0.162 A 
ATOM      5  C   UNL     1       4.463  -5.926   3.164  0.00  0.00    +0.163 A 
ATOM      6  C   UNL     1       3.380  -5.608   3.969  0.00  0.00    +0.065 A 
ATOM      7  C   UNL     1       3.090  -4.285   4.249  0.00  0.00    +0.023 A 
ATOM      8 BR   UNL     1       1.617  -3.855   5.355  0.00  0.00    -0.050 Br
ATOM      9  O   UNL     1       4.744  -7.232   2.907  0.00  0.00    -0.485 OA
ATOM     10  C   UNL     1       5.609  -7.499   1.798  0.00  0.00    +0.270 C 
ATOM     11  C   UNL     1       6.808  -6.544   1.882  0.00  0.00    +0.270 C 
ATOM     12  O   UNL     1       6.315  -5.201   1.834  0.00  0.00    -0.485 OA
ENDBRANCH   1   2
BRANCH   1  16
ATOM     13  C   UNL     1       0.731  -0.503   1.223  0.00  0.00    -0.010 A 
ATOM     14  C   UNL     1       0.236  -0.806   2.448  0.00  0.00    +0.011 A 
ATOM     15  C   UNL     1       1.102  -1.254   3.429  0.00  0.00    +0.010 A 
ATOM     16  C   UNL     1       2.420  -1.375   3.136  0.00  0.00    -0.020 A 
ATOM     17  S   UNL     1       2.469  -0.856   1.429  0.00  0.00    -0.099 S 
BRANCH  13  19
ATOM     18  C   UNL     1      -0.019   1.526   0.010  0.00  0.00    +0.009 C 
ATOM     19  C   UNL     1       0.002  -0.004   0.002  0.00  0.00    +0.039 C 
ENDBRANCH  13  19
ENDBRANCH   1  16
BRANCH   1  20
ATOM     20  N   UNL     1       4.736  -1.005   3.772  0.00  0.00    +0.385 N 
ATOM     21  C   UNL     1       4.460   0.379   4.181  0.00  0.00    -0.099 C 
ATOM     22  H   UNL     1       5.515  -1.364   4.303  0.00  0.00    -0.085 HD
ATOM     23  H   UNL     1       4.961  -1.027   2.789  0.00  0.00    -0.085 HD
ENDBRANCH   1  20
TORSDOF 4
