REMARK  Name = ZINC27577850
REMARK  8 active torsions:
REMARK  status: ('A' for Active; 'I' for Inactive)
REMARK    1  A    between atoms: C_1  and  C_2
REMARK    2  A    between atoms: C_2  and  C_3
REMARK    3  A    between atoms: C_3  and  C_4
REMARK    4  A    between atoms: C_8  and  C_21
REMARK    5  A    between atoms: C_9  and  O_10
REMARK    6  A    between atoms: C_14  and  C_15
REMARK    7  A    between atoms: C_21  and  C_22
REMARK    8  A    between atoms: C_22  and  C_23
REMARK                            x       y       z     vdW  Elec       q    Type
REMARK                         _______ _______ _______ _____ _____    ______ ____
ROOT
ATOM      1  C   UNL     1       0.011   1.072   2.506  0.00  0.00    -0.005 C 
ATOM      2  C   UNL     1       0.034  -0.461   2.514  0.00  0.00    -0.066 C 
ATOM      3  N   UNL     1       0.773  -0.921   3.699  0.00  0.00    +0.391 N 
ATOM      4  C   UNL     1       0.089  -0.504   4.933  0.00  0.00    -0.066 C 
ATOM      5  C   UNL     1       0.066   1.027   4.996  0.00  0.00    -0.005 C 
ATOM      6  C   UNL     1      -0.697   1.560   3.777  0.00  0.00    +0.126 C 
ATOM      7  C   UNL     1       1.509   1.541   4.939  0.00  0.00    +0.090 C 
ATOM      8  N   UNL     1       2.142   1.051   3.705  0.00  0.00    -0.314 NA
ATOM      9  C   UNL     1       1.450   1.601   2.511  0.00  0.00    +0.090 C 
ATOM     10  C   UNL     1       2.155  -0.419   3.679  0.00  0.00    +0.005 C 
ATOM     11  H   UNL     1       0.806  -2.021   3.677  0.00  0.00    -0.079 HD
ENDROOT
BRANCH  10  12
ATOM     12  C   UNL     1       2.853  -0.901   2.405  0.00  0.00    -0.011 C 
ATOM     13  C   UNL     1       2.866  -2.430   2.378  0.00  0.00    +0.003 C 
ATOM     14  C   UNL     1       3.565  -2.912   1.105  0.00  0.00    +0.000 C 
ATOM     15  C   UNL     1       5.003  -2.389   1.084  0.00  0.00    +0.000 C 
ATOM     16  C   UNL     1       4.990  -0.860   1.111  0.00  0.00    +0.000 C 
ATOM     17  C   UNL     1       4.291  -0.378   2.384  0.00  0.00    +0.003 C 
ENDBRANCH  10  12
BRANCH   6  18
ATOM     18  O   UNL     1      -2.038   1.069   3.797  0.00  0.00    -0.391 OA
ATOM     19  H   UNL     1      -2.703   1.318   4.638  0.00  0.00    +0.210 HD
ENDBRANCH   6  18
BRANCH   1  20
ATOM     20  C   UNL     1      -0.729   1.579   1.267  0.00  0.00    +0.008 C 
BRANCH  20  22
ATOM     21  C   UNL     1      -0.753   1.593  -1.232  0.00  0.00    +0.004 C 
ATOM     22  C   UNL     1      -0.013   1.086   0.008  0.00  0.00    -0.003 C 
ENDBRANCH  20  22
ENDBRANCH   1  20
BRANCH   5  23
ATOM     23  C   UNL     1      -0.619   1.488   6.285  0.00  0.00    +0.008 C 
BRANCH  23  24
ATOM     24  C   UNL     1       0.152   0.950   7.492  0.00  0.00    -0.003 C 
ATOM     25  C   UNL     1      -0.533   1.411   8.780  0.00  0.00    +0.004 C 
ENDBRANCH  23  24
ENDBRANCH   5  23
TORSDOF 6
