REMARK  Name = ZINC19300448
REMARK  11 active torsions:
REMARK  status: ('A' for Active; 'I' for Inactive)
REMARK    1  A    between atoms: C_1  and  C_2
REMARK    2  A    between atoms: C_2  and  C_3
REMARK    3  A    between atoms: C_3  and  N_4
REMARK    4  A    between atoms: C_7  and  C_8
REMARK    5  A    between atoms: C_11  and  N_14
REMARK    6  A    between atoms: N_14  and  C_15
REMARK    7  A    between atoms: N_14  and  C_16
REMARK    8  A    between atoms: C_20  and  C_26
REMARK    9  A    between atoms: C_29  and  N_32
REMARK   10  A    between atoms: N_32  and  C_33
REMARK   11  A    between atoms: N_32  and  C_34
REMARK                            x       y       z     vdW  Elec       q    Type
REMARK                         _______ _______ _______ _____ _____    ______ ____
ROOT
ATOM      1  N   UNL     1       0.072  -2.202   6.535  0.00  0.00    -0.297 NA
ATOM      2  C   UNL     1      -0.230  -2.788   7.854  0.00  0.00    +0.121 C 
ATOM      3  C   UNL     1      -1.633  -2.354   8.228  0.00  0.00    -0.015 C 
ATOM      4  C   UNL     1      -1.936  -1.971   9.481  0.00  0.00    +0.014 C 
ATOM      5  C   UNL     1      -2.652  -2.370   7.161  0.00  0.00    +0.020 C 
ATOM      6  C   UNL     1      -2.268  -2.539   5.890  0.00  0.00    +0.072 C 
ATOM      7  C   UNL     1      -0.829  -2.733   5.509  0.00  0.00    +0.096 C 
ATOM      8  C   UNL     1      -3.338  -2.536   4.817  0.00  0.00    +0.112 C 
ATOM      9  N   UNL     1      -4.730  -2.353   5.257  0.00  0.00    -0.319 N 
ATOM     10  C   UNL     1      -4.978  -2.198   6.572  0.00  0.00    +0.135 C 
ATOM     11  S   UNL     1      -6.595  -1.988   7.093  0.00  0.00    -0.019 S 
ATOM     12  N   UNL     1      -3.998  -2.204   7.486  0.00  0.00    -0.300 N 
ATOM     13  H   UNL     1      -5.544  -2.344   4.517  0.00  0.00    +0.148 HD
ATOM     14  H   UNL     1      -4.297  -2.068   8.535  0.00  0.00    +0.154 HD
ENDROOT
BRANCH   4  15
ATOM     15  C   UNL     1      -0.946  -2.129  10.559  0.00  0.00    -0.025 A 
ATOM     16  C   UNL     1      -0.129  -3.263  10.600  0.00  0.00    +0.010 A 
ATOM     17  C   UNL     1       0.800  -3.404  11.608  0.00  0.00    +0.023 A 
ATOM     18  C   UNL     1       0.917  -2.425  12.590  0.00  0.00    +0.029 A 
ATOM     19  C   UNL     1       0.102  -1.299  12.555  0.00  0.00    +0.023 A 
ATOM     20  C   UNL     1      -0.825  -1.147  11.548  0.00  0.00    +0.010 A 
BRANCH  18  21
ATOM     21  N   UNL     1       1.855  -2.575  13.611  0.00  0.00    -0.336 N 
ATOM     22  C   UNL     1       1.981  -1.546  14.646  0.00  0.00    +0.129 C 
ATOM     23  C   UNL     1       2.714  -3.761  13.649  0.00  0.00    +0.129 C 
ENDBRANCH  18  21
ENDBRANCH   4  15
BRANCH   8  24
ATOM     24  C   UNL     1      -3.012  -1.436   3.840  0.00  0.00    -0.026 A 
ATOM     25  C   UNL     1      -2.256  -1.713   2.716  0.00  0.00    +0.007 A 
ATOM     26  C   UNL     1      -1.955  -0.707   1.819  0.00  0.00    +0.023 A 
ATOM     27  C   UNL     1      -2.412   0.585   2.048  0.00  0.00    +0.029 A 
ATOM     28  C   UNL     1      -3.167   0.861   3.181  0.00  0.00    +0.023 A 
ATOM     29  C   UNL     1      -3.469  -0.151   4.071  0.00  0.00    +0.007 A 
BRANCH  27  30
ATOM     30  N   UNL     1      -2.110   1.605   1.143  0.00  0.00    -0.336 N 
ATOM     31  C   UNL     1      -1.417   1.291  -0.110  0.00  0.00    +0.129 C 
ATOM     32  C   UNL     1      -2.484   2.988   1.446  0.00  0.00    +0.129 C 
ENDBRANCH  27  30
ENDBRANCH   8  24
BRANCH   1  33
ATOM     33  C   UNL     1       1.477  -2.426   6.169  0.00  0.00    +0.084 C 
BRANCH  33  35
ATOM     34  C   UNL     1       3.182  -4.157   5.585  0.00  0.00    +0.005 C 
ATOM     35  C   UNL     1       1.719  -3.924   5.966  0.00  0.00    +0.012 C 
ENDBRANCH  33  35
ENDBRANCH   1  33
TORSDOF 6
