REMARK  Name = ZINC05663859
REMARK  11 active torsions:
REMARK  status: ('A' for Active; 'I' for Inactive)
REMARK    1  A    between atoms: C_10  and  O_26
REMARK    2  A    between atoms: C_13  and  O_17
REMARK    3  A    between atoms: O_17  and  C_18
REMARK    4  A    between atoms: C_18  and  C_19
REMARK    5  A    between atoms: C_19  and  N_48
REMARK    6  A    between atoms: C_20  and  C_21
REMARK    7  A    between atoms: C_20  and  N_48
REMARK    8  A    between atoms: C_21  and  O_22
REMARK    9  A    between atoms: C_23  and  C_24
REMARK   10  A    between atoms: C_23  and  N_48
REMARK   11  A    between atoms: C_24  and  O_25
REMARK                            x       y       z     vdW  Elec       q    Type
REMARK                         _______ _______ _______ _____ _____    ______ ____
ROOT
ATOM      1  C   UNL     1       8.024   0.969   0.402  0.00  0.00    +0.001 A 
ATOM      2  C   UNL     1       7.898  -0.408   0.355  0.00  0.00    +0.001 A 
ATOM      3  C   UNL     1       6.648  -0.995   0.273  0.00  0.00    +0.012 A 
ATOM      4  C   UNL     1       5.508  -0.197   0.237  0.00  0.00    +0.033 A 
ATOM      5  C   UNL     1       5.635   1.202   0.285  0.00  0.00    +0.033 A 
ATOM      6  C   UNL     1       6.901   1.776   0.368  0.00  0.00    +0.012 A 
ATOM      7  C   UNL     1       4.430   2.057   0.247  0.00  0.00    +0.198 C 
ATOM      8  O   UNL     1       4.540   3.267   0.288  0.00  0.00    -0.286 OA
ATOM      9  C   UNL     1       3.095   1.440   0.161  0.00  0.00    +0.078 A 
ATOM     10  C   UNL     1       1.950   2.240   0.126  0.00  0.00    +0.129 A 
ATOM     11  C   UNL     1       0.691   1.647   0.044  0.00  0.00    +0.050 A 
ATOM     12  C   UNL     1       0.566   0.277  -0.003  0.00  0.00    +0.050 A 
ATOM     13  C   UNL     1       1.697  -0.538   0.031  0.00  0.00    +0.132 A 
ATOM     14  C   UNL     1       2.967   0.037   0.113  0.00  0.00    +0.078 A 
ATOM     15  C   UNL     1       4.168  -0.815   0.149  0.00  0.00    +0.198 C 
ATOM     16  O   UNL     1       4.057  -2.025   0.108  0.00  0.00    -0.286 OA
ENDROOT
BRANCH  10  17
ATOM     17  O   UNL     1       2.064   3.591   0.171  0.00  0.00    -0.506 OA
ATOM     18  H   UNL     1       2.051   3.957   1.066  0.00  0.00    +0.292 HD
ENDBRANCH  10  17
BRANCH  13  19
ATOM     19  O   UNL     1       1.563  -1.886  -0.015  0.00  0.00    -0.493 OA
BRANCH  19  20
ATOM     20  C   UNL     1       0.234  -2.405  -0.098  0.00  0.00    +0.210 C 
BRANCH  20  21
ATOM     21  C   UNL     1       0.284  -3.933  -0.140  0.00  0.00    -0.037 C 
BRANCH  21  22
ATOM     22  N   UNL     1       0.846  -4.427   1.135  0.00  0.00    +0.385 N 
ATOM     23  H   UNL     1       1.730  -3.940   1.320  0.00  0.00    -0.081 HD
BRANCH  22  24
ATOM     24  C   UNL     1      -0.095  -4.152   2.241  0.00  0.00    -0.050 C 
BRANCH  24  25
ATOM     25  C   UNL     1       0.647  -4.315   3.569  0.00  0.00    +0.137 C 
BRANCH  25  26
ATOM     26  O   UNL     1       1.686  -3.338   3.657  0.00  0.00    -0.397 OA
ATOM     27  H   UNL     1       2.200  -3.383   4.476  0.00  0.00    +0.209 HD
ENDBRANCH  25  26
ENDBRANCH  24  25
ENDBRANCH  22  24
BRANCH  22  28
ATOM     28  C   UNL     1       1.106  -5.879   1.043  0.00  0.00    -0.050 C 
BRANCH  28  29
ATOM     29  C   UNL     1       2.397  -6.096   0.252  0.00  0.00    +0.137 C 
BRANCH  29  30
ATOM     30  O   UNL     1       3.498  -5.543   0.976  0.00  0.00    -0.397 OA
ATOM     31  H   UNL     1       4.339  -5.577   0.499  0.00  0.00    +0.209 HD
ENDBRANCH  29  30
ENDBRANCH  28  29
ENDBRANCH  22  28
ENDBRANCH  21  22
ENDBRANCH  20  21
ENDBRANCH  19  20
ENDBRANCH  13  19
TORSDOF 11
