REMARK  Name = ZINC09019689
REMARK  14 active torsions:
REMARK  status: ('A' for Active; 'I' for Inactive)
REMARK    1  A    between atoms: C_1  and  C_2
REMARK    2  A    between atoms: C_2  and  N_65
REMARK    3  A    between atoms: C_3  and  C_4
REMARK    4  A    between atoms: C_3  and  N_65
REMARK    5  A    between atoms: C_5  and  C_6
REMARK    6  A    between atoms: C_5  and  N_65
REMARK    7  A    between atoms: C_6  and  C_7
REMARK    8  A    between atoms: C_7  and  C_8
REMARK    9  A    between atoms: C_8  and  C_10
REMARK   10  A    between atoms: C_8  and  N_11
REMARK   11  A    between atoms: C_15  and  O_32
REMARK   12  A    between atoms: C_20  and  C_22
REMARK   13  A    between atoms: C_23  and  C_24
REMARK   14  A    between atoms: O_32  and  C_33
REMARK                            x       y       z     vdW  Elec       q    Type
REMARK                         _______ _______ _______ _____ _____    ______ ____
ROOT
ATOM      1  N   UNL     1      -2.005   1.988   4.674  0.00  0.00    -0.326 N 
ATOM      2  C   UNL     1      -0.925   1.134   4.582  0.00  0.00    +0.131 A 
ATOM      3  C   UNL     1      -0.626   0.471   3.364  0.00  0.00    +0.044 A 
ATOM      4  C   UNL     1      -1.402   0.649   2.215  0.00  0.00    +0.059 A 
ATOM      5  C   UNL     1      -1.064  -0.022   1.059  0.00  0.00    +0.121 A 
ATOM      6  C   UNL     1       0.040  -0.877   1.029  0.00  0.00    +0.048 A 
ATOM      7  C   UNL     1       0.813  -1.062   2.135  0.00  0.00    +0.032 A 
ATOM      8  C   UNL     1       0.496  -0.394   3.327  0.00  0.00    +0.077 A 
ATOM      9  N   UNL     1       1.228  -0.551   4.438  0.00  0.00    -0.228 NA
ATOM     10  C   UNL     1       0.905   0.092   5.549  0.00  0.00    +0.155 A 
ATOM     11  N   UNL     1      -0.143   0.915   5.626  0.00  0.00    -0.213 NA
ATOM     12  H   UNL     1      -2.571   2.140   3.901  0.00  0.00    +0.148 HD
ENDROOT
BRANCH   1  13
ATOM     13  C   UNL     1      -2.298   2.664   5.940  0.00  0.00    +0.069 C 
ATOM     14  C   UNL     1      -1.465   3.943   6.040  0.00  0.00    +0.028 C 
BRANCH  13  15
ATOM     15  C   UNL     1      -3.786   3.018   5.997  0.00  0.00    +0.020 C 
BRANCH  15  16
ATOM     16  C   UNL     1      -4.615   1.732   6.023  0.00  0.00    -0.017 C 
BRANCH  16  17
ATOM     17  C   UNL     1      -6.103   2.086   6.080  0.00  0.00    -0.079 C 
BRANCH  17  18
ATOM     18  N   UNL     1      -6.890   0.836   6.083  0.00  0.00    +0.379 N 
ATOM     19  H   UNL     1      -6.585   0.247   5.300  0.00  0.00    -0.082 HD
BRANCH  18  21
ATOM     20  C   UNL     1      -7.091   0.959   8.544  0.00  0.00    -0.017 C 
ATOM     21  C   UNL     1      -6.670   0.103   7.348  0.00  0.00    -0.082 C 
ENDBRANCH  18  21
BRANCH  18  22
ATOM     22  C   UNL     1      -8.327   1.143   5.921  0.00  0.00    -0.082 C 
ATOM     23  C   UNL     1      -9.068  -0.146   5.563  0.00  0.00    -0.017 C 
ENDBRANCH  18  22
ENDBRANCH  17  18
ENDBRANCH  16  17
ENDBRANCH  15  16
ENDBRANCH  13  15
ENDBRANCH   1  13
BRANCH  10  24
ATOM     24  C   UNL     1       1.735  -0.109   6.747  0.00  0.00    +0.049 C 
ATOM     25  C   UNL     1       2.797  -0.932   6.699  0.00  0.00    +0.013 C 
BRANCH  25  26
ATOM     26  C   UNL     1       3.627  -1.134   7.899  0.00  0.00    -0.007 A 
ATOM     27  C   UNL     1       3.318  -0.466   9.087  0.00  0.00    +0.011 A 
ATOM     28  C   UNL     1       4.097  -0.661  10.208  0.00  0.00    +0.020 A 
ATOM     29  C   UNL     1       5.191  -1.511  10.155  0.00  0.00    +0.042 A 
ATOM     30  C   UNL     1       5.506  -2.172   8.981  0.00  0.00    +0.040 A 
ATOM     31  C   UNL     1       4.733  -1.990   7.853  0.00  0.00    +0.049 A 
ATOM     32 CL   UNL     1       5.130  -2.819   6.381  0.00  0.00    -0.083 Cl
ATOM     33 CL   UNL     1       6.169  -1.746  11.570  0.00  0.00    -0.083 Cl
ENDBRANCH  25  26
ENDBRANCH  10  24
BRANCH   5  34
ATOM     34  O   UNL     1      -1.815   0.147  -0.061  0.00  0.00    -0.495 OA
ATOM     35  C   UNL     1      -1.413  -0.575  -1.227  0.00  0.00    +0.277 C 
ENDBRANCH   5  34
TORSDOF 10
