REMARK  Name = ZINC20411200
REMARK  10 active torsions:
REMARK  status: ('A' for Active; 'I' for Inactive)
REMARK    1  A    between atoms: C_1  and  C_2
REMARK    2  A    between atoms: C_2  and  O_3
REMARK    3  A    between atoms: O_3  and  C_4
REMARK    4  A    between atoms: C_9  and  N_10
REMARK    5  A    between atoms: C_14  and  N_15
REMARK    6  A    between atoms: N_15  and  C_16
REMARK    7  A    between atoms: C_16  and  C_17
REMARK    8  A    between atoms: C_24  and  O_25
REMARK    9  A    between atoms: O_25  and  C_26
REMARK   10  A    between atoms: N_32  and  C_33
REMARK                            x       y       z     vdW  Elec       q    Type
REMARK                         _______ _______ _______ _____ _____    ______ ____
ROOT
ATOM      1  N   UNL     1       1.931  -1.395  -3.392  0.00  0.00    -0.186 N 
ATOM      2  C   UNL     1       3.217  -1.004  -3.280  0.00  0.00    +0.265 C 
ATOM      3  O   UNL     1       3.909  -1.389  -2.356  0.00  0.00    -0.269 OA
ATOM      4  C   UNL     1       3.763  -0.101  -4.309  0.00  0.00    +0.113 C 
ATOM      5  C   UNL     1       5.072   0.340  -4.261  0.00  0.00    +0.086 C 
ATOM      6  C   UNL     1       2.851   0.312  -5.391  0.00  0.00    +0.258 C 
ATOM      7  O   UNL     1       3.229   1.056  -6.276  0.00  0.00    -0.270 OA
ATOM      8  N   UNL     1       1.587  -0.158  -5.374  0.00  0.00    -0.235 N 
ATOM      9  C   UNL     1       1.159  -0.983  -4.408  0.00  0.00    +0.320 C 
ATOM     10  O   UNL     1       0.010  -1.375  -4.453  0.00  0.00    -0.251 OA
ATOM     11  H   UNL     1       0.974   0.104  -6.079  0.00  0.00    +0.159 HD
ENDROOT
BRANCH   1  17
ATOM     12  C   UNL     1       0.770  -1.732  -1.293  0.00  0.00    +0.142 A 
ATOM     13  C   UNL     1       0.232  -2.587  -0.344  0.00  0.00    +0.047 A 
ATOM     14  C   UNL     1       0.315  -3.955  -0.520  0.00  0.00    +0.004 A 
ATOM     15  C   UNL     1       0.935  -4.476  -1.641  0.00  0.00    +0.002 A 
ATOM     16  C   UNL     1       1.475  -3.630  -2.592  0.00  0.00    +0.028 A 
ATOM     17  C   UNL     1       1.389  -2.255  -2.425  0.00  0.00    +0.087 A 
BRANCH  12  18
ATOM     18  O   UNL     1       0.688  -0.386  -1.121  0.00  0.00    -0.490 OA
BRANCH  18  20
ATOM     19  C   UNL     1       0.044   1.609   0.081  0.00  0.00    +0.048 C 
ATOM     20  C   UNL     1       0.039   0.079   0.064  0.00  0.00    +0.226 C 
ENDBRANCH  18  20
ENDBRANCH  12  18
ENDBRANCH   1  17
BRANCH   5  21
ATOM     21  N   UNL     1       5.845   0.043  -3.197  0.00  0.00    -0.347 N 
ATOM     22  H   UNL     1       5.507  -0.541  -2.500  0.00  0.00    +0.146 HD
BRANCH  21  23
ATOM     23  C   UNL     1       7.195   0.602  -3.093  0.00  0.00    +0.124 C 
BRANCH  23  24
ATOM     24  C   UNL     1       7.897   0.014  -1.867  0.00  0.00    +0.107 C 
ATOM     25  C   UNL     1       8.028  -1.477  -2.037  0.00  0.00    +0.020 A 
ATOM     26  C   UNL     1       7.790  -2.351  -0.998  0.00  0.00    -0.034 A 
ATOM     27  C   UNL     1       7.927  -3.717  -1.195  0.00  0.00    +0.053 A 
ATOM     28  C   UNL     1       8.299  -4.214  -2.433  0.00  0.00    +0.170 A 
ATOM     29  C   UNL     1       8.537  -3.337  -3.485  0.00  0.00    +0.208 A 
ATOM     30  C   UNL     1       8.401  -1.970  -3.284  0.00  0.00    +0.170 A 
ATOM     31  O   UNL     1       8.885  -4.062  -4.589  0.00  0.00    -0.449 OA
ATOM     32  C   UNL     1       9.254  -5.363  -4.093  0.00  0.00    +0.467 C 
ATOM     33  O   UNL     1       8.497  -5.491  -2.875  0.00  0.00    -0.452 OA
ATOM     34  C   UNL     1       7.374  -1.863   0.366  0.00  0.00    +0.051 C 
ATOM     35  C   UNL     1       7.679  -0.370   0.502  0.00  0.00    +0.089 C 
ATOM     36  N   UNL     1       7.118   0.328  -0.666  0.00  0.00    -0.297 NA
ATOM     37  C   UNL     1       7.065   1.778  -0.436  0.00  0.00    +0.105 C 
BRANCH  30  38
ATOM     38  O   UNL     1       8.633  -1.109  -4.310  0.00  0.00    -0.491 OA
ATOM     39  C   UNL     1       9.969  -0.626  -4.462  0.00  0.00    +0.277 C 
ENDBRANCH  30  38
ENDBRANCH  23  24
ENDBRANCH  21  23
ENDBRANCH   5  21
TORSDOF 7
