REMARK  Name = ZINC00541836
REMARK  6 active torsions:
REMARK  status: ('A' for Active; 'I' for Inactive)
REMARK    1  A    between atoms: C_1  and  C_2
REMARK    2  A    between atoms: C_2  and  O_3
REMARK    3  A    between atoms: O_3  and  C_4
REMARK    4  A    between atoms: C_14  and  N_18
REMARK    5  A    between atoms: C_22  and  C_24
REMARK    6  A    between atoms: C_22  and  C_25
REMARK                            x       y       z     vdW  Elec       q    Type
REMARK                         _______ _______ _______ _____ _____    ______ ____
ROOT
ATOM      1  C   UNL     1       2.403   0.026  -0.022  0.00  0.00    +0.121 A 
ATOM      2  C   UNL     1       2.383   1.417  -0.015  0.00  0.00    +0.048 A 
ATOM      3  C   UNL     1       1.187   2.099   0.002  0.00  0.00    +0.030 A 
ATOM      4  C   UNL     1      -0.017   1.399   0.010  0.00  0.00    +0.049 A 
ATOM      5  C   UNL     1       0.002  -0.004   0.002  0.00  0.00    +0.029 A 
ATOM      6  C   UNL     1       1.219  -0.685  -0.014  0.00  0.00    +0.057 A 
ATOM      7  C   UNL     1      -1.403  -0.442   0.014  0.00  0.00    +0.101 A 
ATOM      8  C   UNL     1      -2.181   0.723   0.028  0.00  0.00    +0.106 A 
ATOM      9  N   UNL     1      -1.336   1.817   0.030  0.00  0.00    -0.350 N 
ATOM     10  H   UNL     1      -1.626   2.742   0.039  0.00  0.00    +0.166 HD
ATOM     11  C   UNL     1      -3.575   0.582   0.041  0.00  0.00    +0.149 A 
ATOM     12  N   UNL     1      -4.092  -0.642   0.040  0.00  0.00    -0.219 NA
ATOM     13  C   UNL     1      -3.320  -1.712   0.026  0.00  0.00    +0.224 A 
ATOM     14  N   UNL     1      -2.007  -1.630   0.014  0.00  0.00    -0.233 NA
ENDROOT
BRANCH  11  15
ATOM     15  N   UNL     1      -4.398   1.697   0.055  0.00  0.00    -0.313 N 
ATOM     16  C   UNL     1      -4.101   2.584  -1.077  0.00  0.00    +0.106 C 
ATOM     17  C   UNL     1      -4.924   3.869  -0.950  0.00  0.00    +0.019 C 
ATOM     18  C   UNL     1      -6.413   3.516  -0.931  0.00  0.00    +0.009 C 
ATOM     19  C   UNL     1      -6.687   2.553   0.228  0.00  0.00    -0.019 C 
ATOM     20  C   UNL     1      -5.814   1.307   0.067  0.00  0.00    +0.113 C 
ATOM     21  C   UNL     1      -8.162   2.148   0.219  0.00  0.00    +0.012 C 
ATOM     22  C   UNL     1      -6.354   3.242   1.554  0.00  0.00    +0.012 C 
ENDBRANCH  11  15
BRANCH   1  23
ATOM     23  O   UNL     1       3.591  -0.635  -0.038  0.00  0.00    -0.492 OA
BRANCH  23  25
ATOM     24  C   UNL     1       6.005  -0.750  -0.062  0.00  0.00    +0.048 C 
ATOM     25  C   UNL     1       4.777   0.162  -0.045  0.00  0.00    +0.225 C 
ENDBRANCH  23  25
ENDBRANCH   1  23
TORSDOF 3
