REMARK  Name = ZINC10435931
REMARK  13 active torsions:
REMARK  status: ('A' for Active; 'I' for Inactive)
REMARK    1  A    between atoms: C_1  and  C_2
REMARK    2  A    between atoms: C_2  and  C_3
REMARK    3  A    between atoms: C_3  and  C_4
REMARK    4  A    between atoms: C_4  and  C_6
REMARK    5  A    between atoms: C_4  and  N_59
REMARK    6  A    between atoms: C_12  and  C_13
REMARK    7  A    between atoms: C_12  and  N_59
REMARK    8  A    between atoms: C_15  and  O_29
REMARK    9  A    between atoms: C_16  and  O_20
REMARK   10  A    between atoms: O_20  and  C_21
REMARK   11  A    between atoms: C_21  and  C_22
REMARK   12  A    between atoms: O_29  and  C_30
REMARK   13  A    between atoms: C_30  and  C_31
REMARK                            x       y       z     vdW  Elec       q    Type
REMARK                         _______ _______ _______ _____ _____    ______ ____
ROOT
ATOM      1  C   UNL     1       1.288  -2.425   1.699  0.00  0.00    -0.060 A 
ATOM      2  C   UNL     1       2.038  -3.028   2.692  0.00  0.00    +0.051 A 
ATOM      3  C   UNL     1       2.079  -4.409   2.787  0.00  0.00    +0.163 A 
ATOM      4  C   UNL     1       1.375  -5.188   1.874  0.00  0.00    +0.176 A 
ATOM      5  C   UNL     1       0.629  -4.578   0.877  0.00  0.00    +0.063 A 
ATOM      6  C   UNL     1       0.587  -3.197   0.792  0.00  0.00    +0.021 A 
ATOM      7 BR   UNL     1      -0.331  -5.631  -0.365  0.00  0.00    -0.046 Br
ENDROOT
BRANCH   1   8
ATOM      8  C   UNL     1       1.239  -0.922   1.602  0.00  0.00    -0.046 C 
BRANCH   8   9
ATOM      9  N   UNL     1       0.112  -0.421   2.412  0.00  0.00    +0.386 N 
ATOM     10  H   UNL     1      -0.771  -0.753   2.006  0.00  0.00    -0.085 HD
ATOM     11  H   UNL     1       0.201  -0.775   3.372  0.00  0.00    -0.085 HD
BRANCH   9  12
ATOM     12  C   UNL     1       0.114   1.054   2.436  0.00  0.00    -0.040 C 
BRANCH  12  13
ATOM     13  C   UNL     1      -0.544   1.529   3.705  0.00  0.00    -0.061 A 
ATOM     14  C   UNL     1      -1.669   0.884   4.184  0.00  0.00    +0.002 A 
ATOM     15  C   UNL     1      -2.270   1.317   5.351  0.00  0.00    +0.000 A 
ATOM     16  C   UNL     1      -1.751   2.401   6.035  0.00  0.00    +0.000 A 
ATOM     17  C   UNL     1      -0.628   3.049   5.553  0.00  0.00    +0.000 A 
ATOM     18  C   UNL     1      -0.025   2.613   4.389  0.00  0.00    +0.002 A 
ENDBRANCH  12  13
BRANCH  12  19
ATOM     19  C   UNL     1      -0.664   1.584   1.229  0.00  0.00    -0.011 C 
BRANCH  19  21
ATOM     20  C   UNL     1      -1.214   3.629  -0.097  0.00  0.00    +0.004 C 
ATOM     21  C   UNL     1      -0.552   3.109   1.181  0.00  0.00    -0.005 C 
ENDBRANCH  19  21
ENDBRANCH  12  19
ENDBRANCH   9  12
ENDBRANCH   8   9
ENDBRANCH   1   8
BRANCH   4  22
ATOM     22  O   UNL     1       1.417  -6.545   1.959  0.00  0.00    -0.483 OA
BRANCH  22  23
ATOM     23  C   UNL     1       2.452  -7.208   1.231  0.00  0.00    +0.264 C 
BRANCH  23  24
ATOM     24  C   UNL     1       2.342  -8.696   1.444  0.00  0.00    -0.010 A 
ATOM     25  C   UNL     1       3.018  -9.297   2.489  0.00  0.00    +0.008 A 
ATOM     26  C   UNL     1       2.913 -10.660   2.688  0.00  0.00    +0.020 A 
ATOM     27  C   UNL     1       2.139 -11.426   1.834  0.00  0.00    +0.041 A 
ATOM     28  C   UNL     1       1.468 -10.825   0.784  0.00  0.00    +0.020 A 
ATOM     29  C   UNL     1       1.569  -9.461   0.590  0.00  0.00    +0.008 A 
ATOM     30 CL   UNL     1       2.012 -13.140   2.079  0.00  0.00    -0.084 Cl
ENDBRANCH  23  24
ENDBRANCH  22  23
ENDBRANCH   4  22
BRANCH   3  31
ATOM     31  O   UNL     1       2.812  -5.004   3.766  0.00  0.00    -0.489 OA
BRANCH  31  32
ATOM     32  C   UNL     1       3.510  -4.142   4.668  0.00  0.00    +0.226 C 
ATOM     33  C   UNL     1       4.272  -4.985   5.692  0.00  0.00    +0.048 C 
ENDBRANCH  31  32
ENDBRANCH   3  31
TORSDOF 11
