REMARK  Name = ZINC57460893
REMARK  10 active torsions:
REMARK  status: ('A' for Active; 'I' for Inactive)
REMARK    1  A    between atoms: C_1  and  C_2
REMARK    2  A    between atoms: C_11  and  C_24
REMARK    3  A    between atoms: C_17  and  C_20
REMARK    4  A    between atoms: C_20  and  C_21
REMARK    5  A    between atoms: C_20  and  C_22
REMARK    6  A    between atoms: C_20  and  C_23
REMARK    7  A    between atoms: C_28  and  O_32
REMARK    8  A    between atoms: C_29  and  O_30
REMARK    9  A    between atoms: O_30  and  C_31
REMARK   10  A    between atoms: O_32  and  C_33
REMARK                            x       y       z     vdW  Elec       q    Type
REMARK                         _______ _______ _______ _____ _____    ______ ____
ROOT
ATOM      1  C   UNL     1      -0.019   1.526   0.010  0.00  0.00    +0.008 C 
ATOM      2  C   UNL     1       0.002  -0.004   0.002  0.00  0.00    -0.009 C 
ATOM      3  C   UNL     1       0.725  -0.501  -1.253  0.00  0.00    +0.008 C 
ATOM      4  C   UNL     1       0.537  -2.012  -1.397  0.00  0.00    +0.037 C 
ATOM      5  C   UNL     1       0.949  -2.685  -0.091  0.00  0.00    -0.027 A 
ATOM      6  C   UNL     1       1.030  -1.977   1.054  0.00  0.00    -0.004 A 
ATOM      7  S   UNL     1       1.534  -3.147   2.287  0.00  0.00    -0.075 S 
ATOM      8  C   UNL     1       1.642  -4.591   1.257  0.00  0.00    +0.086 A 
ATOM      9  C   UNL     1       1.273  -4.111  -0.016  0.00  0.00    +0.017 A 
ATOM     10  C   UNL     1       1.261  -5.074  -1.064  0.00  0.00    +0.000 A 
ATOM     11  C   UNL     1       1.615  -6.394  -0.781  0.00  0.00    -0.019 A 
ATOM     12  C   UNL     1       1.969  -6.751   0.502  0.00  0.00    +0.021 A 
ATOM     13  N   UNL     1       1.966  -5.843   1.471  0.00  0.00    -0.352 N 
ATOM     14  C   UNL     1       2.381  -8.154   0.868  0.00  0.00    +0.054 C 
ATOM     15  C   UNL     1       1.931  -9.144  -0.203  0.00  0.00    +0.010 C 
ATOM     16  C   UNL     1       2.400  -8.627  -1.568  0.00  0.00    -0.001 C 
ATOM     17  C   UNL     1       1.585  -7.383  -1.917  0.00  0.00    +0.041 C 
ATOM     18  C   UNL     1       0.751  -0.516   1.241  0.00  0.00    +0.046 C 
ATOM     19  H   UNL     1       2.212  -6.116   2.368  0.00  0.00    +0.166 HD
ENDROOT
BRANCH  10  20
ATOM     20  C   UNL     1       0.878  -4.680  -2.439  0.00  0.00    +0.028 A 
ATOM     21  C   UNL     1       1.850  -4.243  -3.339  0.00  0.00    +0.012 A 
ATOM     22  C   UNL     1       1.490  -3.876  -4.619  0.00  0.00    +0.004 A 
ATOM     23  C   UNL     1       0.166  -3.940  -5.017  0.00  0.00    +0.049 A 
ATOM     24  C   UNL     1      -0.810  -4.372  -4.133  0.00  0.00    +0.162 A 
ATOM     25  C   UNL     1      -0.459  -4.749  -2.842  0.00  0.00    +0.169 A 
BRANCH  25  26
ATOM     26  O   UNL     1      -1.412  -5.178  -1.973  0.00  0.00    -0.491 OA
ATOM     27  C   UNL     1      -2.048  -4.186  -1.165  0.00  0.00    +0.277 C 
ENDBRANCH  25  26
BRANCH  24  28
ATOM     28  O   UNL     1      -2.109  -4.432  -4.530  0.00  0.00    -0.491 OA
ATOM     29  C   UNL     1      -2.397  -4.034  -5.872  0.00  0.00    +0.277 C 
ENDBRANCH  24  28
ENDBRANCH  10  20
BRANCH  16  30
ATOM     30  C   UNL     1       2.177  -9.705  -2.631  0.00  0.00    -0.035 C 
ATOM     31  C   UNL     1       0.689 -10.050  -2.704  0.00  0.00    +0.011 C 
ATOM     32  C   UNL     1       2.646  -9.184  -3.991  0.00  0.00    +0.011 C 
ATOM     33  C   UNL     1       2.975 -10.957  -2.263  0.00  0.00    +0.011 C 
ENDBRANCH  16  30
TORSDOF 4
