REMARK  Name = ZINC33812509
REMARK  14 active torsions:
REMARK  status: ('A' for Active; 'I' for Inactive)
REMARK    1  A    between atoms: C_1  and  C_2
REMARK    2  A    between atoms: C_2  and  N_3
REMARK    3  A    between atoms: C_4  and  N_29
REMARK    4  A    between atoms: C_5  and  C_13
REMARK    5  A    between atoms: C_6  and  C_12
REMARK    6  A    between atoms: C_7  and  C_10
REMARK    7  A    between atoms: N_17  and  C_21
REMARK    8  A    between atoms: C_21  and  C_22
REMARK    9  A    between atoms: C_22  and  C_23
REMARK   10  A    between atoms: C_23  and  C_24
REMARK   11  A    between atoms: C_24  and  C_25
REMARK   12  A    between atoms: C_25  and  C_26
REMARK   13  A    between atoms: N_32  and  C_35
REMARK   14  A    between atoms: C_35  and  C_36
REMARK                            x       y       z     vdW  Elec       q    Type
REMARK                         _______ _______ _______ _____ _____    ______ ____
ROOT
ATOM      1  N   UNL     1      -1.635  -0.426  -0.360  0.00  0.00    -0.295 N 
ATOM      2  C   UNL     1      -2.105  -0.702   0.883  0.00  0.00    +0.112 A 
ATOM      3  C   UNL     1      -3.207  -1.555   1.057  0.00  0.00    +0.019 A 
ATOM      4  C   UNL     1      -3.824  -2.124  -0.069  0.00  0.00    -0.017 A 
ATOM      5  C   UNL     1      -3.324  -1.826  -1.334  0.00  0.00    +0.120 A 
ATOM      6  C   UNL     1      -2.212  -0.954  -1.455  0.00  0.00    +0.270 A 
ATOM      7  O   UNL     1      -1.773  -0.685  -2.559  0.00  0.00    -0.266 OA
ATOM      8  C   UNL     1      -5.008  -3.044   0.088  0.00  0.00    +0.046 C 
ENDROOT
BRANCH   3   9
ATOM      9  C   UNL     1      -3.708  -1.849   2.401  0.00  0.00    +0.032 C 
ATOM     10  C   UNL     1      -4.952  -1.438   2.768  0.00  0.00    +0.077 C 
ATOM     11  C   UNL     1      -5.656  -1.653   3.993  0.00  0.00    +0.258 C 
ATOM     12  O   UNL     1      -5.152  -2.286   4.902  0.00  0.00    -0.269 OA
ATOM     13  N   UNL     1      -6.870  -1.143   4.108  0.00  0.00    -0.255 N 
ATOM     14  C   UNL     1      -7.429  -0.441   3.098  0.00  0.00    +0.121 C 
ATOM     15  S   UNL     1      -8.971   0.300   3.031  0.00  0.00    -0.027 S 
ATOM     16  S   UNL     1      -6.148  -0.474   1.853  0.00  0.00    -0.061 S 
BRANCH  13  17
ATOM     17  C   UNL     1      -7.622  -1.344   5.350  0.00  0.00    +0.115 C 
BRANCH  17  18
ATOM     18  C   UNL     1      -7.322  -0.198   6.318  0.00  0.00    +0.019 C 
BRANCH  18  19
ATOM     19  C   UNL     1      -8.107  -0.408   7.615  0.00  0.00    +0.002 C 
BRANCH  19  20
ATOM     20  C   UNL     1      -7.807   0.738   8.583  0.00  0.00    +0.011 C 
BRANCH  20  21
ATOM     21  C   UNL     1      -8.592   0.528   9.880  0.00  0.00    +0.125 C 
BRANCH  21  22
ATOM     22  C   UNL     1      -8.297   1.657  10.834  0.00  0.00    +0.356 C 
ATOM     23  O   UNL     1      -7.530   2.547  10.507  0.00  0.00    -0.246 OA
ATOM     24  O   UNL     1      -8.825   1.681  11.932  0.00  0.00    -0.246 OA
ENDBRANCH  21  22
ENDBRANCH  20  21
ENDBRANCH  19  20
ENDBRANCH  18  19
ENDBRANCH  17  18
ENDBRANCH  13  17
ENDBRANCH   3   9
BRANCH   2  25
ATOM     25  N   UNL     1      -1.502  -0.145   1.973  0.00  0.00    -0.320 N 
ATOM     26  C   UNL     1      -1.993   1.116   2.549  0.00  0.00    +0.088 C 
ATOM     27  C   UNL     1      -2.179   0.922   4.057  0.00  0.00    -0.060 C 
ATOM     28  N   UNL     1      -0.924   0.435   4.646  0.00  0.00    +0.382 N 
ATOM     29  C   UNL     1      -0.605  -0.895   4.112  0.00  0.00    -0.060 C 
ATOM     30  C   UNL     1      -0.344  -0.793   2.610  0.00  0.00    +0.088 C 
ATOM     31  H   UNL     1      -0.178   1.076   4.419  0.00  0.00    -0.082 HD
BRANCH  28  32
ATOM     32  C   UNL     1      -1.069   0.354   6.105  0.00  0.00    -0.082 C 
ATOM     33  C   UNL     1       0.273  -0.032   6.730  0.00  0.00    -0.017 C 
ENDBRANCH  28  32
ENDBRANCH   2  25
BRANCH   1  35
ATOM     34  C   UNL     1      -0.976   1.892  -0.779  0.00  0.00    +0.027 C 
ATOM     35  C   UNL     1      -0.484   0.467  -0.513  0.00  0.00    +0.123 C 
ENDBRANCH   1  35
BRANCH   5  36
ATOM     36  C   UNL     1      -3.930  -2.390  -2.502  0.00  0.00    +0.105 C 
ATOM     37  N   UNL     1      -4.411  -2.838  -3.429  0.00  0.00    -0.191 NA
ENDBRANCH   5  36
TORSDOF 11
