REMARK  Name = ZINC29158280
REMARK  8 active torsions:
REMARK  status: ('A' for Active; 'I' for Inactive)
REMARK    1  A    between atoms: C_1  and  C_2
REMARK    2  A    between atoms: C_2  and  C_3
REMARK    3  A    between atoms: C_2  and  C_4
REMARK    4  A    between atoms: C_4  and  C_6
REMARK    5  A    between atoms: C_4  and  N_26
REMARK    6  A    between atoms: C_15  and  C_21
REMARK    7  A    between atoms: C_21  and  O_23
REMARK    8  A    between atoms: O_23  and  C_24
REMARK                            x       y       z     vdW  Elec       q    Type
REMARK                         _______ _______ _______ _____ _____    ______ ____
ROOT
ATOM      1  C   UNL     1      -3.255   1.997   0.916  0.00  0.00    +0.236 C 
ATOM      2  O   UNL     1      -2.736   2.952   1.456  0.00  0.00    -0.274 OA
ATOM      3  N   UNL     1      -4.565   1.746   1.106  0.00  0.00    -0.295 N 
ATOM      4  C   UNL     1      -5.188   0.530   0.561  0.00  0.00    +0.114 C 
ATOM      5  C   UNL     1      -5.671  -0.348   1.721  0.00  0.00    +0.072 C 
ATOM      6  C   UNL     1      -6.394   0.517   2.727  0.00  0.00    +0.023 A 
ATOM      7  C   UNL     1      -6.276   1.860   2.791  0.00  0.00    -0.002 A 
ATOM      8  C   UNL     1      -7.115   2.311   3.882  0.00  0.00    +0.005 A 
ATOM      9  C   UNL     1      -7.385   3.574   4.408  0.00  0.00    +0.025 A 
ATOM     10  C   UNL     1      -8.269   3.625   5.491  0.00  0.00    +0.060 A 
ATOM     11  C   UNL     1      -8.851   2.465   6.016  0.00  0.00    +0.017 A 
ATOM     12  C   UNL     1      -8.593   1.221   5.505  0.00  0.00    +0.027 A 
ATOM     13  C   UNL     1      -7.713   1.142   4.424  0.00  0.00    +0.047 A 
ATOM     14  N   UNL     1      -7.255   0.082   3.701  0.00  0.00    -0.358 N 
ATOM     15  H   UNL     1      -7.478  -0.991   3.799  0.00  0.00    +0.166 HD
ATOM     16  C   UNL     1      -5.413   2.679   1.869  0.00  0.00    +0.145 C 
ENDROOT
BRANCH  10  17
ATOM     17  C   UNL     1      -8.597   4.931   6.093  0.00  0.00    +0.339 C 
ATOM     18  O   UNL     1      -8.100   5.947   5.648  0.00  0.00    -0.245 OA
BRANCH  17  19
ATOM     19  O   UNL     1      -9.447   4.998   7.136  0.00  0.00    -0.464 OA
ATOM     20  C   UNL     1      -9.723   6.317   7.678  0.00  0.00    +0.280 C 
ENDBRANCH  17  19
ENDBRANCH  10  17
BRANCH   1  21
ATOM     21  C   UNL     1      -2.434   1.092   0.035  0.00  0.00    +0.163 C 
BRANCH  21  22
ATOM     22  N   UNL     1      -1.042   1.094   0.493  0.00  0.00    -0.288 N 
ATOM     23  C   UNL     1      -0.244   0.041   0.230  0.00  0.00    +0.298 C 
ATOM     24  O   UNL     1      -0.679  -0.911  -0.389  0.00  0.00    -0.253 OA
ATOM     25  N   UNL     1       1.038   0.045   0.647  0.00  0.00    -0.313 N 
ATOM     26  H   UNL     1      -0.649   1.956   1.053  0.00  0.00    +0.151 HD
ATOM     27  H   UNL     1       1.689  -0.815   0.431  0.00  0.00    +0.146 HD
ATOM     28  H   UNL     1       1.432   0.909   1.203  0.00  0.00    +0.146 HD
ENDBRANCH  21  22
BRANCH  21  30
ATOM     29  C   UNL     1      -3.927   1.464  -1.934  0.00  0.00    +0.009 C 
ATOM     30  C   UNL     1      -2.495   1.594  -1.409  0.00  0.00    +0.012 C 
ATOM     31  C   UNL     1      -2.065   3.061  -1.458  0.00  0.00    +0.009 C 
ENDBRANCH  21  30
ENDBRANCH   1  21
TORSDOF 5
