REMARK  Name = ZINC36718850
REMARK  10 active torsions:
REMARK  status: ('A' for Active; 'I' for Inactive)
REMARK    1  A    between atoms: C_1  and  C_2
REMARK    2  A    between atoms: C_2  and  C_3
REMARK    3  A    between atoms: C_2  and  C_4
REMARK    4  A    between atoms: C_9  and  N_10
REMARK    5  A    between atoms: C_11  and  C_13
REMARK    6  A    between atoms: C_13  and  N_14
REMARK    7  A    between atoms: C_20  and  C_23
REMARK    8  A    between atoms: C_23  and  C_24
REMARK    9  A    between atoms: C_23  and  C_25
REMARK   10  A    between atoms: C_23  and  C_26
REMARK                            x       y       z     vdW  Elec       q    Type
REMARK                         _______ _______ _______ _____ _____    ______ ____
ROOT
ATOM      1  N   UNL     1      -1.223  -3.024  -5.449  0.00  0.00    -0.215 N 
ATOM      2  C   UNL     1      -1.419  -4.355  -5.549  0.00  0.00    +0.247 C 
ATOM      3  O   UNL     1      -1.036  -5.213  -4.783  0.00  0.00    -0.273 OA
ATOM      4  C   UNL     1      -2.216  -4.552  -6.819  0.00  0.00    +0.113 C 
ATOM      5  C   UNL     1      -3.565  -5.190  -6.505  0.00  0.00    +0.035 C 
ATOM      6  C   UNL     1      -3.346  -6.590  -5.926  0.00  0.00    +0.006 C 
ATOM      7  C   UNL     1      -2.581  -7.445  -6.938  0.00  0.00    -0.005 C 
ATOM      8  C   UNL     1      -1.222  -6.804  -7.227  0.00  0.00    +0.006 C 
ATOM      9  C   UNL     1      -1.433  -5.405  -7.811  0.00  0.00    +0.035 C 
ATOM     10  N   UNL     1      -2.397  -3.191  -7.340  0.00  0.00    -0.285 N 
ATOM     11  C   UNL     1      -1.787  -2.365  -6.469  0.00  0.00    +0.310 C 
ATOM     12  O   UNL     1      -1.749  -1.157  -6.596  0.00  0.00    -0.252 OA
ATOM     13  H   UNL     1      -2.868  -2.937  -8.149  0.00  0.00    +0.151 HD
ENDROOT
BRANCH   7  14
ATOM     14  C   UNL     1      -2.371  -8.848  -6.364  0.00  0.00    -0.035 C 
ATOM     15  C   UNL     1      -3.730  -9.490  -6.078  0.00  0.00    +0.011 C 
ATOM     16  C   UNL     1      -1.606  -9.704  -7.376  0.00  0.00    +0.011 C 
ATOM     17  C   UNL     1      -1.568  -8.753  -5.066  0.00  0.00    +0.011 C 
ENDBRANCH   7  14
BRANCH   1  18
ATOM     18  C   UNL     1      -0.490  -2.380  -4.357  0.00  0.00    +0.214 C 
BRANCH  18  20
ATOM     19  N   UNL     1      -0.991  -1.440  -2.124  0.00  0.00    -0.284 N 
ATOM     20  C   UNL     1      -1.445  -2.043  -3.241  0.00  0.00    +0.235 C 
ATOM     21  O   UNL     1      -2.622  -2.315  -3.347  0.00  0.00    -0.274 OA
ATOM     22  H   UNL     1      -0.061  -1.171  -2.062  0.00  0.00    +0.155 HD
BRANCH  19  28
ATOM     23  C   UNL     1      -1.363  -1.099   0.238  0.00  0.00    -0.024 A 
ATOM     24  C   UNL     1      -2.223  -0.858   1.291  0.00  0.00    +0.006 A 
ATOM     25  C   UNL     1      -3.580  -0.726   1.060  0.00  0.00    +0.000 A 
ATOM     26  C   UNL     1      -4.080  -0.833  -0.225  0.00  0.00    +0.002 A 
ATOM     27  C   UNL     1      -3.225  -1.073  -1.282  0.00  0.00    +0.023 A 
ATOM     28  C   UNL     1      -1.861  -1.202  -1.054  0.00  0.00    +0.037 A 
BRANCH  23  30
ATOM     29  C   UNL     1       0.677   0.082   1.009  0.00  0.00    +0.012 C 
ATOM     30  C   UNL     1       0.116  -1.243   0.490  0.00  0.00    +0.015 C 
ATOM     31  C   UNL     1       0.351  -2.339   1.531  0.00  0.00    +0.012 C 
ENDBRANCH  23  30
ENDBRANCH  19  28
ENDBRANCH  18  20
ENDBRANCH   1  18
TORSDOF 5
