REMARK  Name = ZINC36586616
REMARK  16 active torsions:
REMARK  status: ('A' for Active; 'I' for Inactive)
REMARK    1  A    between atoms: C_1  and  C_2
REMARK    2  A    between atoms: C_5  and  C_9
REMARK    3  A    between atoms: C_6  and  C_8
REMARK    4  A    between atoms: C_9  and  C_11
REMARK    5  A    between atoms: C_9  and  N_18
REMARK    6  A    between atoms: N_13  and  C_14
REMARK    7  A    between atoms: C_14  and  C_15
REMARK    8  A    between atoms: C_14  and  C_16
REMARK    9  A    between atoms: C_14  and  C_17
REMARK   10  A    between atoms: N_18  and  C_29
REMARK   11  A    between atoms: C_19  and  C_21
REMARK   12  A    between atoms: C_22  and  O_28
REMARK   13  A    between atoms: C_26  and  O_27
REMARK   14  A    between atoms: C_29  and  C_30
REMARK   15  A    between atoms: C_29  and  C_31
REMARK   16  A    between atoms: C_29  and  C_32
REMARK                            x       y       z     vdW  Elec       q    Type
REMARK                         _______ _______ _______ _____ _____    ______ ____
ROOT
ATOM      1  C   UNL     1       0.014  -3.740   1.158  0.00  0.00    +0.193 C 
ENDROOT
BRANCH   1   6
ATOM      2  C   UNL     1      -0.482   1.904   2.294  0.00  0.00    +0.044 C 
ATOM      3  C   UNL     1      -0.353   0.432   1.998  0.00  0.00    -0.050 A 
ATOM      4  C   UNL     1       0.856  -0.083   1.568  0.00  0.00    +0.004 A 
ATOM      5  C   UNL     1       0.975  -1.433   1.297  0.00  0.00    +0.006 A 
ATOM      6  C   UNL     1      -0.115  -2.269   1.455  0.00  0.00    -0.015 A 
ATOM      7  C   UNL     1      -1.323  -1.754   1.886  0.00  0.00    -0.045 A 
ATOM      8  C   UNL     1      -1.441  -0.404   2.162  0.00  0.00    +0.007 A 
ATOM      9  C   UNL     1      -2.512  -2.665   2.058  0.00  0.00    +0.044 C 
ENDBRANCH   1   6
BRANCH   1  10
ATOM     10  C   UNL     1       1.472  -4.121   1.132  0.00  0.00    +0.239 C 
ATOM     11  O   UNL     1       2.001  -4.424   0.083  0.00  0.00    -0.273 OA
ATOM     12  N   UNL     1       2.188  -4.125   2.274  0.00  0.00    -0.309 N 
ATOM     13  H   UNL     1       1.750  -3.953   3.122  0.00  0.00    +0.149 HD
BRANCH  12  14
ATOM     14  C   UNL     1       3.628  -4.391   2.234  0.00  0.00    +0.026 C 
ATOM     15  C   UNL     1       4.318  -3.334   1.369  0.00  0.00    +0.031 C 
ATOM     16  C   UNL     1       4.196  -4.337   3.654  0.00  0.00    +0.031 C 
ATOM     17  C   UNL     1       3.875  -5.778   1.638  0.00  0.00    +0.031 C 
ENDBRANCH  12  14
ENDBRANCH   1  10
BRANCH   1  18
ATOM     18  N   UNL     1      -0.590  -4.031  -0.144  0.00  0.00    -0.277 N 
ATOM     19  C   UNL     1      -0.300  -3.257  -1.209  0.00  0.00    +0.255 C 
ATOM     20  O   UNL     1       0.561  -2.402  -1.123  0.00  0.00    -0.270 OA
BRANCH  19  21
ATOM     21  C   UNL     1      -1.027  -3.446  -2.476  0.00  0.00    +0.119 A 
ATOM     22  C   UNL     1      -2.246  -2.789  -2.696  0.00  0.00    +0.133 A 
ATOM     23  C   UNL     1      -2.921  -2.973  -3.892  0.00  0.00    +0.046 A 
ATOM     24  C   UNL     1      -2.396  -3.802  -4.866  0.00  0.00    +0.007 A 
ATOM     25  C   UNL     1      -1.195  -4.454  -4.660  0.00  0.00    +0.046 A 
ATOM     26  C   UNL     1      -0.501  -4.279  -3.474  0.00  0.00    +0.133 A 
BRANCH  26  27
ATOM     27  O   UNL     1       0.680  -4.916  -3.276  0.00  0.00    -0.506 OA
ATOM     28  H   UNL     1       0.593  -5.790  -2.869  0.00  0.00    +0.292 HD
ENDBRANCH  26  27
BRANCH  22  29
ATOM     29  O   UNL     1      -2.763  -1.976  -1.741  0.00  0.00    -0.506 OA
ATOM     30  H   UNL     1      -2.480  -1.054  -1.814  0.00  0.00    +0.292 HD
ENDBRANCH  22  29
ENDBRANCH  19  21
BRANCH  18  31
ATOM     31  C   UNL     1      -1.509  -5.162  -0.290  0.00  0.00    +0.030 C 
ATOM     32  C   UNL     1      -1.741  -5.810   1.077  0.00  0.00    +0.031 C 
ATOM     33  C   UNL     1      -2.843  -4.667  -0.853  0.00  0.00    +0.031 C 
ATOM     34  C   UNL     1      -0.903  -6.192  -1.245  0.00  0.00    +0.031 C 
ENDBRANCH  18  31
ENDBRANCH   1  18
TORSDOF 8
