REMARK  Name = ZINC33514733
REMARK  10 active torsions:
REMARK  status: ('A' for Active; 'I' for Inactive)
REMARK    1  A    between atoms: C_1  and  C_2
REMARK    2  A    between atoms: C_5  and  C_23
REMARK    3  A    between atoms: C_6  and  C_7
REMARK    4  A    between atoms: C_6  and  C_8
REMARK    5  A    between atoms: N_12  and  N_13
REMARK    6  A    between atoms: N_13  and  C_14
REMARK    7  A    between atoms: C_17  and  N_20
REMARK    8  A    between atoms: N_25  and  C_26
REMARK    9  A    between atoms: C_31  and  O_32
REMARK   10  A    between atoms: O_32  and  C_33
REMARK                            x       y       z     vdW  Elec       q    Type
REMARK                         _______ _______ _______ _____ _____    ______ ____
ROOT
ATOM      1  C   UNL     1      -0.060   1.526   0.037  0.00  0.00    +0.018 C 
ATOM      2  C   UNL     1      -0.031  -0.003   0.023  0.00  0.00    +0.022 C 
ATOM      3  C   UNL     1       0.705  -0.665  -1.184  0.00  0.00    +0.015 C 
ATOM      4  C   UNL     1       0.985  -2.110  -0.708  0.00  0.00    +0.026 C 
ATOM      5  C   UNL     1       0.386  -2.158   0.732  0.00  0.00    +0.117 C 
ATOM      6  C   UNL     1       0.703  -0.700   1.224  0.00  0.00    -0.003 C 
ATOM      7  C   UNL     1       2.208  -0.421   1.227  0.00  0.00    +0.013 C 
ATOM      8  C   UNL     1       0.057  -0.369   2.571  0.00  0.00    +0.013 C 
ATOM      9  C   UNL     1      -1.129  -2.048   0.516  0.00  0.00    +0.195 C 
ATOM     10  O   UNL     1      -1.950  -2.926   0.685  0.00  0.00    -0.290 OA
ATOM     11  C   UNL     1      -1.393  -0.707   0.092  0.00  0.00    +0.109 C 
ATOM     12  N   UNL     1      -2.555  -0.185  -0.200  0.00  0.00    -0.183 NA
ENDROOT
BRANCH   5  13
ATOM     13  C   UNL     1       0.866  -3.283   1.613  0.00  0.00    +0.232 C 
ATOM     14  O   UNL     1       1.449  -3.037   2.648  0.00  0.00    -0.274 OA
ATOM     15  N   UNL     1       0.648  -4.563   1.251  0.00  0.00    -0.282 N 
ATOM     16  H   UNL     1       0.126  -4.760   0.457  0.00  0.00    +0.155 HD
BRANCH  15  17
ATOM     17  C   UNL     1       1.174  -5.608   2.020  0.00  0.00    +0.077 A 
ATOM     18  C   UNL     1       1.266  -5.480   3.399  0.00  0.00    +0.047 A 
ATOM     19  C   UNL     1       1.786  -6.513   4.156  0.00  0.00    +0.043 A 
ATOM     20  C   UNL     1       2.215  -7.677   3.542  0.00  0.00    +0.024 A 
ATOM     21  C   UNL     1       2.127  -7.811   2.169  0.00  0.00    +0.049 A 
ATOM     22  C   UNL     1       1.602  -6.782   1.404  0.00  0.00    +0.141 A 
ATOM     23 CL   UNL     1       1.900  -6.351   5.881  0.00  0.00    -0.083 Cl
BRANCH  22  24
ATOM     24  O   UNL     1       1.509  -6.916   0.054  0.00  0.00    -0.493 OA
ATOM     25  C   UNL     1       1.967  -8.147  -0.509  0.00  0.00    +0.277 C 
ENDBRANCH  22  24
ENDBRANCH  15  17
ENDBRANCH   5  13
BRANCH  12  26
ATOM     26  N   UNL     1      -3.626  -0.897  -0.096  0.00  0.00    -0.237 N 
ATOM     27  H   UNL     1      -3.569  -1.819   0.199  0.00  0.00    +0.174 HD
BRANCH  26  28
ATOM     28  C   UNL     1      -4.867  -0.340  -0.408  0.00  0.00    +0.048 A 
ATOM     29  C   UNL     1      -4.951   0.979  -0.837  0.00  0.00    +0.027 A 
ATOM     30  C   UNL     1      -6.180   1.527  -1.146  0.00  0.00    +0.034 A 
ATOM     31  C   UNL     1      -7.328   0.764  -1.028  0.00  0.00    +0.126 A 
ATOM     32  C   UNL     1      -7.249  -0.549  -0.601  0.00  0.00    +0.034 A 
ATOM     33  C   UNL     1      -6.022  -1.105  -0.296  0.00  0.00    +0.027 A 
BRANCH  31  34
ATOM     34  N   UNL     1      -8.644   1.355  -1.359  0.00  0.00    +0.056 N 
ATOM     35  O   UNL     1      -8.715   2.502  -1.732  0.00  0.00    -0.126 OA
ATOM     36  O   UNL     1      -9.648   0.689  -1.256  0.00  0.00    -0.126 OA
ENDBRANCH  31  34
ENDBRANCH  26  28
ENDBRANCH  12  26
TORSDOF 6
