REMARK  Name = ZINC41584770
REMARK  4 active torsions:
REMARK  status: ('A' for Active; 'I' for Inactive)
REMARK    1  A    between atoms: C_3  and  C_8
REMARK    2  A    between atoms: C_15  and  O_36
REMARK    3  A    between atoms: C_16  and  C_19
REMARK    4  A    between atoms: C_19  and  N_20
REMARK                            x       y       z     vdW  Elec       q    Type
REMARK                         _______ _______ _______ _____ _____    ______ ____
ROOT
ATOM      1  C   UNL     1       3.652   2.156  -0.022  0.00  0.00    +0.058 C 
ATOM      2  C   UNL     1       4.832   1.494   0.066  0.00  0.00    +0.176 C 
ATOM      3  C   UNL     1       6.166   2.106   0.179  0.00  0.00    +0.231 C 
ATOM      4  O   UNL     1       6.442   3.292   0.213  0.00  0.00    -0.283 OA
ATOM      5  C   UNL     1       7.093   0.961   0.242  0.00  0.00    +0.068 A 
ATOM      6  C   UNL     1       8.481   0.862   0.353  0.00  0.00    +0.019 A 
ATOM      7  C   UNL     1       9.075  -0.367   0.388  0.00  0.00    +0.046 A 
ATOM      8  C   UNL     1       8.299  -1.521   0.314  0.00  0.00    +0.122 A 
ATOM      9  C   UNL     1       6.920  -1.438   0.204  0.00  0.00    +0.020 A 
ATOM     10  C   UNL     1       6.300  -0.195   0.167  0.00  0.00    +0.144 A 
ATOM     11  O   UNL     1       4.998   0.150   0.071  0.00  0.00    -0.451 OA
ENDROOT
BRANCH   1  14
ATOM     12  C   UNL     1       1.207  -0.687  -0.021  0.00  0.00    +0.002 A 
ATOM     13  C   UNL     1       2.397   0.008  -0.035  0.00  0.00    +0.008 A 
ATOM     14  C   UNL     1       2.387   1.407  -0.009  0.00  0.00    -0.020 A 
ATOM     15  C   UNL     1       1.166   2.090   0.031  0.00  0.00    +0.023 A 
ATOM     16  C   UNL     1      -0.017   1.380   0.043  0.00  0.00    +0.018 A 
ATOM     17  C   UNL     1       0.003  -0.005   0.017  0.00  0.00    +0.015 A 
ATOM     18 BR   UNL     1      -1.668   2.299   0.096  0.00  0.00    -0.050 Br
ENDBRANCH   1  14
BRANCH   8  19
ATOM     19  O   UNL     1       8.898  -2.739   0.350  0.00  0.00    -0.506 OA
ATOM     20  H   UNL     1       9.001  -3.100   1.241  0.00  0.00    +0.292 HD
ENDBRANCH   8  19
BRANCH   9  21
ATOM     21  C   UNL     1       6.093  -2.695   0.123  0.00  0.00    -0.036 C 
BRANCH  21  22
ATOM     22  N   UNL     1       5.713  -3.119   1.478  0.00  0.00    +0.383 N 
ATOM     23  C   UNL     1       4.804  -4.265   1.392  0.00  0.00    -0.073 C 
ATOM     24  C   UNL     1       4.386  -4.739   2.776  0.00  0.00    -0.007 C 
ATOM     25  C   UNL     1       5.614  -5.078   3.627  0.00  0.00    +0.011 C 
ATOM     26  C   UNL     1       6.500  -3.827   3.670  0.00  0.00    +0.020 C 
ATOM     27  C   UNL     1       6.920  -3.493   2.229  0.00  0.00    -0.069 C 
ATOM     28  C   UNL     1       5.691  -2.666   4.202  0.00  0.00    +0.023 A 
ATOM     29  C   UNL     1       6.359  -1.686   4.865  0.00  0.00    +0.022 A 
ATOM     30  C   UNL     1       5.682  -0.552   5.327  0.00  0.00    +0.007 A 
ATOM     31  C   UNL     1       4.346  -0.435   5.079  0.00  0.00    +0.070 A 
ATOM     32  C   UNL     1       3.688  -1.462   4.388  0.00  0.00    +0.251 A 
ATOM     33  O   UNL     1       2.506  -1.340   4.106  0.00  0.00    -0.268 OA
ATOM     34  N   UNL     1       4.350  -2.590   4.031  0.00  0.00    -0.312 N 
ATOM     35  C   UNL     1       3.555  -3.695   3.503  0.00  0.00    +0.126 C 
ATOM     36  H   UNL     1       5.247  -2.357   1.949  0.00  0.00    -0.081 HD
ENDBRANCH  21  22
ENDBRANCH   9  21
TORSDOF 4
