REMARK  Name = ZINC22919998
REMARK  12 active torsions:
REMARK  status: ('A' for Active; 'I' for Inactive)
REMARK    1  A    between atoms: C_3  and  O_30
REMARK    2  A    between atoms: C_6  and  C_7
REMARK    3  A    between atoms: C_7  and  N_8
REMARK    4  A    between atoms: N_8  and  C_9
REMARK    5  A    between atoms: N_8  and  C_17
REMARK    6  A    between atoms: C_9  and  C_10
REMARK    7  A    between atoms: C_10  and  N_11
REMARK    8  A    between atoms: C_17  and  C_18
REMARK    9  A    between atoms: N_23  and  C_25
REMARK   10  A    between atoms: O_30  and  C_31
REMARK   11  A    between atoms: C_31  and  C_32
REMARK   12  A    between atoms: C_32  and  O_33
REMARK                            x       y       z     vdW  Elec       q    Type
REMARK                         _______ _______ _______ _____ _____    ______ ____
ROOT
ATOM      1  N   UNL     1      -0.061  -0.013   0.131  0.00  0.00    +0.383 N 
ATOM      2  H   UNL     1       0.637  -0.329   0.920  0.00  0.00    -0.081 HD
ENDROOT
BRANCH   1   3
ATOM      3  C   UNL     1      -0.039   1.454   0.070  0.00  0.00    -0.043 C 
BRANCH   3   9
ATOM      4  C   UNL     1       2.041   2.095   1.305  0.00  0.00    +0.005 A 
ATOM      5  C   UNL     1       3.351   2.532   1.332  0.00  0.00    +0.046 A 
ATOM      6  C   UNL     1       4.009   2.822   0.146  0.00  0.00    +0.121 A 
ATOM      7  C   UNL     1       3.350   2.668  -1.065  0.00  0.00    +0.046 A 
ATOM      8  C   UNL     1       2.042   2.226  -1.087  0.00  0.00    +0.005 A 
ATOM      9  C   UNL     1       1.388   1.937   0.097  0.00  0.00    -0.064 A 
BRANCH   6  10
ATOM     10  O   UNL     1       5.296   3.257   0.170  0.00  0.00    -0.490 OA
BRANCH  10  11
ATOM     11  C   UNL     1       5.911   3.393   1.453  0.00  0.00    +0.256 C 
BRANCH  11  12
ATOM     12  C   UNL     1       7.348   3.889   1.279  0.00  0.00    +0.196 C 
BRANCH  12  13
ATOM     13  O   UNL     1       7.333   5.206   0.726  0.00  0.00    -0.392 OA
ATOM     14  H   UNL     1       8.280   5.731   0.529  0.00  0.00    +0.210 HD
ENDBRANCH  12  13
ENDBRANCH  11  12
ENDBRANCH  10  11
ENDBRANCH   6  10
ENDBRANCH   3   9
ENDBRANCH   1   3
BRANCH   1  15
ATOM     15  C   UNL     1       0.394  -0.600  -1.136  0.00  0.00    -0.063 C 
BRANCH  15  16
ATOM     16  C   UNL     1      -0.565  -0.198  -2.258  0.00  0.00    +0.066 C 
BRANCH  16  17
ATOM     17  N   UNL     1      -0.170  -0.868  -3.504  0.00  0.00    -0.304 NA
ATOM     18  C   UNL     1       1.139  -0.388  -3.967  0.00  0.00    +0.084 C 
ATOM     19  C   UNL     1       1.584  -1.207  -5.181  0.00  0.00    +0.015 C 
ATOM     20  C   UNL     1       0.544  -1.065  -6.295  0.00  0.00    +0.002 C 
ATOM     21  C   UNL     1      -0.820  -1.526  -5.772  0.00  0.00    +0.015 C 
ATOM     22  C   UNL     1      -1.195  -0.697  -4.541  0.00  0.00    +0.084 C 
ENDBRANCH  16  17
ENDBRANCH  15  16
ENDBRANCH   1  15
BRANCH   1  23
ATOM     23  C   UNL     1      -1.399  -0.505   0.489  0.00  0.00    -0.077 C 
BRANCH  23  24
ATOM     24  C   UNL     1      -1.308  -1.975   0.902  0.00  0.00    -0.044 C 
ATOM     25  C   UNL     1      -2.713  -2.517   1.179  0.00  0.00    -0.002 C 
ATOM     26  C   UNL     1      -2.608  -3.970   1.650  0.00  0.00    -0.018 C 
ATOM     27  C   UNL     1      -1.722  -4.035   2.896  0.00  0.00    -0.078 C 
ATOM     28  N   UNL     1      -0.389  -3.507   2.579  0.00  0.00    +0.382 N 
ATOM     29  C   UNL     1      -0.459  -2.098   2.170  0.00  0.00    -0.077 C 
ATOM     30  H   UNL     1       0.006  -4.083   1.729  0.00  0.00    -0.081 HD
BRANCH  28  31
ATOM     31  C   UNL     1       0.529  -3.681   3.712  0.00  0.00    -0.069 C 
ATOM     32  C   UNL     1       1.961  -3.284   3.297  0.00  0.00    -0.015 C 
ATOM     33  C   UNL     1       2.867  -4.302   4.034  0.00  0.00    -0.002 C 
ATOM     34  C   UNL     1       2.050  -5.615   3.941  0.00  0.00    -0.002 C 
ATOM     35  C   UNL     1       0.586  -5.163   4.121  0.00  0.00    -0.015 C 
ENDBRANCH  28  31
ENDBRANCH  23  24
ENDBRANCH   1  23
TORSDOF 12
