REMARK  Name = ZINC58309111
REMARK  6 active torsions:
REMARK  status: ('A' for Active; 'I' for Inactive)
REMARK    1  A    between atoms: C_1  and  C_2
REMARK    2  A    between atoms: C_4  and  C_26
REMARK    3  A    between atoms: C_5  and  S_9
REMARK    4  A    between atoms: C_6  and  C_8
REMARK    5  A    between atoms: S_9  and  N_12
REMARK    6  A    between atoms: C_14  and  C_23
REMARK                            x       y       z     vdW  Elec       q    Type
REMARK                         _______ _______ _______ _____ _____    ______ ____
ROOT
ATOM      1  N   UNL     1       0.470  -5.209   0.376  0.00  0.00    -0.202 N 
ATOM      2  C   UNL     1       1.311  -5.755  -0.698  0.00  0.00    +0.144 C 
ATOM      3  C   UNL     1       2.772  -5.427  -0.361  0.00  0.00    +0.098 C 
ATOM      4  C   UNL     1       3.150  -6.138   0.938  0.00  0.00    +0.051 C 
ATOM      5  C   UNL     1       2.139  -5.843   2.014  0.00  0.00    -0.024 A 
ATOM      6  C   UNL     1       0.864  -5.396   1.705  0.00  0.00    +0.054 A 
ATOM      7  C   UNL     1      -0.044  -5.133   2.724  0.00  0.00    +0.025 A 
ATOM      8  C   UNL     1       0.326  -5.308   4.043  0.00  0.00    +0.002 A 
ATOM      9  C   UNL     1       1.601  -5.746   4.348  0.00  0.00    +0.000 A 
ATOM     10  C   UNL     1       2.499  -6.020   3.339  0.00  0.00    +0.005 A 
ENDROOT
BRANCH   3  11
ATOM     11  C   UNL     1       3.666  -5.902  -1.478  0.00  0.00    +0.215 C 
ATOM     12  O   UNL     1       3.186  -6.448  -2.449  0.00  0.00    -0.276 OA
ATOM     13  N   UNL     1       4.999  -5.719  -1.398  0.00  0.00    -0.329 N 
ATOM     14  H   UNL     1       5.383  -5.282  -0.622  0.00  0.00    +0.145 HD
ATOM     15  H   UNL     1       5.574  -6.024  -2.117  0.00  0.00    +0.145 HD
ENDBRANCH   3  11
BRANCH   1  16
ATOM     16  S   UNL     1      -0.918  -4.380   0.018  0.00  0.00    +0.075 S 
ATOM     17  O   UNL     1      -1.286  -3.676   1.197  0.00  0.00    -0.150 OA
ATOM     18  O   UNL     1      -1.789  -5.303  -0.621  0.00  0.00    -0.150 OA
BRANCH  16  23
ATOM     19  C   UNL     1       0.508  -0.213  -4.106  0.00  0.00    +0.044 C 
ATOM     20  C   UNL     1       0.151  -1.254  -3.076  0.00  0.00    -0.050 A 
ATOM     21  C   UNL     1       0.316  -0.980  -1.731  0.00  0.00    +0.008 A 
ATOM     22  C   UNL     1      -0.011  -1.935  -0.786  0.00  0.00    -0.023 A 
ATOM     23  C   UNL     1      -0.503  -3.163  -1.186  0.00  0.00    +0.115 A 
ATOM     24  C   UNL     1      -0.668  -3.437  -2.531  0.00  0.00    -0.023 A 
ATOM     25  C   UNL     1      -0.345  -2.481  -3.476  0.00  0.00    +0.008 A 
ATOM     26  C   UNL     1      -1.204  -4.776  -2.967  0.00  0.00    +0.046 C 
ATOM     27  C   UNL     1       0.170  -1.636   0.680  0.00  0.00    +0.046 C 
ENDBRANCH  16  23
ENDBRANCH   1  16
TORSDOF 3
