REMARK  Name = ZINC39652656
REMARK  9 active torsions:
REMARK  status: ('A' for Active; 'I' for Inactive)
REMARK    1  A    between atoms: C_1  and  C_2
REMARK    2  A    between atoms: C_2  and  O_3
REMARK    3  A    between atoms: O_3  and  C_4
REMARK    4  A    between atoms: C_9  and  C_10
REMARK    5  A    between atoms: C_10  and  C_11
REMARK    6  A    between atoms: C_11  and  N_12
REMARK    7  A    between atoms: C_13  and  C_15
REMARK    8  A    between atoms: C_26  and  C_28
REMARK    9  A    between atoms: C_31  and  C_35
REMARK                            x       y       z     vdW  Elec       q    Type
REMARK                         _______ _______ _______ _____ _____    ______ ____
ROOT
ATOM      1  C   UNL     1       5.983   0.701  -4.926  0.00  0.00    +0.100 C 
ATOM      2  C   UNL     1       6.134   0.251  -6.396  0.00  0.00    +0.121 C 
ATOM      3  N   UNL     1       7.375   0.913  -6.864  0.00  0.00    -0.296 N 
ATOM      4  C   UNL     1       8.300   0.822  -5.709  0.00  0.00    +0.115 C 
ATOM      5  C   UNL     1       7.407   1.075  -4.479  0.00  0.00    -0.004 C 
ATOM      6  C   UNL     1       7.466   2.545  -4.076  0.00  0.00    -0.010 C 
ATOM      7  C   UNL     1       8.876   2.878  -3.582  0.00  0.00    -0.082 C 
ATOM      8  N   UNL     1       9.210   2.023  -2.437  0.00  0.00    +0.379 N 
ATOM      9  C   UNL     1       9.241   0.616  -2.854  0.00  0.00    -0.082 C 
ATOM     10  C   UNL     1       7.846   0.188  -3.318  0.00  0.00    -0.010 C 
ATOM     11  C   UNL     1       7.609   1.471  -8.069  0.00  0.00    +0.247 C 
ATOM     12  O   UNL     1       6.705   1.582  -8.873  0.00  0.00    -0.270 OA
ATOM     13  H   UNL     1      10.114   2.285  -2.075  0.00  0.00    -0.086 HD
ATOM     14  H   UNL     1       8.514   2.143  -1.715  0.00  0.00    -0.086 HD
ENDROOT
BRANCH  11  15
ATOM     15  C   UNL     1       8.966   1.948  -8.411  0.00  0.00    +0.040 A 
ATOM     16  C   UNL     1      10.076   1.460  -7.718  0.00  0.00    +0.014 A 
ATOM     17  C   UNL     1      11.340   1.907  -8.042  0.00  0.00    +0.016 A 
ATOM     18  C   UNL     1      11.511   2.839  -9.050  0.00  0.00    +0.090 A 
ATOM     19  C   UNL     1      10.415   3.328  -9.742  0.00  0.00    +0.136 A 
ATOM     20  C   UNL     1       9.144   2.883  -9.431  0.00  0.00    +0.052 A 
ATOM     21  F   UNL     1      10.588   4.238 -10.725  0.00  0.00    -0.205 F 
BRANCH  18  22
ATOM     22  C   UNL     1      12.895   3.323  -9.398  0.00  0.00    +0.420 C 
ATOM     23  F   UNL     1      13.831   2.693  -8.572  0.00  0.00    -0.166 F 
ATOM     24  F   UNL     1      13.173   3.019 -10.735  0.00  0.00    -0.166 F 
ATOM     25  F   UNL     1      12.965   4.708  -9.210  0.00  0.00    -0.166 F 
ENDBRANCH  18  22
ENDBRANCH  11  15
BRANCH   1  27
ATOM     26  N   UNL     1       4.691  -0.161  -3.001  0.00  0.00    -0.315 N 
ATOM     27  C   UNL     1       5.448  -0.428  -4.083  0.00  0.00    +0.218 C 
ATOM     28  O   UNL     1       5.698  -1.577  -4.380  0.00  0.00    -0.275 OA
ATOM     29  H   UNL     1       4.491   0.758  -2.763  0.00  0.00    +0.149 HD
BRANCH  26  30
ATOM     30  C   UNL     1       4.171  -1.259  -2.182  0.00  0.00    +0.109 C 
BRANCH  30  31
ATOM     31  C   UNL     1       3.350  -0.687  -1.024  0.00  0.00    +0.057 C 
BRANCH  31  37
ATOM     32  C   UNL     1       3.599  -2.366   0.821  0.00  0.00    +0.124 A 
ATOM     33  C   UNL     1       3.101  -3.403   1.598  0.00  0.00    +0.046 A 
ATOM     34  C   UNL     1       1.829  -3.887   1.368  0.00  0.00    +0.004 A 
ATOM     35  C   UNL     1       1.050  -3.341   0.364  0.00  0.00    +0.000 A 
ATOM     36  C   UNL     1       1.544  -2.309  -0.412  0.00  0.00    +0.007 A 
ATOM     37  C   UNL     1       2.815  -1.816  -0.182  0.00  0.00    -0.004 A 
BRANCH  32  38
ATOM     38  O   UNL     1       4.851  -1.888   1.046  0.00  0.00    -0.492 OA
BRANCH  38  40
ATOM     39  C   UNL     1       6.974  -1.835   2.198  0.00  0.00    +0.048 C 
ATOM     40  C   UNL     1       5.601  -2.502   2.095  0.00  0.00    +0.225 C 
ENDBRANCH  38  40
ENDBRANCH  32  38
ENDBRANCH  31  37
ENDBRANCH  30  31
ENDBRANCH  26  30
ENDBRANCH   1  27
TORSDOF 8
