REMARK  Name = ZINC20756843
REMARK  5 active torsions:
REMARK  status: ('A' for Active; 'I' for Inactive)
REMARK    1  A    between atoms: C_4  and  C_7
REMARK    2  A    between atoms: C_7  and  O_8
REMARK    3  A    between atoms: O_8  and  C_9
REMARK    4  A    between atoms: C_22  and  C_25
REMARK    5  A    between atoms: C_28  and  N_31
REMARK                            x       y       z     vdW  Elec       q    Type
REMARK                         _______ _______ _______ _____ _____    ______ ____
ROOT
ATOM      1  C   UNL     1      -0.564   4.588  -0.509  0.00  0.00    +0.121 A 
ATOM      2  C   UNL     1      -0.976   3.268  -0.401  0.00  0.00    +0.047 A 
ATOM      3  C   UNL     1      -0.044   2.262  -0.253  0.00  0.00    +0.027 A 
ATOM      4  C   UNL     1       1.312   2.561  -0.215  0.00  0.00    +0.032 A 
ATOM      5  C   UNL     1       1.723   3.894  -0.319  0.00  0.00    -0.016 A 
ATOM      6  C   UNL     1       0.787   4.895  -0.470  0.00  0.00    +0.051 A 
ATOM      7  C   UNL     1       3.174   4.169  -0.248  0.00  0.00    +0.049 C 
ATOM      8  C   UNL     1       3.779   5.369  -0.880  0.00  0.00    -0.023 C 
ATOM      9  C   UNL     1       5.016   5.071  -1.260  0.00  0.00    -0.030 C 
ATOM     10  C   UNL     1       5.332   3.591  -0.953  0.00  0.00    +0.033 C 
ATOM     11  C   UNL     1       3.921   2.988  -0.936  0.00  0.00    +0.029 C 
ATOM     12  C   UNL     1       3.694   1.786  -0.035  0.00  0.00    +0.105 C 
ATOM     13  N   UNL     1       2.241   1.516  -0.089  0.00  0.00    -0.336 N 
ATOM     14  H   UNL     1       1.871   0.482  -0.030  0.00  0.00    +0.147 HD
ENDROOT
BRANCH  12  15
ATOM     15  C   UNL     1       4.112   2.108   1.377  0.00  0.00    -0.027 A 
ATOM     16  C   UNL     1       5.412   1.874   1.783  0.00  0.00    +0.008 A 
ATOM     17  C   UNL     1       5.797   2.173   3.077  0.00  0.00    +0.033 A 
ATOM     18  C   UNL     1       4.878   2.697   3.967  0.00  0.00    +0.126 A 
ATOM     19  C   UNL     1       3.576   2.926   3.562  0.00  0.00    +0.033 A 
ATOM     20  C   UNL     1       3.193   2.631   2.267  0.00  0.00    +0.008 A 
BRANCH  18  21
ATOM     21  N   UNL     1       5.289   3.014   5.353  0.00  0.00    +0.056 N 
ATOM     22  O   UNL     1       4.479   3.476   6.138  0.00  0.00    -0.126 OA
ATOM     23  O   UNL     1       6.436   2.812   5.710  0.00  0.00    -0.126 OA
ENDBRANCH  18  21
ENDBRANCH  12  15
BRANCH   1  24
ATOM     24  O   UNL     1      -1.484   5.579  -0.657  0.00  0.00    -0.487 OA
BRANCH  24  25
ATOM     25  C   UNL     1      -2.858   5.189  -0.688  0.00  0.00    +0.264 C 
BRANCH  25  29
ATOM     26  C   UNL     1      -5.311   8.654  -1.166  0.00  0.00    +0.000 A 
ATOM     27  C   UNL     1      -4.853   7.972  -2.278  0.00  0.00    +0.000 A 
ATOM     28  C   UNL     1      -4.059   6.851  -2.123  0.00  0.00    +0.007 A 
ATOM     29  C   UNL     1      -3.724   6.412  -0.857  0.00  0.00    -0.010 A 
ATOM     30  C   UNL     1      -4.186   7.090   0.256  0.00  0.00    +0.007 A 
ATOM     31  C   UNL     1      -4.976   8.214   0.101  0.00  0.00    +0.000 A 
ENDBRANCH  25  29
ENDBRANCH  24  25
ENDBRANCH   1  24
TORSDOF 5
