REMARK  Name = ZINC49525197
REMARK  7 active torsions:
REMARK  status: ('A' for Active; 'I' for Inactive)
REMARK    1  A    between atoms: C_1  and  C_2
REMARK    2  A    between atoms: C_3  and  C_9
REMARK    3  A    between atoms: C_4  and  C_8
REMARK    4  A    between atoms: C_9  and  N_10
REMARK    5  A    between atoms: N_10  and  C_11
REMARK    6  A    between atoms: C_11  and  C_13
REMARK    7  A    between atoms: C_11  and  C_14
REMARK                            x       y       z     vdW  Elec       q    Type
REMARK                         _______ _______ _______ _____ _____    ______ ____
ROOT
ATOM      1  N   UNL     1       1.375  -0.154  -2.999  0.00  0.00    +0.386 N 
ATOM      2  H   UNL     1       1.843   0.530  -2.426  0.00  0.00    -0.085 HD
ATOM      3  H   UNL     1       1.863  -1.035  -2.939  0.00  0.00    -0.085 HD
ENDROOT
BRANCH   1   4
ATOM      4  C   UNL     1       1.361   0.303  -4.395  0.00  0.00    -0.044 C 
ATOM      5  C   UNL     1       0.763  -0.789  -5.284  0.00  0.00    -0.009 C 
BRANCH   4   6
ATOM      6  C   UNL     1       2.770   0.597  -4.841  0.00  0.00    -0.062 A 
ATOM      7  C   UNL     1       3.804  -0.238  -4.461  0.00  0.00    +0.003 A 
ATOM      8  C   UNL     1       5.097   0.031  -4.870  0.00  0.00    +0.015 A 
ATOM      9  C   UNL     1       5.356   1.136  -5.660  0.00  0.00    +0.018 A 
ATOM     10  C   UNL     1       4.321   1.972  -6.040  0.00  0.00    +0.015 A 
ATOM     11  C   UNL     1       3.028   1.699  -5.635  0.00  0.00    +0.003 A 
ATOM     12 BR   UNL     1       7.124   1.506  -6.219  0.00  0.00    -0.050 Br
ENDBRANCH   4   6
ENDBRANCH   1   4
BRANCH   1  13
ATOM     13  C   UNL     1      -0.006  -0.327  -2.527  0.00  0.00    -0.042 C 
BRANCH  13  16
ATOM     14  C   UNL     1      -0.018   1.503   0.010  0.00  0.00    +0.065 C 
ATOM     15  C   UNL     1       0.002  -0.004   0.002  0.00  0.00    +0.035 A 
ATOM     16  C   UNL     1       0.008  -0.796  -1.095  0.00  0.00    -0.021 A 
ATOM     17  C   UNL     1       0.028  -2.127  -0.666  0.00  0.00    +0.061 A 
ATOM     18  N   UNL     1       0.035  -2.134   0.643  0.00  0.00    -0.179 NA
ATOM     19  N   UNL     1       0.024  -0.805   1.088  0.00  0.00    -0.281 N 
ATOM     20  H   UNL     1       0.029  -0.513   2.013  0.00  0.00    +0.189 HD
ATOM     21  C   UNL     1       0.040  -3.343  -1.556  0.00  0.00    +0.068 C 
ENDBRANCH  13  16
ENDBRANCH   1  13
TORSDOF 4
