REMARK  Name = ZINC13583173
REMARK  12 active torsions:
REMARK  status: ('A' for Active; 'I' for Inactive)
REMARK    1  A    between atoms: C_1  and  C_2
REMARK    2  A    between atoms: C_2  and  N_3
REMARK    3  A    between atoms: N_3  and  C_4
REMARK    4  A    between atoms: N_3  and  C_13
REMARK    5  A    between atoms: C_4  and  C_5
REMARK    6  A    between atoms: C_15  and  C_32
REMARK    7  A    between atoms: C_20  and  C_31
REMARK    8  A    between atoms: C_21  and  C_22
REMARK    9  A    between atoms: C_24  and  N_28
REMARK   10  A    between atoms: C_26  and  C_27
REMARK   11  A    between atoms: N_28  and  C_29
REMARK   12  A    between atoms: N_28  and  C_30
REMARK                            x       y       z     vdW  Elec       q    Type
REMARK                         _______ _______ _______ _____ _____    ______ ____
ROOT
ATOM      1  C   UNL     1      -3.017   3.317   1.560  0.00  0.00    +0.127 A 
ATOM      2  C   UNL     1      -3.764   3.521   0.430  0.00  0.00    +0.066 A 
ATOM      3  C   UNL     1      -4.904   4.321   0.500  0.00  0.00    +0.044 A 
ATOM      4  N   UNL     1      -5.258   4.875   1.640  0.00  0.00    -0.232 NA
ATOM      5  C   UNL     1      -4.539   4.686   2.752  0.00  0.00    +0.166 A 
ATOM      6  N   UNL     1      -3.415   3.904   2.732  0.00  0.00    -0.200 N 
ATOM      7  N   UNL     1      -2.882   3.884   4.026  0.00  0.00    -0.168 NA
ATOM      8  C   UNL     1      -3.635   4.611   4.814  0.00  0.00    +0.070 A 
ATOM      9  C   UNL     1      -4.688   5.147   4.065  0.00  0.00    +0.051 A 
ATOM     10  C   UNL     1      -3.398   4.842   6.284  0.00  0.00    +0.068 C 
ATOM     11  C   UNL     1      -5.734   4.552  -0.736  0.00  0.00    +0.066 C 
ENDROOT
BRANCH   9  12
ATOM     12  C   UNL     1      -5.769   6.026   4.571  0.00  0.00    +0.006 A 
ATOM     13  C   UNL     1      -6.949   5.480   5.070  0.00  0.00    +0.093 A 
ATOM     14  C   UNL     1      -7.801   7.577   5.518  0.00  0.00    +0.098 A 
ATOM     15  C   UNL     1      -6.655   8.197   5.030  0.00  0.00    +0.045 A 
ATOM     16  C   UNL     1      -5.621   7.418   4.548  0.00  0.00    -0.038 A 
ATOM     17  C   UNL     1      -4.363   8.052   4.011  0.00  0.00    +0.044 C 
ATOM     18  N   UNL     1      -7.977   6.224   5.554  0.00  0.00    -0.349 N 
ATOM     19  H   UNL     1      -8.834   5.796   5.924  0.00  0.00    +0.167 HD
BRANCH  14  20
ATOM     20  N   UNL     1      -8.847   8.355   6.005  0.00  0.00    -0.323 N 
ATOM     21  C   UNL     1      -8.784   9.815   5.902  0.00  0.00    +0.130 C 
ATOM     22  C   UNL     1     -10.012   7.714   6.622  0.00  0.00    +0.130 C 
ENDBRANCH  14  20
ENDBRANCH   9  12
BRANCH   1  23
ATOM     23  N   UNL     1      -1.886   2.531   1.519  0.00  0.00    -0.311 N 
BRANCH  23  25
ATOM     24  C   UNL     1      -0.582   4.314   0.461  0.00  0.00    +0.024 C 
ATOM     25  C   UNL     1      -0.671   3.348   1.644  0.00  0.00    +0.103 C 
ENDBRANCH  23  25
BRANCH  23  26
ATOM     26  C   UNL     1      -1.851   1.722   0.293  0.00  0.00    +0.141 C 
BRANCH  26  27
ATOM     27  C   UNL     1      -0.744   0.705   0.393  0.00  0.00    -0.029 A 
ATOM     28  C   UNL     1       0.524   1.018  -0.060  0.00  0.00    +0.007 A 
ATOM     29  C   UNL     1       1.540   0.084   0.026  0.00  0.00    +0.022 A 
ATOM     30  C   UNL     1       1.287  -1.164   0.566  0.00  0.00    +0.059 A 
ATOM     31  C   UNL     1       0.018  -1.478   1.020  0.00  0.00    +0.060 A 
ATOM     32  C   UNL     1      -0.998  -0.542   0.933  0.00  0.00    +0.026 A 
ATOM     33 CL   UNL     1      -0.300  -3.043   1.699  0.00  0.00    -0.082 Cl
ATOM     34 CL   UNL     1       2.562  -2.337   0.675  0.00  0.00    -0.082 Cl
ENDBRANCH  26  27
ENDBRANCH  23  26
ENDBRANCH   1  23
TORSDOF 6
