REMARK  Name = ZINC67042661
REMARK  3 active torsions:
REMARK  status: ('A' for Active; 'I' for Inactive)
REMARK    1  A    between atoms: C_5  and  C_7
REMARK    2  A    between atoms: N_16  and  C_17
REMARK    3  A    between atoms: C_22  and  C_25
REMARK                            x       y       z     vdW  Elec       q    Type
REMARK                         _______ _______ _______ _____ _____    ______ ____
ROOT
ATOM      1  C   UNL     1       1.229  -2.183  -0.018  0.00  0.00    +0.168 C 
ATOM      2  C   UNL     1       1.370  -2.704   1.417  0.00  0.00    +0.145 C 
ATOM      3  N   UNL     1       1.202  -4.166   1.398  0.00  0.00    -0.281 N 
ATOM      4  C   UNL     1       0.024  -4.718   0.709  0.00  0.00    +0.137 C 
ATOM      5  C   UNL     1      -0.051  -4.098  -0.691  0.00  0.00    +0.179 C 
ATOM      6  O   UNL     1       0.010  -2.674  -0.581  0.00  0.00    -0.369 OA
ATOM      7  C   UNL     1       2.100  -4.976   1.993  0.00  0.00    +0.303 C 
ATOM      8  O   UNL     1       3.114  -4.509   2.474  0.00  0.00    -0.253 OA
ATOM      9  N   UNL     1       1.873  -6.303   2.055  0.00  0.00    -0.296 N 
ATOM     10  H   UNL     1       1.101  -6.685   1.609  0.00  0.00    +0.151 HD
ENDROOT
BRANCH   1  15
ATOM     11  C   UNL     1      -0.022   1.379   0.019  0.00  0.00    +0.001 A 
ATOM     12  C   UNL     1       1.164   2.090   0.017  0.00  0.00    +0.003 A 
ATOM     13  C   UNL     1       2.372   1.419   0.003  0.00  0.00    +0.039 A 
ATOM     14  C   UNL     1       2.394   0.035  -0.008  0.00  0.00    +0.129 A 
ATOM     15  C   UNL     1       1.206  -0.676  -0.005  0.00  0.00    +0.018 A 
ATOM     16  C   UNL     1      -0.001  -0.003   0.008  0.00  0.00    +0.009 A 
ATOM     17  F   UNL     1       3.575  -0.622  -0.021  0.00  0.00    -0.205 F 
ENDBRANCH   1  15
BRANCH   9  18
ATOM     18  C   UNL     1       2.793  -7.169   2.796  0.00  0.00    +0.075 C 
ATOM     19  C   UNL     1       3.965  -7.560   1.893  0.00  0.00    +0.022 C 
ATOM     20  C   UNL     1       4.926  -8.464   2.667  0.00  0.00    +0.002 C 
ATOM     21  C   UNL     1       4.187  -9.726   3.118  0.00  0.00    +0.012 C 
ATOM     22  C   UNL     1       3.016  -9.335   4.021  0.00  0.00    +0.095 C 
ATOM     23  C   UNL     1       2.055  -8.431   3.247  0.00  0.00    +0.034 C 
BRANCH  22  24
ATOM     24  C   UNL     1       2.277 -10.597   4.472  0.00  0.00    +0.393 C 
ATOM     25  F   UNL     1       3.156 -11.424   5.180  0.00  0.00    -0.170 F 
ATOM     26  F   UNL     1       1.206 -10.240   5.298  0.00  0.00    -0.170 F 
ATOM     27  F   UNL     1       1.794 -11.281   3.351  0.00  0.00    -0.170 F 
ENDBRANCH  22  24
ENDBRANCH   9  18
TORSDOF 3
