REMARK  Name = ZINC52566219
REMARK  8 active torsions:
REMARK  status: ('A' for Active; 'I' for Inactive)
REMARK    1  A    between atoms: C_4  and  C_7
REMARK    2  A    between atoms: C_11  and  C_18
REMARK    3  A    between atoms: C_20  and  O_24
REMARK    4  A    between atoms: O_24  and  C_25
REMARK    5  A    between atoms: C_25  and  C_26
REMARK    6  A    between atoms: C_26  and  C_28
REMARK    7  A    between atoms: C_26  and  N_38
REMARK    8  A    between atoms: C_28  and  C_29
REMARK                            x       y       z     vdW  Elec       q    Type
REMARK                         _______ _______ _______ _____ _____    ______ ____
ROOT
ATOM      1  C   UNL     1       3.946  -2.228   4.863  0.00  0.00    +0.004 A 
ATOM      2  C   UNL     1       4.071  -3.296   5.755  0.00  0.00    +0.057 A 
ATOM      3  C   UNL     1       4.069  -3.020   7.116  0.00  0.00    +0.139 A 
ATOM      4  C   UNL     1       3.944  -1.703   7.540  0.00  0.00    +0.156 A 
ATOM      5  N   UNL     1       3.828  -0.720   6.670  0.00  0.00    -0.259 NA
ATOM      6  C   UNL     1       3.831  -0.935   5.370  0.00  0.00    +0.119 A 
ENDROOT
BRANCH   1  10
ATOM      7  C   UNL     1       3.711  -0.707  -0.038  0.00  0.00    +0.137 C 
ATOM      8  C   UNL     1       3.821  -1.625   1.159  0.00  0.00    -0.009 A 
ATOM      9  C   UNL     1       3.823  -1.395   2.514  0.00  0.00    +0.015 A 
ATOM     10  C   UNL     1       3.942  -2.466   3.399  0.00  0.00    -0.016 A 
ATOM     11  C   UNL     1       4.058  -3.763   2.899  0.00  0.00    +0.010 A 
ATOM     12  C   UNL     1       4.055  -3.984   1.540  0.00  0.00    +0.024 A 
ATOM     13  C   UNL     1       3.936  -2.915   0.653  0.00  0.00    +0.038 A 
ATOM     14  N   UNL     1       3.909  -2.889  -0.742  0.00  0.00    -0.284 N 
ATOM     15  C   UNL     1       3.782  -1.640  -1.228  0.00  0.00    +0.229 C 
ATOM     16  O   UNL     1       3.732  -1.320  -2.397  0.00  0.00    -0.274 OA
ATOM     17  H   UNL     1       3.975  -3.681  -1.298  0.00  0.00    +0.155 HD
BRANCH   7  21
ATOM     18  C   UNL     1      -0.017   1.378   0.010  0.00  0.00    +0.000 A 
ATOM     19  C   UNL     1       1.171   2.086   0.002  0.00  0.00    +0.000 A 
ATOM     20  C   UNL     1       2.377   1.411  -0.013  0.00  0.00    +0.005 A 
ATOM     21  C   UNL     1       2.396   0.029  -0.020  0.00  0.00    -0.031 A 
ATOM     22  C   UNL     1       1.208  -0.679  -0.012  0.00  0.00    +0.005 A 
ATOM     23  C   UNL     1       0.002  -0.004   0.002  0.00  0.00    +0.000 A 
ENDBRANCH   7  21
ENDBRANCH   1  10
BRANCH   3  24
ATOM     24  O   UNL     1       4.188  -4.026   8.023  0.00  0.00    -0.492 OA
BRANCH  24  25
ATOM     25  C   UNL     1       4.177  -3.659   9.404  0.00  0.00    +0.213 C 
BRANCH  25  26
ATOM     26  C   UNL     1       4.320  -4.915  10.266  0.00  0.00    -0.033 C 
BRANCH  26  27
ATOM     27  N   UNL     1       5.638  -5.520  10.035  0.00  0.00    +0.382 N 
ATOM     28  H   UNL     1       5.728  -5.769   9.061  0.00  0.00    -0.089 HD
ATOM     29  H   UNL     1       6.359  -4.859  10.281  0.00  0.00    -0.089 HD
ATOM     30  H   UNL     1       5.732  -6.348  10.604  0.00  0.00    -0.089 HD
ENDBRANCH  26  27
BRANCH  26  31
ATOM     31  C   UNL     1       4.184  -4.538  11.743  0.00  0.00    +0.020 C 
BRANCH  31  32
ATOM     32  C   UNL     1       4.201  -5.788  12.584  0.00  0.00    -0.043 C 
ATOM     33  C   UNL     1       5.272  -6.338  13.201  0.00  0.00    -0.001 A 
ATOM     34  C   UNL     1       6.686  -5.952  13.271  0.00  0.00    +0.010 A 
ATOM     35  C   UNL     1       7.541  -6.720  13.983  0.00  0.00    +0.001 A 
ATOM     36  C   UNL     1       7.112  -7.872  14.655  0.00  0.00    +0.002 A 
ATOM     37  C   UNL     1       5.829  -8.291  14.638  0.00  0.00    +0.026 A 
ATOM     38  C   UNL     1       4.843  -7.559  13.920  0.00  0.00    +0.043 A 
ATOM     39  N   UNL     1       3.558  -7.756  13.754  0.00  0.00    -0.380 N 
ATOM     40  C   UNL     1       3.024  -6.678  12.914  0.00  0.00    +0.144 C 
ATOM     41  H   UNL     1       3.045  -8.491  14.126  0.00  0.00    +0.160 HD
ENDBRANCH  31  32
ENDBRANCH  26  31
ENDBRANCH  25  26
ENDBRANCH  24  25
ENDBRANCH   3  24
TORSDOF 8
