REMARK  Name = ZINC40386555
REMARK  4 active torsions:
REMARK  status: ('A' for Active; 'I' for Inactive)
REMARK    1  A    between atoms: N_9  and  C_11
REMARK    2  A    between atoms: C_11  and  C_12
REMARK    3  A    between atoms: N_22  and  S_25
REMARK    4  A    between atoms: S_25  and  C_28
REMARK                            x       y       z     vdW  Elec       q    Type
REMARK                         _______ _______ _______ _____ _____    ______ ____
ROOT
ATOM      1  C   UNL     1       5.881  -2.175   1.168  0.00  0.00    +0.038 A 
ATOM      2  C   UNL     1       6.447  -2.901   2.155  0.00  0.00    +0.094 A 
ATOM      3  C   UNL     1       7.385  -2.276   3.016  0.00  0.00    +0.275 A 
ATOM      4  O   UNL     1       7.911  -2.910   3.918  0.00  0.00    -0.266 OA
ATOM      5  N   UNL     1       7.689  -0.983   2.834  0.00  0.00    -0.177 NA
ATOM      6  C   UNL     1       7.127  -0.290   1.865  0.00  0.00    +0.199 A 
ATOM      7  N   UNL     1       6.229  -0.863   1.021  0.00  0.00    -0.330 N 
ATOM      8  N   UNL     1       7.457   1.029   1.702  0.00  0.00    -0.299 N 
ATOM      9  C   UNL     1       6.754   1.859   0.714  0.00  0.00    +0.125 C 
ATOM     10  C   UNL     1       6.181   3.090   1.428  0.00  0.00    +0.128 C 
ATOM     11  N   UNL     1       7.244   3.700   2.238  0.00  0.00    -0.174 NA
ATOM     12  C   UNL     1       7.947   2.870   3.226  0.00  0.00    +0.128 C 
ATOM     13  C   UNL     1       8.517   1.641   2.516  0.00  0.00    +0.125 C 
ATOM     14  H   UNL     1       5.830  -0.336   0.311  0.00  0.00    +0.168 HD
ENDROOT
BRANCH  11  15
ATOM     15  S   UNL     1       7.643   5.295   2.041  0.00  0.00    +0.061 S 
ATOM     16  O   UNL     1       8.982   5.438   2.496  0.00  0.00    -0.153 OA
ATOM     17  O   UNL     1       7.243   5.655   0.726  0.00  0.00    -0.153 OA
BRANCH  15  18
ATOM     18  C   UNL     1       6.634   6.225   3.146  0.00  0.00    +0.106 A 
ATOM     19  C   UNL     1       5.400   6.689   2.730  0.00  0.00    +0.030 A 
ATOM     20  C   UNL     1       4.607   7.419   3.597  0.00  0.00    +0.022 A 
ATOM     21  C   UNL     1       5.050   7.684   4.880  0.00  0.00    +0.041 A 
ATOM     22  C   UNL     1       6.285   7.220   5.296  0.00  0.00    +0.022 A 
ATOM     23  C   UNL     1       7.074   6.486   4.431  0.00  0.00    +0.030 A 
ATOM     24 CL   UNL     1       4.056   8.601   5.969  0.00  0.00    -0.084 Cl
ENDBRANCH  15  18
ENDBRANCH  11  15
BRANCH   1  25
ATOM     25  C   UNL     1       4.882  -2.807   0.234  0.00  0.00    +0.138 C 
BRANCH  25  34
ATOM     26  C   UNL     1      -1.209  -0.793  -0.160  0.00  0.00    +0.000 A 
ATOM     27  C   UNL     1      -0.770  -1.135  -1.426  0.00  0.00    +0.000 A 
ATOM     28  C   UNL     1       0.495  -1.659  -1.596  0.00  0.00    +0.005 A 
ATOM     29  C   UNL     1       1.331  -1.844  -0.504  0.00  0.00    -0.030 A 
ATOM     30  C   UNL     1       0.894  -1.500   0.757  0.00  0.00    -0.042 A 
ATOM     31  C   UNL     1      -0.379  -0.976   0.927  0.00  0.00    +0.004 A 
ATOM     32  C   UNL     1       1.769  -1.671   1.972  0.00  0.00    +0.051 C 
ATOM     33  C   UNL     1       2.926  -2.619   1.652  0.00  0.00    +0.090 C 
ATOM     34  N   UNL     1       3.572  -2.165   0.411  0.00  0.00    -0.292 NA
ATOM     35  C   UNL     1       2.701  -2.424  -0.740  0.00  0.00    +0.120 C 
ENDBRANCH  25  34
ENDBRANCH   1  25
TORSDOF 4
