REMARK  Name = ZINC66680342
REMARK  9 active torsions:
REMARK  status: ('A' for Active; 'I' for Inactive)
REMARK    1  A    between atoms: C_1  and  C_2
REMARK    2  A    between atoms: C_2  and  C_4
REMARK    3  A    between atoms: C_2  and  C_23
REMARK    4  A    between atoms: C_4  and  S_5
REMARK    5  A    between atoms: S_5  and  C_6
REMARK    6  A    between atoms: C_11  and  N_12
REMARK    7  A    between atoms: N_15  and  C_16
REMARK    8  A    between atoms: C_16  and  C_17
REMARK    9  A    between atoms: C_17  and  C_22
REMARK                            x       y       z     vdW  Elec       q    Type
REMARK                         _______ _______ _______ _____ _____    ______ ____
ROOT
ATOM      1  N   UNL     1      -0.936   0.216  -5.629  0.00  0.00    -0.268 N 
ATOM      2  C   UNL     1      -1.312   0.479  -6.896  0.00  0.00    +0.304 C 
ATOM      3  O   UNL     1      -0.661   0.044  -7.826  0.00  0.00    -0.253 OA
ATOM      4  N   UNL     1      -2.408   1.226  -7.132  0.00  0.00    -0.299 N 
ATOM      5  H   UNL     1      -1.498   0.493  -4.889  0.00  0.00    +0.156 HD
ATOM      6  H   UNL     1      -2.928   1.574  -6.390  0.00  0.00    +0.150 HD
ENDROOT
BRANCH   1  12
ATOM      7  C   UNL     1       0.435  -1.177  -4.196  0.00  0.00    +0.029 A 
ATOM      8  C   UNL     1       1.627  -1.848  -3.959  0.00  0.00    +0.016 A 
ATOM      9  C   UNL     1       2.644  -1.799  -4.893  0.00  0.00    +0.001 A 
ATOM     10  C   UNL     1       2.480  -1.083  -6.064  0.00  0.00    +0.002 A 
ATOM     11  C   UNL     1       1.296  -0.411  -6.308  0.00  0.00    +0.024 A 
ATOM     12  C   UNL     1       0.267  -0.460  -5.380  0.00  0.00    +0.048 A 
BRANCH   7  13
ATOM     13  S   UNL     1      -0.865  -1.238  -3.008  0.00  0.00    -0.122 S 
BRANCH  13  14
ATOM     14  C   UNL     1      -0.191  -2.265  -1.672  0.00  0.00    +0.092 C 
BRANCH  14  16
ATOM     15  C   UNL     1      -1.486  -1.031   0.072  0.00  0.00    +0.024 C 
ATOM     16  C   UNL     1      -1.232  -2.401  -0.559  0.00  0.00    +0.099 C 
BRANCH  16  17
ATOM     17  C   UNL     1      -0.733  -3.330   0.468  0.00  0.00    +0.066 C 
ATOM     18  N   UNL     1      -0.348  -4.047   1.260  0.00  0.00    -0.196 NA
ENDBRANCH  16  17
ENDBRANCH  14  16
ENDBRANCH  13  14
ENDBRANCH   7  13
ENDBRANCH   1  12
BRANCH   4  19
ATOM     19  C   UNL     1      -2.817   1.513  -8.510  0.00  0.00    +0.112 C 
BRANCH  19  20
ATOM     20  C   UNL     1      -4.082   2.372  -8.498  0.00  0.00    -0.016 C 
ATOM     21  C   UNL     1      -5.242   1.597  -7.840  0.00  0.00    +0.008 C 
ATOM     22  C   UNL     1      -6.488   2.006  -8.663  0.00  0.00    +0.001 C 
ATOM     23  C   UNL     1      -5.934   2.083 -10.107  0.00  0.00    +0.001 C 
ATOM     24  C   UNL     1      -4.522   2.681  -9.940  0.00  0.00    +0.008 C 
ATOM     25  C   UNL     1      -3.824   3.675  -7.739  0.00  0.00    +0.013 C 
ENDBRANCH  19  20
ENDBRANCH   4  19
TORSDOF 7
