REMARK  Name = ZINC43633097
REMARK  6 active torsions:
REMARK  status: ('A' for Active; 'I' for Inactive)
REMARK    1  A    between atoms: C_1  and  C_2
REMARK    2  A    between atoms: C_7  and  C_8
REMARK    3  A    between atoms: C_8  and  N_9
REMARK    4  A    between atoms: C_14  and  C_23
REMARK    5  A    between atoms: C_26  and  C_28
REMARK    6  A    between atoms: C_28  and  N_29
REMARK                            x       y       z     vdW  Elec       q    Type
REMARK                         _______ _______ _______ _____ _____    ______ ____
ROOT
ATOM      1  N   UNL     1      -1.388   0.091   3.019  0.00  0.00    -0.298 N 
ATOM      2  C   UNL     1      -2.173   1.271   2.640  0.00  0.00    +0.110 C 
ATOM      3  C   UNL     1      -3.642   0.928   2.951  0.00  0.00    +0.003 C 
ATOM      4  C   UNL     1      -4.290   0.254   1.716  0.00  0.00    -0.006 C 
ATOM      5  C   UNL     1      -5.242  -0.771   2.383  0.00  0.00    -0.029 C 
ATOM      6  N   UNL     1      -4.504  -1.264   3.567  0.00  0.00    +0.394 N 
ATOM      7  C   UNL     1      -3.503  -0.234   3.964  0.00  0.00    +0.018 C 
ATOM      8  C   UNL     1      -2.103  -0.747   3.790  0.00  0.00    +0.206 C 
ATOM      9  O   UNL     1      -1.676  -1.772   4.279  0.00  0.00    -0.277 OA
ATOM     10  C   UNL     1      -3.798   0.234   5.391  0.00  0.00    -0.004 C 
ATOM     11  C   UNL     1      -4.643  -0.932   5.972  0.00  0.00    -0.019 C 
ATOM     12  C   UNL     1      -5.446  -1.414   4.699  0.00  0.00    -0.077 C 
ATOM     13  H   UNL     1      -4.059  -2.146   3.361  0.00  0.00    -0.079 HD
ENDROOT
BRANCH   5  14
ATOM     14  C   UNL     1      -5.537  -1.906   1.436  0.00  0.00    -0.023 A 
ATOM     15  C   UNL     1      -6.637  -2.117   0.674  0.00  0.00    +0.010 A 
ATOM     16  C   UNL     1      -6.689  -3.240  -0.131  0.00  0.00    +0.009 A 
ATOM     17  C   UNL     1      -5.639  -4.097  -0.133  0.00  0.00    -0.027 A 
ATOM     18  S   UNL     1      -4.524  -3.316   1.022  0.00  0.00    -0.102 S 
BRANCH  17  19
ATOM     19  C   UNL     1      -5.457  -5.374  -0.912  0.00  0.00    -0.036 C 
BRANCH  19  20
ATOM     20  N   UNL     1      -4.818  -5.075  -2.200  0.00  0.00    +0.383 N 
ATOM     21  C   UNL     1      -5.715  -4.241  -3.008  0.00  0.00    -0.078 C 
ATOM     22  C   UNL     1      -5.021  -3.860  -4.318  0.00  0.00    -0.019 C 
ATOM     23  C   UNL     1      -4.669  -5.133  -5.092  0.00  0.00    -0.004 C 
ATOM     24  C   UNL     1      -3.793  -6.029  -4.211  0.00  0.00    -0.019 C 
ATOM     25  C   UNL     1      -4.533  -6.330  -2.906  0.00  0.00    -0.078 C 
ATOM     26  H   UNL     1      -3.955  -4.578  -2.038  0.00  0.00    -0.081 HD
ENDBRANCH  19  20
ENDBRANCH  17  19
ENDBRANCH   5  14
BRANCH   1  27
ATOM     27  C   UNL     1      -0.004  -0.147   2.604  0.00  0.00    +0.143 C 
BRANCH  27  34
ATOM     28  C   UNL     1       2.486  -0.670   1.234  0.00  0.00    +0.044 C 
ATOM     29  C   UNL     1       1.200  -1.259   0.713  0.00  0.00    -0.046 A 
ATOM     30  C   UNL     1       1.213  -2.054  -0.418  0.00  0.00    +0.003 A 
ATOM     31  C   UNL     1       0.035  -2.594  -0.897  0.00  0.00    +0.000 A 
ATOM     32  C   UNL     1      -1.158  -2.340  -0.244  0.00  0.00    +0.000 A 
ATOM     33  C   UNL     1      -1.170  -1.545   0.887  0.00  0.00    +0.005 A 
ATOM     34  C   UNL     1       0.009  -1.008   1.368  0.00  0.00    -0.027 A 
ENDBRANCH  27  34
ENDBRANCH   1  27
TORSDOF 5
