REMARK  Name = ZINC37141678
REMARK  4 active torsions:
REMARK  status: ('A' for Active; 'I' for Inactive)
REMARK    1  A    between atoms: C_5  and  C_6
REMARK    2  A    between atoms: C_6  and  N_7
REMARK    3  A    between atoms: N_7  and  C_8
REMARK    4  A    between atoms: C_13  and  C_16
REMARK                            x       y       z     vdW  Elec       q    Type
REMARK                         _______ _______ _______ _____ _____    ______ ____
ROOT
ATOM      1  N   UNL     1      -1.615  -1.186  -1.373  0.00  0.00    +0.386 N 
ATOM      2  H   UNL     1      -1.841  -0.321  -1.842  0.00  0.00    -0.085 HD
ATOM      3  H   UNL     1      -0.859  -1.645  -1.859  0.00  0.00    -0.085 HD
ENDROOT
BRANCH   1   4
ATOM      4  C   UNL     1      -2.795  -2.061  -1.366  0.00  0.00    -0.071 C 
ATOM      5  C   UNL     1      -3.978  -1.318  -0.741  0.00  0.00    -0.016 C 
ATOM      6  C   UNL     1      -4.280  -0.061  -1.559  0.00  0.00    -0.001 C 
ATOM      7  C   UNL     1      -4.629  -0.458  -2.994  0.00  0.00    +0.012 C 
ATOM      8  C   UNL     1      -3.447  -1.201  -3.620  0.00  0.00    +0.092 C 
ATOM      9  C   UNL     1      -3.144  -2.458  -2.802  0.00  0.00    -0.004 C 
BRANCH   8  10
ATOM     10  C   UNL     1      -3.796  -1.598  -5.056  0.00  0.00    +0.393 C 
ATOM     11  F   UNL     1      -4.072  -0.448  -5.803  0.00  0.00    -0.170 F 
ATOM     12  F   UNL     1      -2.715  -2.277  -5.627  0.00  0.00    -0.170 F 
ATOM     13  F   UNL     1      -4.919  -2.431  -5.049  0.00  0.00    -0.170 F 
ENDBRANCH   8  10
ENDBRANCH   1   4
BRANCH   1  14
ATOM     14  C   UNL     1      -1.208  -0.902   0.009  0.00  0.00    -0.006 C 
BRANCH  14  19
ATOM     15  C   UNL     1      -0.016   1.341   0.009  0.00  0.00    +0.044 A 
ATOM     16  C   UNL     1       1.331   1.769  -0.001  0.00  0.00    +0.057 A 
ATOM     17  C   UNL     1       2.093   0.659  -0.014  0.00  0.00    +0.170 A 
ATOM     18  O   UNL     1       1.282  -0.412  -0.012  0.00  0.00    -0.455 OA
ATOM     19  C   UNL     1       0.002  -0.004   0.002  0.00  0.00    +0.090 A 
ATOM     20 BR   UNL     1       3.983   0.615  -0.034  0.00  0.00    -0.008 Br
ENDBRANCH  14  19
ENDBRANCH   1  14
TORSDOF 4
