REMARK  Name = ZINC24975692
REMARK  10 active torsions:
REMARK  status: ('A' for Active; 'I' for Inactive)
REMARK    1  A    between atoms: C_1  and  C_2
REMARK    2  A    between atoms: C_5  and  C_8
REMARK    3  A    between atoms: C_15  and  C_17
REMARK    4  A    between atoms: C_17  and  N_18
REMARK    5  A    between atoms: N_22  and  C_25
REMARK    6  A    between atoms: C_25  and  C_26
REMARK    7  A    between atoms: C_26  and  C_28
REMARK    8  A    between atoms: C_26  and  O_36
REMARK    9  A    between atoms: C_28  and  O_29
REMARK   10  A    between atoms: O_29  and  C_30
REMARK                            x       y       z     vdW  Elec       q    Type
REMARK                         _______ _______ _______ _____ _____    ______ ____
ROOT
ATOM      1  N   UNL     1      11.200  -1.813   0.229  0.00  0.00    -0.297 NA
ATOM      2  C   UNL     1      10.564  -3.098   0.598  0.00  0.00    +0.083 C 
ATOM      3  C   UNL     1       9.042  -3.084   0.382  0.00  0.00    -0.003 C 
ATOM      4  C   UNL     1       8.418  -1.784   0.822  0.00  0.00    -0.077 C 
ATOM      5  N   UNL     1       8.356  -0.875  -0.344  0.00  0.00    +0.382 N 
ATOM      6  C   UNL     1       9.566  -0.233  -0.633  0.00  0.00    -0.063 C 
ATOM      7  C   UNL     1      10.683  -1.234  -0.991  0.00  0.00    +0.066 C 
ATOM      8  H   UNL     1       8.196  -1.493  -1.240  0.00  0.00    -0.082 HD
ENDROOT
BRANCH   1   9
ATOM      9  C   UNL     1      12.661  -1.947   0.170  0.00  0.00    +0.158 C 
BRANCH   9  17
ATOM     10  C   UNL     1      14.531  -5.668   4.604  0.00  0.00    -0.017 A 
ATOM     11  C   UNL     1      14.641  -4.460   5.300  0.00  0.00    +0.012 A 
ATOM     12  C   UNL     1      14.316  -3.270   4.692  0.00  0.00    +0.047 A 
ATOM     13  C   UNL     1      13.872  -3.258   3.375  0.00  0.00    +0.135 A 
ATOM     14  C   UNL     1      13.759  -4.469   2.671  0.00  0.00    +0.021 A 
ATOM     15  C   UNL     1      14.090  -5.673   3.288  0.00  0.00    +0.020 A 
ATOM     16  C   UNL     1      13.268  -4.103   1.336  0.00  0.00    +0.054 A 
ATOM     17  C   UNL     1      13.138  -2.769   1.339  0.00  0.00    +0.120 A 
ATOM     18  O   UNL     1      13.489  -2.272   2.537  0.00  0.00    -0.458 OA
BRANCH  10  23
ATOM     19  C   UNL     1      15.908 -10.622   7.198  0.00  0.00    +0.044 C 
ATOM     20  C   UNL     1      15.548  -9.325   6.519  0.00  0.00    -0.050 A 
ATOM     21  C   UNL     1      15.658  -8.132   7.210  0.00  0.00    +0.004 A 
ATOM     22  C   UNL     1      15.329  -6.942   6.594  0.00  0.00    +0.009 A 
ATOM     23  C   UNL     1      14.886  -6.944   5.273  0.00  0.00    -0.018 A 
ATOM     24  C   UNL     1      14.772  -8.150   4.583  0.00  0.00    +0.009 A 
ATOM     25  C   UNL     1      15.108  -9.333   5.208  0.00  0.00    +0.004 A 
ENDBRANCH  10  23
ENDBRANCH   9  17
ENDBRANCH   1   9
BRANCH   5  26
ATOM     26  C   UNL     1       7.266   0.098  -0.195  0.00  0.00    -0.044 C 
BRANCH  26  27
ATOM     27  C   UNL     1       6.837   0.599  -1.576  0.00  0.00    +0.135 C 
BRANCH  27  28
ATOM     28  O   UNL     1       6.379  -0.502  -2.362  0.00  0.00    -0.390 OA
ATOM     29  H   UNL     1       6.028  -0.336  -3.391  0.00  0.00    +0.210 HD
ENDBRANCH  27  28
BRANCH  27  30
ATOM     30  C   UNL     1       5.708   1.620  -1.420  0.00  0.00    +0.258 C 
BRANCH  30  31
ATOM     31  O   UNL     1       5.388   2.174  -2.697  0.00  0.00    -0.489 OA
BRANCH  31  32
ATOM     32  C   UNL     1       4.397   3.104  -2.736  0.00  0.00    +0.121 A 
ATOM     33  C   UNL     1       4.035   3.684  -3.943  0.00  0.00    +0.045 A 
ATOM     34  C   UNL     1       3.028   4.629  -3.979  0.00  0.00    +0.004 A 
ATOM     35  C   UNL     1       2.382   4.998  -2.813  0.00  0.00    +0.000 A 
ATOM     36  C   UNL     1       2.742   4.422  -1.609  0.00  0.00    +0.004 A 
ATOM     37  C   UNL     1       3.748   3.476  -1.567  0.00  0.00    +0.045 A 
ENDBRANCH  31  32
ENDBRANCH  30  31
ENDBRANCH  27  30
ENDBRANCH  26  27
ENDBRANCH   5  26
TORSDOF 9
