REMARK  Name = ZINC64046784
REMARK  11 active torsions:
REMARK  status: ('A' for Active; 'I' for Inactive)
REMARK    1  A    between atoms: C_1  and  O_2
REMARK    2  A    between atoms: O_2  and  C_3
REMARK    3  A    between atoms: C_7  and  C_11
REMARK    4  A    between atoms: C_8  and  O_9
REMARK    5  A    between atoms: O_9  and  C_10
REMARK    6  A    between atoms: C_11  and  C_13
REMARK    7  A    between atoms: C_11  and  C_27
REMARK    8  A    between atoms: C_13  and  N_14
REMARK    9  A    between atoms: C_15  and  C_17
REMARK   10  A    between atoms: C_17  and  N_18
REMARK   11  A    between atoms: C_19  and  C_21
REMARK                            x       y       z     vdW  Elec       q    Type
REMARK                         _______ _______ _______ _____ _____    ______ ____
ROOT
ATOM      1  C   UNL     1       1.230  -4.376   2.261  0.00  0.00    +0.068 C 
ENDROOT
BRANCH   1   2
ATOM      2  C   UNL     1       0.619  -4.676   3.605  0.00  0.00    -0.033 C 
ATOM      3  C   UNL     1      -0.559  -5.297   3.842  0.00  0.00    -0.000 A 
ATOM      4  C   UNL     1      -1.585  -5.855   2.953  0.00  0.00    +0.010 A 
ATOM      5  C   UNL     1      -2.684  -6.427   3.497  0.00  0.00    +0.001 A 
ATOM      6  C   UNL     1      -2.866  -6.500   4.885  0.00  0.00    +0.002 A 
ATOM      7  C   UNL     1      -1.968  -6.009   5.765  0.00  0.00    +0.026 A 
ATOM      8  C   UNL     1      -0.776  -5.386   5.303  0.00  0.00    +0.043 A 
ATOM      9  N   UNL     1       0.229  -4.842   5.945  0.00  0.00    -0.380 N 
ATOM     10  C   UNL     1       1.201  -4.351   4.962  0.00  0.00    +0.145 C 
ATOM     11  H   UNL     1       0.318  -4.778   6.909  0.00  0.00    +0.160 HD
ENDBRANCH   1   2
BRANCH   1  16
ATOM     12  C   UNL     1       0.878  -0.811   1.038  0.00  0.00    +0.162 A 
ATOM     13  C   UNL     1       1.780  -0.152   1.858  0.00  0.00    +0.049 A 
ATOM     14  C   UNL     1       2.498  -0.860   2.804  0.00  0.00    +0.004 A 
ATOM     15  C   UNL     1       2.320  -2.225   2.933  0.00  0.00    +0.008 A 
ATOM     16  C   UNL     1       1.422  -2.888   2.117  0.00  0.00    +0.007 A 
ATOM     17  C   UNL     1       0.694  -2.184   1.172  0.00  0.00    +0.165 A 
BRANCH  12  19
ATOM     18  C   UNL     1       0.411   1.290   0.026  0.00  0.00    +0.277 C 
ATOM     19  O   UNL     1       0.170  -0.116   0.107  0.00  0.00    -0.491 OA
ENDBRANCH  12  19
BRANCH  17  20
ATOM     20  O   UNL     1      -0.194  -2.834   0.372  0.00  0.00    -0.491 OA
ATOM     21  C   UNL     1       0.301  -3.341  -0.869  0.00  0.00    +0.277 C 
ENDBRANCH  17  20
ENDBRANCH   1  16
BRANCH   1  22
ATOM     22  C   UNL     1       2.585  -5.078   2.149  0.00  0.00    +0.117 C 
BRANCH  22  23
ATOM     23  N   UNL     1       3.150  -4.841   0.818  0.00  0.00    -0.313 N 
ATOM     24  C   UNL     1       4.327  -5.401   0.475  0.00  0.00    +0.230 C 
ATOM     25  O   UNL     1       4.919  -6.101   1.269  0.00  0.00    -0.274 OA
ATOM     26  H   UNL     1       2.676  -4.280   0.183  0.00  0.00    +0.149 HD
BRANCH  24  27
ATOM     27  C   UNL     1       4.907  -5.157  -0.894  0.00  0.00    +0.200 C 
BRANCH  27  28
ATOM     28  N   UNL     1       6.181  -5.870  -1.018  0.00  0.00    -0.306 N 
ATOM     29  C   UNL     1       6.885  -5.797  -2.166  0.00  0.00    +0.217 C 
ATOM     30  O   UNL     1       6.464  -5.141  -3.095  0.00  0.00    -0.276 OA
ATOM     31  H   UNL     1       6.518  -6.395  -0.275  0.00  0.00    +0.149 HD
BRANCH  29  32
ATOM     32  C   UNL     1       8.195  -6.530  -2.294  0.00  0.00    +0.075 C 
ATOM     33  C   UNL     1       9.169  -6.023  -1.229  0.00  0.00    +0.013 C 
ATOM     34  C   UNL     1      10.500  -6.768  -1.359  0.00  0.00    +0.001 C 
ATOM     35  C   UNL     1      11.089  -6.520  -2.749  0.00  0.00    +0.000 C 
ATOM     36  C   UNL     1      10.114  -7.027  -3.814  0.00  0.00    +0.001 C 
ATOM     37  C   UNL     1       8.784  -6.283  -3.684  0.00  0.00    +0.013 C 
ENDBRANCH  29  32
ENDBRANCH  27  28
ENDBRANCH  24  27
ENDBRANCH  22  23
ENDBRANCH   1  22
TORSDOF 9
