REMARK  Name = ZINC32851177
REMARK  8 active torsions:
REMARK  status: ('A' for Active; 'I' for Inactive)
REMARK    1  A    between atoms: C_4  and  C_7
REMARK    2  A    between atoms: C_7  and  C_9
REMARK    3  A    between atoms: C_7  and  N_16
REMARK    4  A    between atoms: N_16  and  C_17
REMARK    5  A    between atoms: C_17  and  C_18
REMARK    6  A    between atoms: C_21  and  C_24
REMARK    7  A    between atoms: C_24  and  S_25
REMARK    8  A    between atoms: S_25  and  N_28
REMARK                            x       y       z     vdW  Elec       q    Type
REMARK                         _______ _______ _______ _____ _____    ______ ____
ROOT
ATOM      1  N   UNL     1      -1.809   2.898   0.671  0.00  0.00    +0.392 N 
ATOM      2  H   UNL     1      -0.989   3.462   1.138  0.00  0.00    -0.084 HD
ATOM      3  H   UNL     1      -1.544   1.831   0.630  0.00  0.00    -0.084 HD
ENDROOT
BRANCH   1   4
ATOM      4  C   UNL     1      -3.034   3.069   1.463  0.00  0.00    +0.047 C 
BRANCH   4   5
ATOM      5  C   UNL     1      -3.948   1.892   1.235  0.00  0.00    +0.206 C 
ATOM      6  O   UNL     1      -3.486   0.824   0.893  0.00  0.00    -0.277 OA
ATOM      7  N   UNL     1      -5.277   2.027   1.412  0.00  0.00    -0.303 N 
ATOM      8  C   UNL     1      -6.267   0.944   1.323  0.00  0.00    +0.108 C 
ATOM      9  C   UNL     1      -7.655   1.570   1.573  0.00  0.00    +0.020 C 
ATOM     10  C   UNL     1      -7.429   3.064   1.220  0.00  0.00    +0.020 C 
ATOM     11  C   UNL     1      -5.980   3.285   1.721  0.00  0.00    +0.108 C 
ENDBRANCH   4   5
BRANCH   4  15
ATOM     12  C   UNL     1      -2.029   3.308   5.608  0.00  0.00    +0.000 A 
ATOM     13  C   UNL     1      -2.912   4.218   5.057  0.00  0.00    +0.000 A 
ATOM     14  C   UNL     1      -3.238   4.140   3.716  0.00  0.00    +0.002 A 
ATOM     15  C   UNL     1      -2.679   3.154   2.925  0.00  0.00    -0.053 A 
ATOM     16  C   UNL     1      -1.799   2.241   3.477  0.00  0.00    +0.002 A 
ATOM     17  C   UNL     1      -1.470   2.321   4.817  0.00  0.00    +0.000 A 
ENDBRANCH   4  15
ENDBRANCH   1   4
BRANCH   1  18
ATOM     18  C   UNL     1      -1.997   3.390  -0.701  0.00  0.00    -0.045 C 
BRANCH  18  19
ATOM     19  C   UNL     1      -0.722   3.199  -1.482  0.00  0.00    -0.064 A 
ATOM     20  C   UNL     1       0.231   4.200  -1.506  0.00  0.00    +0.002 A 
ATOM     21  C   UNL     1       1.397   4.028  -2.227  0.00  0.00    +0.005 A 
ATOM     22  C   UNL     1       1.612   2.853  -2.924  0.00  0.00    -0.025 A 
ATOM     23  C   UNL     1       0.659   1.851  -2.899  0.00  0.00    +0.005 A 
ATOM     24  C   UNL     1      -0.507   2.024  -2.178  0.00  0.00    +0.002 A 
BRANCH  22  25
ATOM     25  C   UNL     1       2.884   2.664  -3.708  0.00  0.00    +0.219 C 
BRANCH  25  26
ATOM     26  S   UNL     1       2.645   3.268  -5.402  0.00  0.00    +0.031 S 
ATOM     27  O   UNL     1       1.724   2.434  -6.093  0.00  0.00    -0.158 OA
ATOM     28  O   UNL     1       2.484   4.679  -5.401  0.00  0.00    -0.158 OA
BRANCH  26  29
ATOM     29  N   UNL     1       4.097   3.008  -6.156  0.00  0.00    -0.208 NA
ATOM     30  H   UNL     1       4.035   3.351  -7.199  0.00  0.00    +0.144 HD
ATOM     31  H   UNL     1       4.333   1.934  -6.136  0.00  0.00    +0.144 HD
ENDBRANCH  26  29
ENDBRANCH  25  26
ENDBRANCH  22  25
ENDBRANCH  18  19
ENDBRANCH   1  18
TORSDOF 8
