REMARK  Name = ZINC20731209
REMARK  12 active torsions:
REMARK  status: ('A' for Active; 'I' for Inactive)
REMARK    1  A    between atoms: C_1  and  C_2
REMARK    2  A    between atoms: C_2  and  C_3
REMARK    3  A    between atoms: C_3  and  N_4
REMARK    4  A    between atoms: C_12  and  C_14
REMARK    5  A    between atoms: C_14  and  N_15
REMARK    6  A    between atoms: N_15  and  C_16
REMARK    7  A    between atoms: N_15  and  C_25
REMARK    8  A    between atoms: C_22  and  C_24
REMARK    9  A    between atoms: C_25  and  N_27
REMARK   10  A    between atoms: N_27  and  C_28
REMARK   11  A    between atoms: C_30  and  C_35
REMARK   12  A    between atoms: C_32  and  C_34
REMARK                            x       y       z     vdW  Elec       q    Type
REMARK                         _______ _______ _______ _____ _____    ______ ____
ROOT
ATOM      1  N   UNL     1      -4.704  -1.468  -3.491  0.00  0.00    -0.305 N 
ENDROOT
BRANCH   1   2
ATOM      2  C   UNL     1      -5.533  -2.658  -3.701  0.00  0.00    +0.078 C 
ATOM      3  C   UNL     1      -6.151  -2.608  -5.100  0.00  0.00    +0.023 C 
ATOM      4  C   UNL     1      -7.017  -1.353  -5.231  0.00  0.00    +0.002 C 
ATOM      5  C   UNL     1      -8.131  -1.390  -4.183  0.00  0.00    +0.000 C 
ATOM      6  C   UNL     1      -7.513  -1.440  -2.784  0.00  0.00    +0.005 C 
ATOM      7  C   UNL     1      -6.647  -2.695  -2.653  0.00  0.00    +0.006 C 
ATOM      8  C   UNL     1      -6.029  -2.745  -1.254  0.00  0.00    +0.009 C 
ENDBRANCH   1   2
BRANCH   1   9
ATOM      9  C   UNL     1      -4.738  -0.457  -4.381  0.00  0.00    +0.138 C 
ATOM     10  S   UNL     1      -3.525  -0.335  -5.583  0.00  0.00    -0.018 S 
BRANCH   9  11
ATOM     11  N   UNL     1      -5.726   0.457  -4.326  0.00  0.00    -0.297 N 
ATOM     12  H   UNL     1      -6.691   0.197  -3.867  0.00  0.00    +0.154 HD
BRANCH  11  13
ATOM     13  C   UNL     1      -5.524   1.738  -4.852  0.00  0.00    +0.033 A 
ATOM     14  C   UNL     1      -6.613   2.530  -5.193  0.00  0.00    +0.026 A 
ATOM     15  C   UNL     1      -6.411   3.795  -5.707  0.00  0.00    -0.048 A 
ATOM     16  C   UNL     1      -5.125   4.270  -5.893  0.00  0.00    +0.006 A 
ATOM     17  C   UNL     1      -4.039   3.482  -5.559  0.00  0.00    -0.048 A 
ATOM     18  C   UNL     1      -4.235   2.218  -5.039  0.00  0.00    +0.026 A 
ATOM     19  C   UNL     1      -2.640   4.004  -5.763  0.00  0.00    +0.044 C 
ATOM     20  C   UNL     1      -7.592   4.657  -6.072  0.00  0.00    +0.044 C 
ENDBRANCH  11  13
ENDBRANCH   9  11
ENDBRANCH   1   9
BRANCH   1  21
ATOM     21  C   UNL     1      -3.839  -1.378  -2.312  0.00  0.00    +0.142 C 
BRANCH  21  30
ATOM     22  N   UNL     1       1.247  -3.595  -3.506  0.00  0.00    -0.330 N 
ATOM     23  C   UNL     1       2.063  -2.817  -4.441  0.00  0.00    +0.105 C 
ATOM     24  C   UNL     1       2.181  -1.382  -3.913  0.00  0.00    +0.024 C 
ATOM     25  C   UNL     1       0.800  -0.729  -4.009  0.00  0.00    +0.038 C 
ATOM     26  C   UNL     1      -0.242  -1.662  -3.446  0.00  0.00    -0.026 A 
ATOM     27  C   UNL     1       0.013  -3.006  -3.235  0.00  0.00    +0.033 A 
ATOM     28  C   UNL     1      -0.997  -3.824  -2.726  0.00  0.00    +0.024 A 
ATOM     29  C   UNL     1      -2.237  -3.299  -2.430  0.00  0.00    +0.007 A 
ATOM     30  C   UNL     1      -2.485  -1.954  -2.637  0.00  0.00    -0.030 A 
ATOM     31  C   UNL     1      -1.490  -1.141  -3.143  0.00  0.00    +0.010 A 
BRANCH  22  32
ATOM     32  C   UNL     1       1.079  -4.976  -3.978  0.00  0.00    +0.105 C 
BRANCH  32  34
ATOM     33  C   UNL     1       2.214  -6.905  -5.088  0.00  0.00    +0.005 C 
ATOM     34  C   UNL     1       2.389  -5.467  -4.597  0.00  0.00    +0.015 C 
ENDBRANCH  32  34
ENDBRANCH  22  32
ENDBRANCH  21  30
ENDBRANCH   1  21
TORSDOF 8
