REMARK  Name = ZINC02664068
REMARK  11 active torsions:
REMARK  status: ('A' for Active; 'I' for Inactive)
REMARK    1  A    between atoms: C_7  and  C_11
REMARK    2  A    between atoms: C_11  and  C_13
REMARK    3  A    between atoms: C_11  and  C_30
REMARK    4  A    between atoms: C_13  and  N_60
REMARK    5  A    between atoms: C_14  and  C_15
REMARK    6  A    between atoms: C_14  and  N_60
REMARK    7  A    between atoms: C_15  and  C_17
REMARK    8  A    between atoms: C_15  and  O_29
REMARK    9  A    between atoms: C_17  and  O_18
REMARK   10  A    between atoms: O_18  and  C_19
REMARK   11  A    between atoms: C_19  and  C_20
REMARK                            x       y       z     vdW  Elec       q    Type
REMARK                         _______ _______ _______ _____ _____    ______ ____
ROOT
ATOM      1  C   UNL     1       4.277   4.612  -1.263  0.00  0.00    -0.070 C 
ENDROOT
BRANCH   1   2
ATOM      2  N   UNL     1       5.713   4.282  -1.334  0.00  0.00    +0.381 N 
ATOM      3  H   UNL     1       5.824   3.263  -1.378  0.00  0.00    -0.086 HD
ATOM      4  H   UNL     1       6.184   4.642  -0.496  0.00  0.00    -0.086 HD
BRANCH   2   5
ATOM      5  C   UNL     1       6.319   4.891  -2.533  0.00  0.00    -0.049 C 
BRANCH   5   6
ATOM      6  C   UNL     1       7.806   4.532  -2.579  0.00  0.00    +0.123 C 
BRANCH   6   7
ATOM      7  O   UNL     1       7.950   3.121  -2.753  0.00  0.00    -0.391 OA
ATOM      8  H   UNL     1       7.549   2.781  -3.564  0.00  0.00    +0.210 HD
ENDBRANCH   6   7
BRANCH   6   9
ATOM      9  C   UNL     1       8.470   5.260  -3.750  0.00  0.00    +0.189 C 
BRANCH   9  10
ATOM     10  O   UNL     1       9.878   5.018  -3.724  0.00  0.00    -0.373 OA
BRANCH  10  11
ATOM     11  C   UNL     1      10.597   5.657  -4.782  0.00  0.00    +0.195 C 
BRANCH  11  12
ATOM     12  C   UNL     1      12.064   5.335  -4.657  0.00  0.00    -0.018 A 
ATOM     13  C   UNL     1      12.890   6.159  -3.916  0.00  0.00    +0.010 A 
ATOM     14  C   UNL     1      14.235   5.866  -3.794  0.00  0.00    +0.050 A 
ATOM     15  C   UNL     1      14.761   4.750  -4.426  0.00  0.00    +0.166 A 
ATOM     16  C   UNL     1      13.930   3.923  -5.177  0.00  0.00    +0.167 A 
ATOM     17  C   UNL     1      12.581   4.220  -5.290  0.00  0.00    +0.055 A 
ATOM     18  O   UNL     1      14.678   2.904  -5.692  0.00  0.00    -0.453 OA
ATOM     19  C   UNL     1      16.046   3.340  -5.587  0.00  0.00    +0.466 C 
ATOM     20  O   UNL     1      16.030   4.249  -4.470  0.00  0.00    -0.453 OA
ENDBRANCH  11  12
ENDBRANCH  10  11
ENDBRANCH   9  10
ENDBRANCH   6   9
ENDBRANCH   5   6
ENDBRANCH   2   5
ENDBRANCH   1   2
BRANCH   1  21
ATOM     21  C   UNL     1       3.675   3.969  -0.012  0.00  0.00    +0.035 C 
BRANCH  21  28
ATOM     22  C   UNL     1      -0.013   1.076   0.008  0.00  0.00    +0.001 A 
ATOM     23  C   UNL     1      -1.227   1.748   0.017  0.00  0.00    +0.002 A 
ATOM     24  C   UNL     1      -1.268   3.125   0.031  0.00  0.00    +0.026 A 
ATOM     25  C   UNL     1      -0.082   3.852   0.024  0.00  0.00    +0.047 A 
ATOM     26  C   UNL     1       1.146   3.166   0.008  0.00  0.00    +0.003 A 
ATOM     27  C   UNL     1       1.164   1.770   0.000  0.00  0.00    +0.010 A 
ATOM     28  C   UNL     1       2.186   4.198   0.004  0.00  0.00    -0.017 A 
ATOM     29  C   UNL     1       1.560   5.385   0.017  0.00  0.00    +0.087 A 
ATOM     30  N   UNL     1       0.205   5.198   0.029  0.00  0.00    -0.360 N 
ATOM     31  H   UNL     1      -0.456   5.909   0.038  0.00  0.00    +0.165 HD
ENDBRANCH  21  28
BRANCH  21  32
ATOM     32  C   UNL     1       4.292   4.588   1.216  0.00  0.00    -0.023 A 
ATOM     33  C   UNL     1       4.165   5.945   1.445  0.00  0.00    +0.005 A 
ATOM     34  C   UNL     1       4.730   6.513   2.571  0.00  0.00    +0.000 A 
ATOM     35  C   UNL     1       5.423   5.723   3.470  0.00  0.00    +0.001 A 
ATOM     36  C   UNL     1       5.550   4.366   3.243  0.00  0.00    +0.020 A 
ATOM     37  C   UNL     1       4.980   3.796   2.118  0.00  0.00    +0.045 A 
ATOM     38 CL   UNL     1       5.134   2.090   1.836  0.00  0.00    -0.083 Cl
ENDBRANCH  21  32
ENDBRANCH   1  21
TORSDOF 11
