REMARK  Name = ZINC00676886
REMARK  9 active torsions:
REMARK  status: ('A' for Active; 'I' for Inactive)
REMARK    1  A    between atoms: C_1  and  C_2
REMARK    2  A    between atoms: C_2  and  O_4
REMARK    3  A    between atoms: O_4  and  C_5
REMARK    4  A    between atoms: C_7  and  N_30
REMARK    5  A    between atoms: C_13  and  C_16
REMARK    6  A    between atoms: C_14  and  O_15
REMARK    7  A    between atoms: C_17  and  C_18
REMARK    8  A    between atoms: C_27  and  C_28
REMARK    9  A    between atoms: C_27  and  C_29
REMARK                            x       y       z     vdW  Elec       q    Type
REMARK                         _______ _______ _______ _____ _____    ______ ____
ROOT
ATOM      1  C   UNL     1      -0.912  -2.312  -0.161  0.00  0.00    +0.210 C 
ATOM      2  C   UNL     1      -2.289  -2.686  -0.714  0.00  0.00    +0.015 C 
ATOM      3  C   UNL     1      -3.358  -2.288   0.273  0.00  0.00    +0.026 A 
ATOM      4  C   UNL     1      -3.055  -2.025   1.598  0.00  0.00    +0.127 A 
ATOM      5  C   UNL     1      -4.069  -1.665   2.488  0.00  0.00    +0.047 A 
ATOM      6  C   UNL     1      -5.371  -1.562   2.061  0.00  0.00    +0.015 A 
ATOM      7  C   UNL     1      -5.687  -1.822   0.722  0.00  0.00    +0.017 A 
ATOM      8  C   UNL     1      -4.668  -2.187  -0.172  0.00  0.00    +0.129 A 
ATOM      9  O   UNL     1      -1.784  -2.101   2.068  0.00  0.00    -0.482 OA
ATOM     10  C   UNL     1      -0.822  -2.812   1.287  0.00  0.00    +0.140 C 
ATOM     11  C   UNL     1      -1.127  -4.311   1.333  0.00  0.00    +0.059 C 
ATOM     12  C   UNL     1       0.582  -2.554   1.835  0.00  0.00    +0.059 C 
ENDROOT
BRANCH   2  13
ATOM     13  N   UNL     1      -2.513  -1.983  -1.985  0.00  0.00    +0.387 N 
ATOM     14  C   UNL     1      -1.337  -2.151  -2.848  0.00  0.00    -0.078 C 
ATOM     15  C   UNL     1      -1.597  -1.490  -4.203  0.00  0.00    -0.019 C 
ATOM     16  C   UNL     1      -1.869   0.002  -3.994  0.00  0.00    -0.004 C 
ATOM     17  C   UNL     1      -3.051   0.165  -3.033  0.00  0.00    -0.019 C 
ATOM     18  C   UNL     1      -2.738  -0.557  -1.721  0.00  0.00    -0.078 C 
ATOM     19  H   UNL     1      -3.323  -2.371  -2.444  0.00  0.00    -0.081 HD
ENDBRANCH   2  13
BRANCH   8  20
ATOM     20  O   UNL     1      -4.964  -2.442  -1.471  0.00  0.00    -0.506 OA
ATOM     21  H   UNL     1      -5.256  -3.348  -1.638  0.00  0.00    +0.292 HD
ENDBRANCH   8  20
BRANCH   7  22
ATOM     22  C   UNL     1      -7.075  -1.714   0.257  0.00  0.00    +0.016 C 
ATOM     23  C   UNL     1      -8.052  -1.363   1.121  0.00  0.00    +0.068 C 
BRANCH  23  24
ATOM     24  C   UNL     1      -9.393  -1.259   0.671  0.00  0.00    +0.239 C 
ATOM     25  O   UNL     1      -9.680  -1.580  -0.467  0.00  0.00    -0.271 OA
ATOM     26  N   UNL     1     -10.350  -0.804   1.504  0.00  0.00    -0.298 N 
ATOM     27  C   UNL     1     -10.041  -0.511   2.911  0.00  0.00    +0.108 C 
ATOM     28  C   UNL     1     -10.484   0.921   3.225  0.00  0.00    +0.019 C 
ATOM     29  C   UNL     1     -11.961   1.086   2.858  0.00  0.00    +0.003 C 
ATOM     30  C   UNL     1     -12.146   0.841   1.359  0.00  0.00    +0.019 C 
ATOM     31  C   UNL     1     -11.721  -0.587   1.022  0.00  0.00    +0.108 C 
ENDBRANCH  23  24
ENDBRANCH   7  22
BRANCH   1  32
ATOM     32  O   UNL     1      -0.750  -0.892  -0.191  0.00  0.00    -0.459 OA
BRANCH  32  34
ATOM     33  C   UNL     1       0.749   1.061  -0.376  0.00  0.00    +0.136 C 
ATOM     34  C   UNL     1       0.500  -0.425  -0.336  0.00  0.00    +0.304 C 
ATOM     35  O   UNL     1       1.426  -1.196  -0.435  0.00  0.00    -0.251 OA
ENDBRANCH  32  34
ENDBRANCH   1  32
TORSDOF 6
