REMARK  Name = ZINC18597305
REMARK  7 active torsions:
REMARK  status: ('A' for Active; 'I' for Inactive)
REMARK    1  A    between atoms: C_1  and  C_2
REMARK    2  A    between atoms: C_2  and  C_4
REMARK    3  A    between atoms: C_2  and  S_14
REMARK    4  A    between atoms: N_6  and  C_7
REMARK    5  A    between atoms: C_8  and  C_12
REMARK    6  A    between atoms: S_14  and  C_15
REMARK    7  A    between atoms: C_18  and  C_21
REMARK                            x       y       z     vdW  Elec       q    Type
REMARK                         _______ _______ _______ _____ _____    ______ ____
ROOT
ATOM      1  S   UNL     1       3.833   0.601  -0.031  0.00  0.00    -0.075 S 
ENDROOT
BRANCH   1   2
ATOM      2  C   UNL     1       2.071   0.643  -0.014  0.00  0.00    +0.167 A 
ATOM      3  N   UNL     1       1.305   1.768  -0.001  0.00  0.00    -0.333 N 
ATOM      4  H   UNL     1       1.633   2.713   0.001  0.00  0.00    +0.168 HD
ATOM      5  C   UNL     1      -0.016   1.355   0.009  0.00  0.00    +0.067 A 
ATOM      6  C   UNL     1       0.002  -0.004   0.002  0.00  0.00    +0.139 A 
ATOM      7  N   UNL     1       1.280  -0.405  -0.012  0.00  0.00    -0.230 NA
BRANCH   5   8
ATOM      8  C   UNL     1      -1.213   2.221   0.020  0.00  0.00    -0.000 A 
ATOM      9  C   UNL     1      -1.073   3.610   0.032  0.00  0.00    +0.011 A 
ATOM     10  C   UNL     1      -2.194   4.414   0.037  0.00  0.00    +0.016 A 
ATOM     11  C   UNL     1      -3.456   3.846   0.041  0.00  0.00    +0.018 A 
ATOM     12  C   UNL     1      -3.602   2.469   0.034  0.00  0.00    +0.016 A 
ATOM     13  C   UNL     1      -2.489   1.655   0.024  0.00  0.00    +0.011 A 
ATOM     14 BR   UNL     1      -4.988   4.955   0.055  0.00  0.00    -0.050 Br
ENDBRANCH   5   8
ENDBRANCH   1   2
BRANCH   1  16
ATOM     15  C   UNL     1       3.589  -1.790   1.268  0.00  0.00    +0.029 C 
ATOM     16  C   UNL     1       4.104  -1.189  -0.042  0.00  0.00    +0.137 C 
BRANCH  16  17
ATOM     17  C   UNL     1       5.577  -1.473  -0.181  0.00  0.00    +0.231 C 
ATOM     18  O   UNL     1       6.390  -0.649   0.180  0.00  0.00    -0.274 OA
ATOM     19  N   UNL     1       5.991  -2.643  -0.706  0.00  0.00    -0.278 N 
ATOM     20  H   UNL     1       5.341  -3.302  -0.995  0.00  0.00    +0.155 HD
BRANCH  19  21
ATOM     21  C   UNL     1       7.348  -2.905  -0.834  0.00  0.00    +0.089 A 
ATOM     22  C   UNL     1       7.963  -4.042  -1.340  0.00  0.00    +0.080 A 
ATOM     23  C   UNL     1       9.406  -4.047  -1.359  0.00  0.00    +0.028 A 
ATOM     24  C   UNL     1      10.030  -2.956  -0.877  0.00  0.00    +0.048 A 
ATOM     25  S   UNL     1       8.684  -1.895  -0.394  0.00  0.00    -0.081 S 
BRANCH  22  26
ATOM     26  C   UNL     1       7.203  -5.155  -1.824  0.00  0.00    +0.102 C 
ATOM     27  N   UNL     1       6.599  -6.038  -2.207  0.00  0.00    -0.191 NA
ENDBRANCH  22  26
ENDBRANCH  19  21
ENDBRANCH  16  17
ENDBRANCH   1  16
TORSDOF 6
