REMARK  Name = ZINC13116225
REMARK  8 active torsions:
REMARK  status: ('A' for Active; 'I' for Inactive)
REMARK    1  A    between atoms: C_1  and  C_2
REMARK    2  A    between atoms: C_3  and  C_33
REMARK    3  A    between atoms: C_11  and  C_13
REMARK    4  A    between atoms: C_13  and  C_15
REMARK    5  A    between atoms: C_13  and  S_16
REMARK    6  A    between atoms: S_16  and  C_17
REMARK    7  A    between atoms: C_20  and  C_22
REMARK    8  A    between atoms: C_29  and  C_32
REMARK                            x       y       z     vdW  Elec       q    Type
REMARK                         _______ _______ _______ _____ _____    ______ ____
ROOT
ATOM      1  S   UNL     1      -0.885   3.118   8.744  0.00  0.00    -0.055 S 
ENDROOT
BRANCH   1   2
ATOM      2  C   UNL     1      -0.417   2.635   7.116  0.00  0.00    +0.278 A 
ATOM      3  N   UNL     1       0.752   2.164   6.751  0.00  0.00    -0.101 NA
ATOM      4  N   UNL     1       0.741   1.917   5.489  0.00  0.00    -0.106 NA
ATOM      5  C   UNL     1      -0.438   2.221   4.995  0.00  0.00    +0.256 A 
ATOM      6  O   UNL     1      -1.193   2.688   6.015  0.00  0.00    -0.410 OA
BRANCH   5   7
ATOM      7  C   UNL     1      -0.856   2.085   3.592  0.00  0.00    +0.076 A 
ATOM      8  C   UNL     1      -0.136   1.624   2.510  0.00  0.00    +0.024 A 
ATOM      9  C   UNL     1      -0.733   1.581   1.260  0.00  0.00    -0.036 A 
ATOM     10  C   UNL     1      -2.029   2.007   1.181  0.00  0.00    -0.006 A 
ATOM     11  S   UNL     1      -2.430   2.475   2.843  0.00  0.00    -0.088 S 
ATOM     12  C   UNL     1      -2.897   2.062  -0.035  0.00  0.00    +0.043 C 
ATOM     13  C   UNL     1      -2.239   1.218  -1.137  0.00  0.00    +0.009 C 
ATOM     14  C   UNL     1      -0.758   1.595  -1.226  0.00  0.00    -0.009 C 
ATOM     15  C   UNL     1      -0.013   1.086   0.008  0.00  0.00    +0.039 C 
ATOM     16  C   UNL     1      -0.149   0.967  -2.482  0.00  0.00    +0.008 C 
ENDBRANCH   5   7
ENDBRANCH   1   2
BRANCH   1  17
ATOM     17  C   UNL     1       0.654   2.768   9.630  0.00  0.00    +0.119 C 
ATOM     18  C   UNL     1       1.759   3.694   9.119  0.00  0.00    +0.027 C 
BRANCH  17  29
ATOM     19  C   UNL     1       0.340   3.054  16.321  0.00  0.00    +0.045 C 
ATOM     20  C   UNL     1      -0.256   3.800  15.155  0.00  0.00    -0.026 A 
ATOM     21  C   UNL     1      -1.097   4.827  15.363  0.00  0.00    -0.008 A 
ATOM     22  S   UNL     1      -1.513   5.360  13.713  0.00  0.00    -0.073 S 
ATOM     23  C   UNL     1      -0.546   4.191  12.794  0.00  0.00    +0.116 A 
ATOM     24  C   UNL     1       0.072   3.419  13.794  0.00  0.00    +0.075 A 
ATOM     25  C   UNL     1       0.933   2.373  13.326  0.00  0.00    +0.260 A 
ATOM     26  O   UNL     1       1.514   1.649  14.116  0.00  0.00    -0.267 OA
ATOM     27  N   UNL     1       1.084   2.198  12.000  0.00  0.00    -0.309 N 
ATOM     28  H   UNL     1       1.662   1.489  11.677  0.00  0.00    +0.170 HD
ATOM     29  C   UNL     1       0.449   2.998  11.105  0.00  0.00    +0.124 A 
ATOM     30  N   UNL     1      -0.342   3.960  11.500  0.00  0.00    -0.225 NA
ATOM     31  C   UNL     1      -1.574   5.391  16.676  0.00  0.00    +0.052 C 
ENDBRANCH  17  29
ENDBRANCH   1  17
TORSDOF 4
