REMARK  Name = ZINC39914421
REMARK  11 active torsions:
REMARK  status: ('A' for Active; 'I' for Inactive)
REMARK    1  A    between atoms: C_1  and  C_2
REMARK    2  A    between atoms: C_2  and  C_3
REMARK    3  A    between atoms: C_3  and  C_4
REMARK    4  A    between atoms: C_4  and  C_5
REMARK    5  A    between atoms: C_5  and  N_6
REMARK    6  A    between atoms: C_7  and  C_26
REMARK    7  A    between atoms: C_10  and  C_17
REMARK    8  A    between atoms: C_20  and  C_24
REMARK    9  A    between atoms: C_22  and  O_23
REMARK   10  A    between atoms: C_30  and  O_32
REMARK   11  A    between atoms: O_32  and  C_33
REMARK                            x       y       z     vdW  Elec       q    Type
REMARK                         _______ _______ _______ _____ _____    ______ ____
ROOT
ATOM      1  N   UNL     1      -2.921  -4.243  -0.026  0.00  0.00    -0.285 N 
ATOM      2  C   UNL     1      -2.854  -5.079  -1.231  0.00  0.00    +0.141 C 
ATOM      3  C   UNL     1      -2.768  -6.501  -0.748  0.00  0.00    +0.035 A 
ATOM      4  C   UNL     1      -2.677  -7.857  -1.081  0.00  0.00    +0.102 A 
ATOM      5  N   UNL     1      -2.647  -8.539   0.047  0.00  0.00    -0.173 NA
ATOM      6  N   UNL     1      -2.709  -7.749   1.059  0.00  0.00    -0.272 N 
ATOM      7  H   UNL     1      -2.701  -8.031   1.987  0.00  0.00    +0.189 HD
ATOM      8  C   UNL     1      -2.787  -6.453   0.633  0.00  0.00    +0.126 A 
ATOM      9  C   UNL     1      -2.876  -5.049   1.050  0.00  0.00    +0.265 C 
ATOM     10  O   UNL     1      -2.908  -4.669   2.205  0.00  0.00    -0.268 OA
ENDROOT
BRANCH   4  11
ATOM     11  C   UNL     1      -2.625  -8.423  -2.452  0.00  0.00    +0.045 A 
ATOM     12  C   UNL     1      -2.661  -7.578  -3.559  0.00  0.00    +0.034 A 
ATOM     13  C   UNL     1      -2.612  -8.110  -4.833  0.00  0.00    +0.045 A 
ATOM     14  C   UNL     1      -2.528  -9.480  -5.013  0.00  0.00    -0.029 A 
ATOM     15  C   UNL     1      -2.491 -10.326  -3.921  0.00  0.00    +0.050 A 
ATOM     16  C   UNL     1      -2.534  -9.805  -2.638  0.00  0.00    +0.126 A 
ATOM     17  C   UNL     1      -2.476 -10.052  -6.407  0.00  0.00    +0.045 C 
ATOM     18 CL   UNL     1      -2.657  -7.057  -6.212  0.00  0.00    -0.083 Cl
BRANCH  16  19
ATOM     19  O   UNL     1      -2.493 -10.635  -1.563  0.00  0.00    -0.506 OA
ATOM     20  H   UNL     1      -3.363 -10.932  -1.262  0.00  0.00    +0.292 HD
ENDBRANCH  16  19
ENDBRANCH   4  11
BRANCH   2  21
ATOM     21  C   UNL     1      -1.629  -4.729  -2.037  0.00  0.00    -0.019 A 
ATOM     22  C   UNL     1      -0.432  -4.467  -1.396  0.00  0.00    +0.006 A 
ATOM     23  C   UNL     1       0.693  -4.146  -2.132  0.00  0.00    +0.004 A 
ATOM     24  C   UNL     1       0.624  -4.086  -3.511  0.00  0.00    +0.046 A 
ATOM     25  C   UNL     1      -0.575  -4.349  -4.157  0.00  0.00    +0.129 A 
ATOM     26  C   UNL     1      -1.702  -4.677  -3.415  0.00  0.00    +0.052 A 
BRANCH  25  27
ATOM     27  O   UNL     1      -0.646  -4.292  -5.512  0.00  0.00    -0.456 OA
BRANCH  27  28
ATOM     28  C   UNL     1      -1.392  -3.303  -6.071  0.00  0.00    +0.128 A 
ATOM     29  C   UNL     1      -1.946  -2.313  -5.271  0.00  0.00    +0.046 A 
ATOM     30  C   UNL     1      -2.704  -1.310  -5.841  0.00  0.00    +0.004 A 
ATOM     31  C   UNL     1      -2.913  -1.290  -7.208  0.00  0.00    +0.000 A 
ATOM     32  C   UNL     1      -2.363  -2.276  -8.007  0.00  0.00    +0.004 A 
ATOM     33  C   UNL     1      -1.598  -3.278  -7.443  0.00  0.00    +0.046 A 
ENDBRANCH  27  28
ENDBRANCH  25  27
ENDBRANCH   2  21
BRANCH   1  34
ATOM     34  C   UNL     1      -3.016  -2.781   0.001  0.00  0.00    +0.109 C 
BRANCH  34  35
ATOM     35  C   UNL     1      -1.609  -2.180   0.019  0.00  0.00    +0.019 C 
BRANCH  35  36
ATOM     36  C   UNL     1      -1.707  -0.653   0.047  0.00  0.00    +0.001 C 
BRANCH  36  38
ATOM     37  C   UNL     1      -0.399   1.475   0.093  0.00  0.00    +0.004 C 
ATOM     38  C   UNL     1      -0.301  -0.052   0.066  0.00  0.00    -0.003 C 
ENDBRANCH  36  38
ENDBRANCH  35  36
ENDBRANCH  34  35
ENDBRANCH   1  34
TORSDOF 9
