REMARK  Name = ZINC11947734
REMARK  8 active torsions:
REMARK  status: ('A' for Active; 'I' for Inactive)
REMARK    1  A    between atoms: C_1  and  C_2
REMARK    2  A    between atoms: C_4  and  C_26
REMARK    3  A    between atoms: C_6  and  C_8
REMARK    4  A    between atoms: C_8  and  C_9
REMARK    5  A    between atoms: C_9  and  N_10
REMARK    6  A    between atoms: C_11  and  C_13
REMARK    7  A    between atoms: C_13  and  C_14
REMARK    8  A    between atoms: C_21  and  N_55
REMARK                            x       y       z     vdW  Elec       q    Type
REMARK                         _______ _______ _______ _____ _____    ______ ____
ROOT
ATOM      1  N   UNL     1       1.692  -3.902  -1.657  0.00  0.00    -0.315 N 
ATOM      2  C   UNL     1       1.539  -4.665  -2.758  0.00  0.00    +0.212 C 
ATOM      3  O   UNL     1       1.710  -4.184  -3.858  0.00  0.00    -0.276 OA
ATOM      4  H   UNL     1       1.555  -4.287  -0.778  0.00  0.00    +0.149 HD
ENDROOT
BRANCH   1   5
ATOM      5  C   UNL     1       2.064  -2.491  -1.790  0.00  0.00    +0.112 C 
BRANCH   5   6
ATOM      6  C   UNL     1       2.171  -1.859  -0.401  0.00  0.00    +0.095 C 
BRANCH   6  12
ATOM      7  C   UNL     1       5.668   1.549  -0.679  0.00  0.00    +0.066 C 
ATOM      8  C   UNL     1       4.205   1.184  -0.667  0.00  0.00    +0.042 A 
ATOM      9  C   UNL     1       3.235   2.167  -0.780  0.00  0.00    +0.055 A 
ATOM     10  C   UNL     1       1.903   1.783  -0.763  0.00  0.00    +0.147 A 
ATOM     11  N   UNL     1       1.605   0.499  -0.642  0.00  0.00    -0.228 NA
ATOM     12  C   UNL     1       2.555  -0.408  -0.537  0.00  0.00    +0.131 A 
ATOM     13  N   UNL     1       3.831  -0.080  -0.549  0.00  0.00    -0.237 NA
BRANCH  10  14
ATOM     14  C   UNL     1       0.810   2.813  -0.888  0.00  0.00    +0.434 C 
ATOM     15  F   UNL     1      -0.435   2.192  -0.737  0.00  0.00    -0.164 F 
ATOM     16  F   UNL     1       0.970   3.786   0.104  0.00  0.00    -0.164 F 
ATOM     17  F   UNL     1       0.880   3.417  -2.148  0.00  0.00    -0.164 F 
ENDBRANCH  10  14
ENDBRANCH   6  12
ENDBRANCH   5   6
ENDBRANCH   1   5
BRANCH   2  18
ATOM     18  C   UNL     1       1.155  -6.116  -2.621  0.00  0.00    +0.089 C 
BRANCH  18  19
ATOM     19  C   UNL     1       0.913  -6.712  -4.010  0.00  0.00    +0.028 C 
ATOM     20  C   UNL     1      -0.241  -6.005  -4.662  0.00  0.00    +0.200 C 
ATOM     21  O   UNL     1      -1.223  -5.758  -3.995  0.00  0.00    -0.278 OA
ATOM     22  N   UNL     1      -0.230  -5.636  -5.947  0.00  0.00    -0.318 N 
ATOM     23  C   UNL     1       0.916  -5.853  -6.826  0.00  0.00    +0.085 C 
ATOM     24  C   UNL     1       1.843  -6.912  -6.226  0.00  0.00    -0.058 C 
ATOM     25  H   UNL     1      -1.018  -5.204  -6.312  0.00  0.00    +0.149 HD
ATOM     26  N   UNL     1       2.127  -6.531  -4.827  0.00  0.00    +0.390 N 
ATOM     27  H   UNL     1       2.408  -5.544  -4.799  0.00  0.00    -0.080 HD
BRANCH  26  28
ATOM     28  C   UNL     1       3.229  -7.361  -4.289  0.00  0.00    -0.067 C 
ATOM     29  C   UNL     1       4.536  -7.034  -5.041  0.00  0.00    -0.015 C 
ATOM     30  C   UNL     1       5.263  -8.397  -5.149  0.00  0.00    -0.002 C 
ATOM     31  C   UNL     1       4.099  -9.386  -5.405  0.00  0.00    -0.002 C 
ATOM     32  C   UNL     1       2.951  -8.857  -4.520  0.00  0.00    -0.015 C 
ENDBRANCH  26  28
ENDBRANCH  18  19
ENDBRANCH   2  18
TORSDOF 7
