REMARK  Name = ZINC59319577
REMARK  8 active torsions:
REMARK  status: ('A' for Active; 'I' for Inactive)
REMARK    1  A    between atoms: C_1  and  C_2
REMARK    2  A    between atoms: C_8  and  O_10
REMARK    3  A    between atoms: O_10  and  C_11
REMARK    4  A    between atoms: C_11  and  C_12
REMARK    5  A    between atoms: C_12  and  N_13
REMARK    6  A    between atoms: N_16  and  C_17
REMARK    7  A    between atoms: N_16  and  C_18
REMARK    8  A    between atoms: C_18  and  C_19
REMARK                            x       y       z     vdW  Elec       q    Type
REMARK                         _______ _______ _______ _____ _____    ______ ____
ROOT
ATOM      1  N   UNL     1      -0.817  -0.408   5.147  0.00  0.00    -0.297 N 
ATOM      2  C   UNL     1      -1.647  -0.198   6.188  0.00  0.00    +0.302 C 
ATOM      3  O   UNL     1      -1.618   0.862   6.784  0.00  0.00    -0.253 OA
ATOM      4  N   UNL     1      -2.507  -1.163   6.569  0.00  0.00    -0.284 N 
ATOM      5  C   UNL     1      -2.541  -2.439   5.852  0.00  0.00    +0.134 C 
ATOM      6  H   UNL     1      -0.839  -1.254   4.672  0.00  0.00    +0.150 HD
ENDROOT
BRANCH   1   7
ATOM      7  C   UNL     1       0.119   0.640   4.733  0.00  0.00    +0.133 C 
BRANCH   7   8
ATOM      8  C   UNL     1       0.938   0.149   3.537  0.00  0.00    +0.179 C 
BRANCH   8   9
ATOM      9  O   UNL     1       0.073  -0.050   2.417  0.00  0.00    -0.375 OA
BRANCH   9  16
ATOM     10  C   UNL     1      -0.019   1.526   0.010  0.00  0.00    +0.010 C 
ATOM     11  C   UNL     1       0.002  -0.004   0.002  0.00  0.00    +0.015 C 
ATOM     12  C   UNL     1      -1.433  -0.534   0.013  0.00  0.00    +0.006 C 
ATOM     13  C   UNL     1      -1.413  -2.063   0.004  0.00  0.00    +0.000 C 
ATOM     14  C   UNL     1      -0.673  -2.570   1.244  0.00  0.00    +0.003 C 
ATOM     15  C   UNL     1       0.763  -2.041   1.233  0.00  0.00    +0.032 C 
ATOM     16  C   UNL     1       0.742  -0.511   1.242  0.00  0.00    +0.121 C 
ENDBRANCH   9  16
ENDBRANCH   8   9
ENDBRANCH   7   8
ENDBRANCH   1   7
BRANCH   4  17
ATOM     17  C   UNL     1      -3.409  -0.934   7.701  0.00  0.00    +0.144 C 
BRANCH  17  18
ATOM     18  C   UNL     1      -4.698  -0.332   7.203  0.00  0.00    -0.029 A 
ATOM     19  C   UNL     1      -4.819   1.054   7.116  0.00  0.00    +0.006 A 
ATOM     20  C   UNL     1      -5.969   1.630   6.671  0.00  0.00    +0.009 A 
ATOM     21  C   UNL     1      -7.052   0.818   6.292  0.00  0.00    -0.018 A 
ATOM     22  C   UNL     1      -8.255   1.376   5.827  0.00  0.00    +0.008 A 
ATOM     23  C   UNL     1      -9.283   0.559   5.469  0.00  0.00    +0.001 A 
ATOM     24  C   UNL     1      -9.161  -0.827   5.556  0.00  0.00    +0.001 A 
ATOM     25  C   UNL     1      -8.011  -1.403   6.002  0.00  0.00    +0.008 A 
ATOM     26  C   UNL     1      -6.928  -0.591   6.381  0.00  0.00    -0.018 A 
ATOM     27  C   UNL     1      -5.723  -1.149   6.840  0.00  0.00    +0.013 A 
ENDBRANCH  17  18
ENDBRANCH   4  17
TORSDOF 6
