REMARK  Name = ZINC14457019
REMARK  6 active torsions:
REMARK  status: ('A' for Active; 'I' for Inactive)
REMARK    1  A    between atoms: C_1  and  O_2
REMARK    2  A    between atoms: O_2  and  C_3
REMARK    3  A    between atoms: C_6  and  C_10
REMARK    4  A    between atoms: C_8  and  O_9
REMARK    5  A    between atoms: C_21  and  S_26
REMARK    6  A    between atoms: S_26  and  N_29
REMARK                            x       y       z     vdW  Elec       q    Type
REMARK                         _______ _______ _______ _____ _____    ______ ____
ROOT
ATOM      1  C   UNL     1      -1.777   0.708   1.662  0.00  0.00    +0.105 C 
ATOM      2  C   UNL     1      -0.506   1.532   1.556  0.00  0.00    +0.029 C 
ATOM      3  C   UNL     1       0.655   1.148   2.483  0.00  0.00    +0.033 C 
ATOM      4  C   UNL     1       1.867   1.576   1.653  0.00  0.00    -0.030 C 
ATOM      5  C   UNL     1       1.560   1.562   0.361  0.00  0.00    -0.023 C 
ATOM      6  C   UNL     1       0.156   1.101   0.213  0.00  0.00    +0.049 C 
ATOM      7  C   UNL     1      -0.717   1.586  -0.879  0.00  0.00    -0.018 A 
ATOM      8  C   UNL     1      -0.218   2.012  -2.091  0.00  0.00    +0.034 A 
ATOM      9  C   UNL     1      -1.077   2.441  -3.086  0.00  0.00    +0.105 A 
ATOM     10  C   UNL     1      -2.442   2.442  -2.868  0.00  0.00    +0.030 A 
ATOM     11  C   UNL     1      -2.939   1.976  -1.696  0.00  0.00    +0.025 A 
ATOM     12  C   UNL     1      -2.092   1.566  -0.674  0.00  0.00    +0.031 A 
ATOM     13  N   UNL     1      -2.640   1.162   0.549  0.00  0.00    -0.336 N 
ATOM     14  H   UNL     1      -3.602   1.180   0.669  0.00  0.00    +0.147 HD
ENDROOT
BRANCH   1  18
ATOM     15  C   UNL     1      -0.883  -3.453   1.243  0.00  0.00    +0.161 A 
ATOM     16  C   UNL     1      -0.848  -2.856   2.493  0.00  0.00    +0.050 A 
ATOM     17  C   UNL     1      -1.137  -1.511   2.625  0.00  0.00    +0.009 A 
ATOM     18  C   UNL     1      -1.462  -0.758   1.512  0.00  0.00    -0.023 A 
ATOM     19  C   UNL     1      -1.504  -1.348   0.263  0.00  0.00    +0.054 A 
ATOM     20  C   UNL     1      -1.210  -2.695   0.123  0.00  0.00    +0.159 A 
BRANCH  15  22
ATOM     21  C   UNL     1      -0.274  -5.492   2.304  0.00  0.00    +0.277 C 
ATOM     22  O   UNL     1      -0.600  -4.776   1.111  0.00  0.00    -0.491 OA
ENDBRANCH  15  22
BRANCH  20  23
ATOM     23  O   UNL     1      -1.246  -3.276  -1.106  0.00  0.00    -0.503 OA
ATOM     24  H   UNL     1      -2.110  -3.639  -1.345  0.00  0.00    +0.292 HD
ENDBRANCH  20  23
ENDBRANCH   1  18
BRANCH   9  25
ATOM     25  S   UNL     1      -0.431   2.985  -4.633  0.00  0.00    +0.056 S 
ATOM     26  O   UNL     1      -1.407   3.848  -5.199  0.00  0.00    -0.153 OA
ATOM     27  O   UNL     1       0.906   3.401  -4.391  0.00  0.00    -0.153 OA
BRANCH  25  28
ATOM     28  N   UNL     1      -0.343   1.658  -5.620  0.00  0.00    -0.204 NA
ATOM     29  H   UNL     1      -0.625   0.790  -5.292  0.00  0.00    +0.144 HD
ATOM     30  H   UNL     1      -0.008   1.749  -6.526  0.00  0.00    +0.144 HD
ENDBRANCH  25  28
ENDBRANCH   9  25
TORSDOF 5
