REMARK  Name = ZINC63699221
REMARK  16 active torsions:
REMARK  status: ('A' for Active; 'I' for Inactive)
REMARK    1  A    between atoms: C_1  and  C_2
REMARK    2  A    between atoms: C_6  and  O_39
REMARK    3  A    between atoms: C_7  and  O_37
REMARK    4  A    between atoms: N_12  and  C_13
REMARK    5  A    between atoms: C_13  and  C_14
REMARK    6  A    between atoms: C_16  and  C_22
REMARK    7  A    between atoms: C_19  and  O_20
REMARK    8  A    between atoms: O_20  and  C_21
REMARK    9  A    between atoms: N_23  and  N_24
REMARK   10  A    between atoms: C_25  and  C_27
REMARK   11  A    between atoms: C_30  and  C_33
REMARK   12  A    between atoms: C_33  and  C_34
REMARK   13  A    between atoms: C_33  and  C_35
REMARK   14  A    between atoms: C_33  and  C_36
REMARK   15  A    between atoms: O_37  and  C_38
REMARK   16  A    between atoms: O_39  and  C_40
REMARK                            x       y       z     vdW  Elec       q    Type
REMARK                         _______ _______ _______ _____ _____    ______ ____
ROOT
ATOM      1  C   UNL     1       2.825  -0.597   2.333  0.00  0.00    -0.022 A 
ATOM      2  C   UNL     1       3.035   0.254   3.397  0.00  0.00    +0.014 A 
ATOM      3  C   UNL     1       3.674  -0.215   4.547  0.00  0.00    -0.005 A 
ATOM      4  C   UNL     1       4.099  -1.545   4.613  0.00  0.00    +0.013 A 
ATOM      5  C   UNL     1       3.886  -2.388   3.544  0.00  0.00    +0.046 A 
ATOM      6  C   UNL     1       3.244  -1.919   2.405  0.00  0.00    +0.121 A 
ENDROOT
BRANCH   6   7
ATOM      7  O   UNL     1       3.031  -2.755   1.355  0.00  0.00    -0.495 OA
ATOM      8  C   UNL     1       3.486  -4.102   1.496  0.00  0.00    +0.277 C 
ENDBRANCH   6   7
BRANCH   3   9
ATOM      9  C   UNL     1       3.901   0.691   5.688  0.00  0.00    +0.138 C 
ATOM     10  N   UNL     1       4.495   0.253   6.756  0.00  0.00    -0.188 NA
BRANCH  10  11
ATOM     11  N   UNL     1       4.710   1.114   7.840  0.00  0.00    -0.205 N 
ATOM     12  C   UNL     1       5.327   0.660   8.949  0.00  0.00    +0.262 C 
ATOM     13  O   UNL     1       5.697  -0.494   9.008  0.00  0.00    -0.271 OA
ATOM     14  H   UNL     1       4.415   2.037   7.793  0.00  0.00    +0.177 HD
BRANCH  12  15
ATOM     15  C   UNL     1       5.559   1.586  10.115  0.00  0.00    +0.240 C 
ATOM     16  C   UNL     1       6.805   2.426   9.895  0.00  0.00    +0.036 C 
ATOM     17  C   UNL     1       7.609   2.078  10.902  0.00  0.00    +0.067 C 
ATOM     18  N   UNL     1       7.019   1.152  11.690  0.00  0.00    -0.158 NA
ATOM     19  N   UNL     1       5.882   0.821  11.332  0.00  0.00    -0.170 NA
BRANCH  17  20
ATOM     20  C   UNL     1       8.987   2.643  11.131  0.00  0.00    +0.006 C 
ATOM     21  C   UNL     1       9.309   3.662  10.036  0.00  0.00    +0.017 C 
ATOM     22  C   UNL     1       9.038   3.328  12.497  0.00  0.00    +0.017 C 
ATOM     23  C   UNL     1      10.015   1.510  11.090  0.00  0.00    +0.017 C 
ENDBRANCH  17  20
ENDBRANCH  12  15
ENDBRANCH  10  11
ENDBRANCH   3   9
BRANCH   1  24
ATOM     24  C   UNL     1       2.136  -0.093   1.091  0.00  0.00    -0.038 C 
BRANCH  24  35
ATOM     25  C   UNL     1       1.584  -0.728  -1.687  0.00  0.00    -0.008 C 
ATOM     26  C   UNL     1       2.441   0.451  -1.224  0.00  0.00    -0.040 C 
ATOM     27  C   UNL     1       3.441   0.791  -2.298  0.00  0.00    -0.054 A 
ATOM     28  C   UNL     1       3.022   0.771  -3.621  0.00  0.00    +0.051 A 
ATOM     29  C   UNL     1       3.906   1.079  -4.639  0.00  0.00    +0.162 A 
ATOM     30  C   UNL     1       5.223   1.412  -4.333  0.00  0.00    +0.162 A 
ATOM     31  C   UNL     1       5.636   1.430  -3.013  0.00  0.00    +0.053 A 
ATOM     32  C   UNL     1       4.746   1.119  -1.996  0.00  0.00    -0.044 A 
ATOM     33  C   UNL     1       5.241   1.143  -0.572  0.00  0.00    +0.017 C 
ATOM     34  C   UNL     1       4.052   1.173   0.389  0.00  0.00    -0.073 C 
ATOM     35  N   UNL     1       3.126   0.091   0.021  0.00  0.00    +0.387 N 
ATOM     36  H   UNL     1       3.642  -0.765  -0.113  0.00  0.00    -0.080 HD
BRANCH  30  37
ATOM     37  O   UNL     1       6.099   1.718  -5.327  0.00  0.00    -0.491 OA
ATOM     38  C   UNL     1       7.433   2.050  -4.937  0.00  0.00    +0.277 C 
ENDBRANCH  30  37
BRANCH  29  39
ATOM     39  O   UNL     1       3.491   1.058  -5.934  0.00  0.00    -0.491 OA
ATOM     40  C   UNL     1       2.126   0.708  -6.171  0.00  0.00    +0.277 C 
ENDBRANCH  29  39
ENDBRANCH  24  35
ENDBRANCH   1  24
TORSDOF 9
