REMARK  Name = ZINC67400699
REMARK  9 active torsions:
REMARK  status: ('A' for Active; 'I' for Inactive)
REMARK    1  A    between atoms: C_1  and  C_2
REMARK    2  A    between atoms: C_2  and  C_4
REMARK    3  A    between atoms: C_2  and  N_12
REMARK    4  A    between atoms: C_6  and  C_9
REMARK    5  A    between atoms: C_9  and  C_10
REMARK    6  A    between atoms: C_9  and  C_11
REMARK    7  A    between atoms: C_15  and  C_18
REMARK    8  A    between atoms: C_18  and  C_20
REMARK    9  A    between atoms: C_18  and  O_27
REMARK                            x       y       z     vdW  Elec       q    Type
REMARK                         _______ _______ _______ _____ _____    ______ ____
ROOT
ATOM      1  N   UNL     1      -1.376  -0.512   0.012  0.00  0.00    +0.387 N 
ATOM      2  C   UNL     1      -2.087  -0.018  -1.173  0.00  0.00    -0.077 C 
ATOM      3  C   UNL     1      -3.546  -0.478  -1.125  0.00  0.00    -0.012 C 
ATOM      4  C   UNL     1      -3.593  -2.009  -1.101  0.00  0.00    +0.019 C 
ATOM      5  C   UNL     1      -2.785  -2.515   0.097  0.00  0.00    -0.012 C 
ATOM      6  C   UNL     1      -1.355  -1.980   0.004  0.00  0.00    -0.077 C 
ATOM      7  H   UNL     1      -1.847  -0.189   0.844  0.00  0.00    -0.081 HD
ENDROOT
BRANCH   1   9
ATOM      8  C   UNL     1      -0.019   1.526   0.010  0.00  0.00    -0.003 C 
ATOM      9  C   UNL     1       0.002  -0.004   0.002  0.00  0.00    +0.019 C 
BRANCH   9  10
ATOM     10  C   UNL     1       0.731  -0.503   1.223  0.00  0.00    +0.214 A 
ATOM     11  N   UNL     1       1.939  -0.995   1.244  0.00  0.00    -0.197 NA
ATOM     12  C   UNL     1       2.272  -1.339   2.493  0.00  0.00    +0.174 A 
ATOM     13  N   UNL     1       1.275  -1.069   3.286  0.00  0.00    -0.061 NA
ATOM     14  O   UNL     1       0.252  -0.513   2.473  0.00  0.00    -0.340 OA
BRANCH  12  15
ATOM     15  C   UNL     1       3.588  -1.942   2.914  0.00  0.00    +0.054 C 
ATOM     16  C   UNL     1       4.267  -1.024   3.932  0.00  0.00    +0.015 C 
ATOM     17  C   UNL     1       3.341  -3.312   3.548  0.00  0.00    +0.015 C 
ENDBRANCH  12  15
ENDBRANCH   9  10
ENDBRANCH   1   9
BRANCH   4  18
ATOM     18  C   UNL     1      -5.044  -2.474  -0.974  0.00  0.00    +0.147 C 
BRANCH  18  19
ATOM     19  C   UNL     1      -5.088  -3.981  -0.951  0.00  0.00    -0.019 A 
ATOM     20  C   UNL     1      -4.994  -4.693  -2.132  0.00  0.00    +0.007 A 
ATOM     21  C   UNL     1      -5.034  -6.074  -2.111  0.00  0.00    +0.020 A 
ATOM     22  C   UNL     1      -5.169  -6.744  -0.908  0.00  0.00    +0.041 A 
ATOM     23  C   UNL     1      -5.264  -6.031   0.273  0.00  0.00    +0.020 A 
ATOM     24  C   UNL     1      -5.218  -4.650   0.252  0.00  0.00    +0.007 A 
ATOM     25 CL   UNL     1      -5.221  -8.479  -0.881  0.00  0.00    -0.084 Cl
ENDBRANCH  18  19
BRANCH  18  26
ATOM     26  O   UNL     1      -5.799  -1.993  -2.088  0.00  0.00    -0.387 OA
ATOM     27  H   UNL     1      -5.474  -2.301  -2.946  0.00  0.00    +0.210 HD
ENDBRANCH  18  26
ENDBRANCH   4  18
TORSDOF 6
