REMARK  Name = ZINC12431405
REMARK  8 active torsions:
REMARK  status: ('A' for Active; 'I' for Inactive)
REMARK    1  A    between atoms: C_1  and  C_2
REMARK    2  A    between atoms: C_2  and  C_3
REMARK    3  A    between atoms: C_2  and  C_4
REMARK    4  A    between atoms: C_7  and  N_10
REMARK    5  A    between atoms: N_10  and  C_11
REMARK    6  A    between atoms: C_18  and  C_20
REMARK    7  A    between atoms: C_20  and  C_21
REMARK    8  A    between atoms: C_21  and  C_22
REMARK                            x       y       z     vdW  Elec       q    Type
REMARK                         _______ _______ _______ _____ _____    ______ ____
ROOT
ATOM      1  C   UNL     1      -4.513   5.586   3.635  0.00  0.00    +0.088 C 
ATOM      2  C   UNL     1      -4.107   5.029   5.001  0.00  0.00    +0.025 C 
ATOM      3  C   UNL     1      -2.805   4.236   4.864  0.00  0.00    +0.021 C 
ATOM      4  C   UNL     1      -3.027   3.059   3.909  0.00  0.00    +0.108 C 
ATOM      5  N   UNL     1      -3.556   3.574   2.639  0.00  0.00    -0.300 N 
ATOM      6  C   UNL     1      -4.751   4.429   2.666  0.00  0.00    +0.130 C 
ATOM      7  C   UNL     1      -2.954   3.273   1.472  0.00  0.00    +0.216 C 
ATOM      8  O   UNL     1      -3.400   3.705   0.430  0.00  0.00    -0.276 OA
ENDROOT
BRANCH   1   9
ATOM      9  N   UNL     1      -5.741   6.372   3.773  0.00  0.00    -0.339 N 
ATOM     10  H   UNL     1      -6.353   6.192   4.503  0.00  0.00    +0.146 HD
BRANCH   9  14
ATOM     11  C   UNL     1      -6.606   9.382   1.028  0.00  0.00    -0.045 A 
ATOM     12  C   UNL     1      -7.479   9.126   2.069  0.00  0.00    +0.006 A 
ATOM     13  C   UNL     1      -7.196   8.128   2.981  0.00  0.00    +0.023 A 
ATOM     14  C   UNL     1      -6.031   7.382   2.852  0.00  0.00    +0.027 A 
ATOM     15  C   UNL     1      -5.153   7.646   1.808  0.00  0.00    +0.023 A 
ATOM     16  C   UNL     1      -5.446   8.641   0.897  0.00  0.00    +0.006 A 
BRANCH  11  18
ATOM     17  C   UNL     1      -5.803  11.520   0.061  0.00  0.00    +0.012 C 
ATOM     18  C   UNL     1      -6.918  10.472   0.036  0.00  0.00    +0.013 C 
ATOM     19  C   UNL     1      -7.021   9.870  -1.367  0.00  0.00    +0.012 C 
ENDBRANCH  11  18
ENDBRANCH   9  14
ENDBRANCH   1   9
BRANCH   7  20
ATOM     20  C   UNL     1      -1.726   2.400   1.461  0.00  0.00    +0.102 C 
BRANCH  20  21
ATOM     21  C   UNL     1      -1.244   2.215   0.020  0.00  0.00    +0.064 C 
BRANCH  21  22
ATOM     22  C   UNL     1      -0.016   1.341   0.009  0.00  0.00    +0.040 A 
ATOM     23  C   UNL     1       0.002  -0.004   0.002  0.00  0.00    -0.004 A 
ATOM     24  C   UNL     1       1.344  -0.421  -0.011  0.00  0.00    +0.066 A 
ATOM     25  N   UNL     1       2.099   0.639  -0.014  0.00  0.00    -0.178 NA
ATOM     26  N   UNL     1       1.267   1.768  -0.001  0.00  0.00    -0.281 N 
ATOM     27  H   UNL     1       1.569   2.721   0.001  0.00  0.00    +0.189 HD
ATOM     28  C   UNL     1       1.766  -1.870  -0.015  0.00  0.00    +0.057 C 
ATOM     29  C   UNL     1       0.562  -2.721   0.410  0.00  0.00    +0.007 C 
ATOM     30  C   UNL     1      -0.662  -2.339  -0.425  0.00  0.00    +0.005 C 
ATOM     31  C   UNL     1      -1.169  -0.956   0.003  0.00  0.00    +0.039 C 
ENDBRANCH  21  22
ENDBRANCH  20  21
ENDBRANCH   7  20
TORSDOF 6
