REMARK  Name = ZINC05345859
REMARK  10 active torsions:
REMARK  status: ('A' for Active; 'I' for Inactive)
REMARK    1  A    between atoms: C_1  and  C_2
REMARK    2  A    between atoms: C_2  and  N_57
REMARK    3  A    between atoms: C_3  and  C_4
REMARK    4  A    between atoms: C_3  and  N_57
REMARK    5  A    between atoms: C_5  and  C_6
REMARK    6  A    between atoms: C_5  and  N_57
REMARK    7  A    between atoms: C_6  and  N_7
REMARK    8  A    between atoms: C_13  and  C_23
REMARK    9  A    between atoms: C_18  and  O_22
REMARK   10  A    between atoms: C_26  and  C_29
REMARK                            x       y       z     vdW  Elec       q    Type
REMARK                         _______ _______ _______ _____ _____    ______ ____
ROOT
ATOM      1  N   UNL     1       5.632   3.352  -1.087  0.00  0.00    -0.320 N 
ATOM      2  C   UNL     1       5.269   4.657  -1.005  0.00  0.00    +0.204 A 
ATOM      3  N   UNL     1       4.107   5.012  -0.536  0.00  0.00    -0.202 NA
ATOM      4  C   UNL     1       3.202   4.112  -0.108  0.00  0.00    +0.229 A 
ATOM      5  C   UNL     1       3.493   2.783  -0.160  0.00  0.00    +0.066 A 
ATOM      6  C   UNL     1       4.750   2.376  -0.666  0.00  0.00    +0.115 A 
ATOM      7  C   UNL     1       2.510   1.747   0.308  0.00  0.00    +0.091 C 
ATOM      8  C   UNL     1       1.129   2.338   0.401  0.00  0.00    +0.007 A 
ATOM      9  C   UNL     1       0.030   1.499   0.462  0.00  0.00    +0.012 A 
ATOM     10  C   UNL     1      -1.244   2.025   0.544  0.00  0.00    +0.046 A 
ATOM     11  C   UNL     1      -1.425   3.401   0.575  0.00  0.00    +0.120 A 
ATOM     12  C   UNL     1      -0.328   4.243   0.513  0.00  0.00    +0.092 A 
ATOM     13  C   UNL     1       0.953   3.713   0.427  0.00  0.00    +0.138 A 
ATOM     14  O   UNL     1       2.017   4.550   0.369  0.00  0.00    -0.437 OA
ATOM     15  H   UNL     1       5.912   0.737  -1.068  0.00  0.00    +0.157 HD
ATOM     16  N   UNL     1       5.015   1.065  -0.709  0.00  0.00    -0.384 N 
ATOM     17  H   UNL     1       4.316   0.389  -0.380  0.00  0.00    +0.157 HD
ENDROOT
BRANCH   7  18
ATOM     18  C   UNL     1       2.927   1.241   1.665  0.00  0.00    -0.035 A 
ATOM     19  C   UNL     1       3.012   2.114   2.733  0.00  0.00    +0.005 A 
ATOM     20  C   UNL     1       3.390   1.649   3.978  0.00  0.00    +0.003 A 
ATOM     21  C   UNL     1       3.695   0.312   4.153  0.00  0.00    -0.050 A 
ATOM     22  C   UNL     1       3.615  -0.561   3.084  0.00  0.00    +0.003 A 
ATOM     23  C   UNL     1       3.232  -0.096   1.840  0.00  0.00    +0.005 A 
ATOM     24  C   UNL     1       4.114  -0.194   5.509  0.00  0.00    +0.044 C 
ENDBRANCH   7  18
BRANCH  11  25
ATOM     25  O   UNL     1      -2.678   3.920   0.660  0.00  0.00    -0.507 OA
ATOM     26  H   UNL     1      -3.097   4.080  -0.197  0.00  0.00    +0.292 HD
ENDBRANCH  11  25
BRANCH   1  27
ATOM     27  C   UNL     1       6.946   2.982  -1.617  0.00  0.00    +0.106 C 
BRANCH  27  28
ATOM     28  C   UNL     1       6.823   2.661  -3.108  0.00  0.00    -0.057 C 
BRANCH  28  29
ATOM     29  N   UNL     1       8.160   2.311  -3.632  0.00  0.00    +0.380 N 
ATOM     30  H   UNL     1       8.825   3.049  -3.372  0.00  0.00    -0.082 HD
BRANCH  29  32
ATOM     31  C   UNL     1       7.652  -0.100  -3.426  0.00  0.00    -0.017 C 
ATOM     32  C   UNL     1       8.612   1.030  -3.049  0.00  0.00    -0.082 C 
ENDBRANCH  29  32
BRANCH  29  33
ATOM     33  C   UNL     1       8.113   2.205  -5.106  0.00  0.00    -0.082 C 
ATOM     34  C   UNL     1       9.545   2.206  -5.645  0.00  0.00    -0.017 C 
ENDBRANCH  29  33
ENDBRANCH  28  29
ENDBRANCH  27  28
ENDBRANCH   1  27
TORSDOF 7
