REMARK  Name = ZINC04113765
REMARK  5 active torsions:
REMARK  status: ('A' for Active; 'I' for Inactive)
REMARK    1  A    between atoms: C_1  and  C_2
REMARK    2  A    between atoms: C_2  and  C_18
REMARK    3  A    between atoms: N_3  and  N_4
REMARK    4  A    between atoms: C_5  and  C_7
REMARK    5  A    between atoms: C_16  and  O_17
REMARK                            x       y       z     vdW  Elec       q    Type
REMARK                         _______ _______ _______ _____ _____    ______ ____
ROOT
ATOM      1  N   UNL     1      -3.766   3.425  -0.093  0.00  0.00    -0.203 N 
ATOM      2  C   UNL     1      -3.734   2.117  -0.414  0.00  0.00    +0.267 C 
ATOM      3  O   UNL     1      -4.769   1.520  -0.640  0.00  0.00    -0.268 OA
ATOM      4  H   UNL     1      -2.940   3.901   0.087  0.00  0.00    +0.178 HD
ENDROOT
BRANCH   2   5
ATOM      5  C   UNL     1      -2.442   1.408  -0.492  0.00  0.00    +0.080 A 
ATOM      6  C   UNL     1      -1.265   2.090  -0.230  0.00  0.00    +0.025 A 
ATOM      7  C   UNL     1      -0.041   1.412  -0.309  0.00  0.00    -0.017 A 
ATOM      8  C   UNL     1       1.174   2.075  -0.052  0.00  0.00    +0.008 A 
ATOM      9  C   UNL     1       2.346   1.388  -0.132  0.00  0.00    +0.001 A 
ATOM     10  C   UNL     1       2.363   0.034  -0.465  0.00  0.00    +0.001 A 
ATOM     11  C   UNL     1       1.209  -0.640  -0.720  0.00  0.00    +0.008 A 
ATOM     12  C   UNL     1      -0.023   0.034  -0.648  0.00  0.00    -0.014 A 
ATOM     13  C   UNL     1      -1.230  -0.636  -0.905  0.00  0.00    +0.054 A 
ATOM     14  C   UNL     1      -2.414   0.038  -0.829  0.00  0.00    +0.130 A 
BRANCH  14  15
ATOM     15  O   UNL     1      -3.576  -0.617  -1.079  0.00  0.00    -0.506 OA
ATOM     16  H   UNL     1      -3.978  -1.018  -0.296  0.00  0.00    +0.292 HD
ENDBRANCH  14  15
ENDBRANCH   2   5
BRANCH   1  19
ATOM     17  C   UNL     1      -6.331   6.081   0.429  0.00  0.00    +0.068 C 
ATOM     18  C   UNL     1      -5.018   5.383   0.184  0.00  0.00    +0.070 C 
ATOM     19  N   UNL     1      -4.992   4.098  -0.019  0.00  0.00    -0.184 NA
BRANCH  18  20
ATOM     20  C   UNL     1      -3.769   6.152   0.175  0.00  0.00    +0.036 A 
ATOM     21  C   UNL     1      -3.451   7.306   0.869  0.00  0.00    +0.019 A 
ATOM     22  C   UNL     1      -2.197   7.847   0.698  0.00  0.00    +0.028 A 
ATOM     23  C   UNL     1      -1.322   7.242  -0.149  0.00  0.00    +0.079 A 
ATOM     24  S   UNL     1      -2.267   5.847  -0.740  0.00  0.00    -0.076 S 
ATOM     25 CL   UNL     1       0.301   7.707  -0.552  0.00  0.00    -0.076 Cl
ENDBRANCH  18  20
ENDBRANCH   1  19
TORSDOF 4
