REMARK  Name = ZINC44546399
REMARK  3 active torsions:
REMARK  status: ('A' for Active; 'I' for Inactive)
REMARK    1  A    between atoms: C_4  and  C_7
REMARK    2  A    between atoms: C_21  and  C_35
REMARK    3  A    between atoms: C_28  and  C_29
REMARK                            x       y       z     vdW  Elec       q    Type
REMARK                         _______ _______ _______ _____ _____    ______ ____
ROOT
ATOM      1  C   UNL     1       3.711  -0.707  -0.038  0.00  0.00    +0.082 C 
ATOM      2  C   UNL     1       3.829  -1.429  -1.357  0.00  0.00    -0.014 A 
ATOM      3  C   UNL     1       3.766  -0.673  -2.508  0.00  0.00    +0.006 A 
ATOM      4  C   UNL     1       3.866  -1.271  -3.749  0.00  0.00    +0.001 A 
ATOM      5  C   UNL     1       4.030  -2.642  -3.797  0.00  0.00    +0.006 A 
ATOM      6  C   UNL     1       4.092  -3.383  -2.636  0.00  0.00    -0.014 A 
ATOM      7  C   UNL     1       3.993  -2.812  -1.370  0.00  0.00    +0.047 A 
ATOM      8  N   UNL     1       4.056  -3.577  -0.188  0.00  0.00    -0.267 N 
ATOM      9  C   UNL     1       3.951  -2.944   1.067  0.00  0.00    +0.047 A 
ATOM     10  C   UNL     1       3.785  -1.568   1.199  0.00  0.00    -0.014 A 
ATOM     11  C   UNL     1       3.681  -0.942   2.423  0.00  0.00    +0.006 A 
ATOM     12  C   UNL     1       3.741  -1.671   3.594  0.00  0.00    +0.001 A 
ATOM     13  C   UNL     1       3.906  -3.039   3.498  0.00  0.00    +0.006 A 
ATOM     14  C   UNL     1       4.006  -3.650   2.266  0.00  0.00    -0.014 A 
ATOM     15  C   UNL     1       4.184  -5.148   2.239  0.00  0.00    +0.082 C 
ATOM     16  C   UNL     1       4.292  -5.779   0.873  0.00  0.00    -0.014 A 
ATOM     17  C   UNL     1       4.223  -4.974  -0.261  0.00  0.00    +0.047 A 
ATOM     18  C   UNL     1       4.333  -5.651  -1.473  0.00  0.00    -0.014 A 
ATOM     19  C   UNL     1       4.499  -7.017  -1.553  0.00  0.00    +0.006 A 
ATOM     20  C   UNL     1       4.563  -7.787  -0.408  0.00  0.00    +0.001 A 
ATOM     21  C   UNL     1       4.455  -7.146   0.810  0.00  0.00    +0.006 A 
ATOM     22  C   UNL     1       4.272  -4.875  -2.765  0.00  0.00    +0.082 C 
ENDROOT
BRANCH   1  26
ATOM     23  C   UNL     1      -0.017   1.378   0.010  0.00  0.00    +0.000 A 
ATOM     24  C   UNL     1       1.171   2.086   0.002  0.00  0.00    +0.000 A 
ATOM     25  C   UNL     1       2.377   1.411  -0.013  0.00  0.00    +0.004 A 
ATOM     26  C   UNL     1       2.396   0.029  -0.020  0.00  0.00    -0.036 A 
ATOM     27  C   UNL     1       1.208  -0.679  -0.012  0.00  0.00    +0.004 A 
ATOM     28  C   UNL     1       0.002  -0.004   0.002  0.00  0.00    +0.000 A 
ENDBRANCH   1  26
BRANCH  22  29
ATOM     29  C   UNL     1       3.129  -5.417  -3.584  0.00  0.00    -0.036 A 
ATOM     30  C   UNL     1       1.828  -5.251  -3.149  0.00  0.00    +0.004 A 
ATOM     31  C   UNL     1       0.779  -5.748  -3.899  0.00  0.00    +0.000 A 
ATOM     32  C   UNL     1       1.032  -6.412  -5.085  0.00  0.00    +0.000 A 
ATOM     33  C   UNL     1       2.333  -6.577  -5.521  0.00  0.00    +0.000 A 
ATOM     34  C   UNL     1       3.381  -6.076  -4.772  0.00  0.00    +0.004 A 
ENDBRANCH  22  29
BRANCH  15  35
ATOM     35  C   UNL     1       3.015  -5.773   2.954  0.00  0.00    -0.036 A 
ATOM     36  C   UNL     1       1.729  -5.566   2.489  0.00  0.00    +0.004 A 
ATOM     37  C   UNL     1       0.656  -6.140   3.146  0.00  0.00    +0.000 A 
ATOM     38  C   UNL     1       0.869  -6.920   4.267  0.00  0.00    +0.000 A 
ATOM     39  C   UNL     1       2.154  -7.128   4.731  0.00  0.00    +0.000 A 
ATOM     40  C   UNL     1       3.227  -6.558   4.073  0.00  0.00    +0.004 A 
ENDBRANCH  15  35
TORSDOF 3
