REMARK  Name = ZINC39636645
REMARK  6 active torsions:
REMARK  status: ('A' for Active; 'I' for Inactive)
REMARK    1  A    between atoms: C_1  and  C_2
REMARK    2  A    between atoms: C_5  and  C_34
REMARK    3  A    between atoms: C_6  and  C_8
REMARK    4  A    between atoms: C_8  and  N_9
REMARK    5  A    between atoms: C_10  and  C_12
REMARK    6  A    between atoms: C_23  and  C_25
REMARK                            x       y       z     vdW  Elec       q    Type
REMARK                         _______ _______ _______ _____ _____    ______ ____
ROOT
ATOM      1  C   UNL     1       3.507  -4.169   4.476  0.00  0.00    +0.100 C 
ATOM      2  C   UNL     1       3.770  -5.218   3.373  0.00  0.00    +0.121 C 
ATOM      3  N   UNL     1       4.461  -6.329   4.070  0.00  0.00    -0.296 N 
ATOM      4  C   UNL     1       3.769  -6.431   5.377  0.00  0.00    +0.115 C 
ATOM      5  C   UNL     1       3.506  -4.969   5.790  0.00  0.00    -0.004 C 
ATOM      6  C   UNL     1       2.151  -4.851   6.479  0.00  0.00    -0.010 C 
ATOM      7  C   UNL     1       2.193  -5.606   7.811  0.00  0.00    -0.082 C 
ATOM      8  N   UNL     1       3.247  -5.042   8.662  0.00  0.00    +0.379 N 
ATOM      9  C   UNL     1       4.559  -5.242   8.034  0.00  0.00    -0.082 C 
ATOM     10  C   UNL     1       4.616  -4.472   6.711  0.00  0.00    -0.010 C 
ATOM     11  C   UNL     1       5.486  -7.078   3.618  0.00  0.00    +0.248 C 
ATOM     12  O   UNL     1       5.887  -8.021   4.274  0.00  0.00    -0.270 OA
ATOM     13  H   UNL     1       3.084  -4.054   8.788  0.00  0.00    -0.086 HD
ATOM     14  H   UNL     1       3.233  -5.500   9.561  0.00  0.00    -0.086 HD
ENDROOT
BRANCH  11  15
ATOM     15  C   UNL     1       6.120  -6.755   2.333  0.00  0.00    +0.052 A 
ATOM     16  C   UNL     1       5.393  -6.258   1.299  0.00  0.00    +0.059 A 
ATOM     17  S   UNL     1       6.489  -6.036   0.049  0.00  0.00    -0.096 S 
ATOM     18  C   UNL     1       7.976  -6.593   0.834  0.00  0.00    +0.020 A 
ATOM     19  C   UNL     1       7.557  -6.954   2.128  0.00  0.00    +0.001 A 
ATOM     20  C   UNL     1       8.538  -7.441   3.013  0.00  0.00    +0.010 A 
ATOM     21  C   UNL     1       9.846  -7.546   2.609  0.00  0.00    +0.001 A 
ATOM     22  C   UNL     1      10.235  -7.179   1.329  0.00  0.00    +0.001 A 
ATOM     23  C   UNL     1       9.291  -6.708   0.436  0.00  0.00    +0.015 A 
ENDBRANCH  11  15
BRANCH   1  25
ATOM     24  N   UNL     1       1.968  -2.244   4.684  0.00  0.00    -0.311 N 
ATOM     25  C   UNL     1       2.170  -3.508   4.263  0.00  0.00    +0.218 C 
ATOM     26  O   UNL     1       1.275  -4.114   3.713  0.00  0.00    -0.275 OA
ATOM     27  H   UNL     1       2.684  -1.759   5.125  0.00  0.00    +0.149 HD
BRANCH  24  28
ATOM     28  C   UNL     1       0.668  -1.601   4.478  0.00  0.00    +0.139 C 
BRANCH  28  34
ATOM     29  C   UNL     1      -0.408   1.635   8.140  0.00  0.00    +0.044 C 
ATOM     30  C   UNL     1       0.190   1.347   6.787  0.00  0.00    -0.050 A 
ATOM     31  C   UNL     1       0.772   2.366   6.057  0.00  0.00    +0.003 A 
ATOM     32  C   UNL     1       1.320   2.102   4.816  0.00  0.00    +0.004 A 
ATOM     33  C   UNL     1       1.286   0.818   4.305  0.00  0.00    -0.046 A 
ATOM     34  C   UNL     1       0.705  -0.202   5.035  0.00  0.00    -0.027 A 
ATOM     35  C   UNL     1       0.161   0.062   6.278  0.00  0.00    +0.008 A 
ATOM     36  C   UNL     1       1.883   0.530   2.951  0.00  0.00    +0.044 C 
ENDBRANCH  28  34
ENDBRANCH  24  28
ENDBRANCH   1  25
TORSDOF 4
