REMARK  Name = ZINC16689264
REMARK  11 active torsions:
REMARK  status: ('A' for Active; 'I' for Inactive)
REMARK    1  A    between atoms: C_1  and  C_2
REMARK    2  A    between atoms: C_2  and  O_3
REMARK    3  A    between atoms: O_3  and  C_4
REMARK    4  A    between atoms: C_6  and  C_19
REMARK    5  A    between atoms: C_9  and  O_10
REMARK    6  A    between atoms: O_10  and  C_11
REMARK    7  A    between atoms: C_11  and  C_12
REMARK    8  A    between atoms: C_19  and  N_57
REMARK    9  A    between atoms: C_20  and  C_21
REMARK   10  A    between atoms: C_20  and  N_57
REMARK   11  A    between atoms: C_21  and  C_22
REMARK                            x       y       z     vdW  Elec       q    Type
REMARK                         _______ _______ _______ _____ _____    ______ ____
ROOT
ATOM      1  C   UNL     1      -6.934  -3.450  -2.550  0.00  0.00    +0.162 A 
ATOM      2  C   UNL     1      -5.833  -2.610  -2.593  0.00  0.00    +0.051 A 
ATOM      3  C   UNL     1      -4.564  -3.140  -2.732  0.00  0.00    -0.061 A 
ATOM      4  C   UNL     1      -4.390  -4.508  -2.833  0.00  0.00    +0.005 A 
ATOM      5  C   UNL     1      -5.483  -5.352  -2.785  0.00  0.00    +0.049 A 
ATOM      6  C   UNL     1      -6.758  -4.827  -2.646  0.00  0.00    +0.162 A 
ENDROOT
BRANCH   1   7
ATOM      7  O   UNL     1      -8.183  -2.930  -2.414  0.00  0.00    -0.489 OA
BRANCH   7   9
ATOM      8  C   UNL     1      -9.758  -1.113  -2.175  0.00  0.00    +0.048 C 
ATOM      9  C   UNL     1      -8.287  -1.508  -2.322  0.00  0.00    +0.226 C 
ENDBRANCH   7   9
ENDBRANCH   1   7
BRANCH   6  10
ATOM     10  O   UNL     1      -7.835  -5.656  -2.604  0.00  0.00    -0.484 OA
BRANCH  10  11
ATOM     11  C   UNL     1      -7.580  -7.058  -2.709  0.00  0.00    +0.266 C 
BRANCH  11  12
ATOM     12  C   UNL     1      -8.883  -7.812  -2.643  0.00  0.00    +0.008 A 
ATOM     13  C   UNL     1     -10.073  -7.125  -2.495  0.00  0.00    +0.008 A 
ATOM     14  C   UNL     1     -11.268  -7.817  -2.439  0.00  0.00    +0.000 A 
ATOM     15  C   UNL     1     -11.274  -9.197  -2.521  0.00  0.00    +0.001 A 
ATOM     16  C   UNL     1     -10.084  -9.886  -2.663  0.00  0.00    +0.020 A 
ATOM     17  C   UNL     1      -8.887  -9.193  -2.724  0.00  0.00    +0.047 A 
ATOM     18 CL   UNL     1      -7.392 -10.058  -2.902  0.00  0.00    -0.083 Cl
ENDBRANCH  11  12
ENDBRANCH  10  11
ENDBRANCH   6  10
BRANCH   3  19
ATOM     19  C   UNL     1      -3.368  -2.224  -2.779  0.00  0.00    -0.047 C 
BRANCH  19  20
ATOM     20  N   UNL     1      -2.867  -2.012  -1.408  0.00  0.00    +0.382 N 
ATOM     21  H   UNL     1      -2.598  -2.916  -1.002  0.00  0.00    -0.085 HD
ATOM     22  H   UNL     1      -3.608  -1.588  -0.838  0.00  0.00    -0.085 HD
BRANCH  20  23
ATOM     23  C   UNL     1      -1.694  -1.118  -1.424  0.00  0.00    -0.077 C 
BRANCH  23  24
ATOM     24  C   UNL     1      -1.197  -0.917   0.009  0.00  0.00    +0.018 C 
BRANCH  24  25
ATOM     25  C   UNL     1       0.002  -0.004   0.002  0.00  0.00    -0.024 A 
ATOM     26  C   UNL     1       1.291  -0.379  -0.012  0.00  0.00    +0.087 A 
ATOM     27  N   UNL     1       2.098   0.726  -0.014  0.00  0.00    -0.360 N 
ATOM     28  H   UNL     1       3.068   0.707  -0.023  0.00  0.00    +0.165 HD
ATOM     29  C   UNL     1       1.329   1.868  -0.001  0.00  0.00    +0.047 A 
ATOM     30  C   UNL     1      -0.018   1.461   0.010  0.00  0.00    +0.003 A 
ATOM     31  C   UNL     1      -1.034   2.417   0.030  0.00  0.00    +0.010 A 
ATOM     32  C   UNL     1      -0.716   3.746   0.030  0.00  0.00    +0.001 A 
ATOM     33  C   UNL     1       0.611   4.153   0.019  0.00  0.00    +0.002 A 
ATOM     34  C   UNL     1       1.631   3.225   0.004  0.00  0.00    +0.026 A 
ENDBRANCH  24  25
ENDBRANCH  23  24
ENDBRANCH  20  23
ENDBRANCH  19  20
ENDBRANCH   3  19
TORSDOF 10
