REMARK  Name = ZINC63723051
REMARK  9 active torsions:
REMARK  status: ('A' for Active; 'I' for Inactive)
REMARK    1  A    between atoms: C_1  and  C_2
REMARK    2  A    between atoms: C_7  and  C_8
REMARK    3  A    between atoms: C_8  and  C_9
REMARK    4  A    between atoms: C_8  and  N_23
REMARK    5  A    between atoms: C_9  and  C_10
REMARK    6  A    between atoms: N_16  and  C_19
REMARK    7  A    between atoms: C_19  and  C_20
REMARK    8  A    between atoms: C_19  and  C_21
REMARK    9  A    between atoms: C_19  and  C_22
REMARK                            x       y       z     vdW  Elec       q    Type
REMARK                         _______ _______ _______ _____ _____    ______ ____
ROOT
ATOM      1  C   UNL     1      -1.521  -0.447   2.846  0.00  0.00    +0.114 C 
ENDROOT
BRANCH   1   8
ATOM      2  C   UNL     1      -4.066  -1.387   1.851  0.00  0.00    +0.044 C 
ATOM      3  C   UNL     1      -2.814  -2.184   1.591  0.00  0.00    -0.045 A 
ATOM      4  C   UNL     1      -2.882  -3.363   0.871  0.00  0.00    +0.004 A 
ATOM      5  C   UNL     1      -1.734  -4.094   0.632  0.00  0.00    +0.000 A 
ATOM      6  C   UNL     1      -0.517  -3.647   1.113  0.00  0.00    +0.000 A 
ATOM      7  C   UNL     1      -0.449  -2.469   1.832  0.00  0.00    +0.006 A 
ATOM      8  C   UNL     1      -1.596  -1.735   2.067  0.00  0.00    -0.024 A 
ENDBRANCH   1   8
BRANCH   1   9
ATOM      9  N   UNL     1      -2.034  -0.665   4.201  0.00  0.00    -0.292 N 
ATOM     10  C   UNL     1      -1.500  -1.630   4.976  0.00  0.00    +0.298 C 
ATOM     11  O   UNL     1      -0.535  -2.259   4.586  0.00  0.00    -0.253 OA
ATOM     12  N   UNL     1      -2.034  -1.897   6.184  0.00  0.00    -0.313 N 
ATOM     13  H   UNL     1      -2.758  -0.116   4.540  0.00  0.00    +0.151 HD
ATOM     14  H   UNL     1      -2.804  -1.395   6.495  0.00  0.00    +0.146 HD
ATOM     15  H   UNL     1      -1.650  -2.591   6.742  0.00  0.00    +0.146 HD
ENDBRANCH   1   9
BRANCH   1  16
ATOM     16  C   UNL     1      -0.066   0.020   2.920  0.00  0.00    +0.123 C 
BRANCH  16  17
ATOM     17  C   UNL     1      -0.005   1.368   3.592  0.00  0.00    +0.218 C 
ATOM     18  O   UNL     1      -1.024   1.902   3.973  0.00  0.00    -0.276 OA
ATOM     19  N   UNL     1       1.183   1.979   3.768  0.00  0.00    -0.303 N 
ATOM     20  C   UNL     1       2.408   1.307   3.288  0.00  0.00    +0.106 C 
ATOM     21  C   UNL     1       3.364   2.311   2.618  0.00  0.00    +0.000 C 
ATOM     22  C   UNL     1       2.563   3.293   1.791  0.00  0.00    -0.076 C 
ATOM     23  N   UNL     1       2.271   4.476   2.597  0.00  0.00    +0.384 N 
ATOM     24  C   UNL     1       1.089   4.395   3.366  0.00  0.00    -0.059 C 
ATOM     25  C   UNL     1       1.213   3.274   4.417  0.00  0.00    +0.089 C 
ATOM     26  H   UNL     1       3.047   4.636   3.221  0.00  0.00    -0.081 HD
BRANCH  23  27
ATOM     27  C   UNL     1       2.160   5.633   1.698  0.00  0.00    -0.074 C 
ATOM     28  C   UNL     1       1.112   5.345   0.622  0.00  0.00    -0.010 C 
ATOM     29  C   UNL     1       1.740   6.865   2.502  0.00  0.00    -0.010 C 
ATOM     30  C   UNL     1       3.514   5.895   1.035  0.00  0.00    -0.010 C 
ENDBRANCH  23  27
ENDBRANCH  16  17
ENDBRANCH   1  16
TORSDOF 5
