REMARK  Name = ZINC38666691
REMARK  12 active torsions:
REMARK  status: ('A' for Active; 'I' for Inactive)
REMARK    1  A    between atoms: C_1  and  C_2
REMARK    2  A    between atoms: C_2  and  C_3
REMARK    3  A    between atoms: N_5  and  C_6
REMARK    4  A    between atoms: C_9  and  S_12
REMARK    5  A    between atoms: S_12  and  N_15
REMARK    6  A    between atoms: N_15  and  C_16
REMARK    7  A    between atoms: C_16  and  C_17
REMARK    8  A    between atoms: C_17  and  C_19
REMARK    9  A    between atoms: C_17  and  N_28
REMARK   10  A    between atoms: C_22  and  N_25
REMARK   11  A    between atoms: N_25  and  C_26
REMARK   12  A    between atoms: N_25  and  C_27
REMARK                            x       y       z     vdW  Elec       q    Type
REMARK                         _______ _______ _______ _____ _____    ______ ____
ROOT
ATOM      1  C   UNL     1      -7.228  -5.121  -4.348  0.00  0.00    +0.119 C 
ENDROOT
BRANCH   1   2
ATOM      2  N   UNL     1      -7.120  -3.859  -5.083  0.00  0.00    -0.321 N 
ATOM      3  C   UNL     1      -6.359  -2.689  -4.637  0.00  0.00    +0.110 C 
ATOM      4  C   UNL     1      -6.555  -1.636  -5.740  0.00  0.00    +0.056 C 
ATOM      5  C   UNL     1      -7.443  -2.314  -6.759  0.00  0.00    -0.025 A 
ATOM      6  C   UNL     1      -7.724  -3.597  -6.315  0.00  0.00    +0.033 A 
ATOM      7  C   UNL     1      -8.530  -4.425  -7.099  0.00  0.00    +0.023 A 
ATOM      8  C   UNL     1      -9.033  -3.970  -8.299  0.00  0.00    +0.002 A 
ATOM      9  C   UNL     1      -8.744  -2.690  -8.735  0.00  0.00    +0.000 A 
ATOM     10  C   UNL     1      -7.954  -1.861  -7.960  0.00  0.00    +0.005 A 
ENDBRANCH   1   2
BRANCH   1  11
ATOM     11  C   UNL     1      -6.532  -6.213  -5.119  0.00  0.00    -0.026 A 
ATOM     12  C   UNL     1      -5.282  -5.984  -5.663  0.00  0.00    +0.007 A 
ATOM     13  C   UNL     1      -4.642  -6.983  -6.370  0.00  0.00    +0.023 A 
ATOM     14  C   UNL     1      -5.255  -8.218  -6.535  0.00  0.00    +0.029 A 
ATOM     15  C   UNL     1      -6.511  -8.445  -5.987  0.00  0.00    +0.023 A 
ATOM     16  C   UNL     1      -7.143  -7.444  -5.276  0.00  0.00    +0.007 A 
BRANCH  14  17
ATOM     17  N   UNL     1      -4.611  -9.230  -7.250  0.00  0.00    -0.336 N 
ATOM     18  C   UNL     1      -3.238  -9.033  -7.722  0.00  0.00    +0.129 C 
ATOM     19  C   UNL     1      -5.307 -10.489  -7.528  0.00  0.00    +0.129 C 
ENDBRANCH  14  17
ENDBRANCH   1  11
BRANCH   1  20
ATOM     20  C   UNL     1      -6.571  -4.968  -2.974  0.00  0.00    +0.133 C 
BRANCH  20  21
ATOM     21  N   UNL     1      -7.253  -3.913  -2.221  0.00  0.00    -0.188 NA
ATOM     22  H   UNL     1      -7.841  -3.293  -2.679  0.00  0.00    +0.148 HD
BRANCH  21  23
ATOM     23  S   UNL     1      -7.020  -3.779  -0.587  0.00  0.00    +0.058 S 
ATOM     24  O   UNL     1      -7.200  -5.080  -0.043  0.00  0.00    -0.153 OA
ATOM     25  O   UNL     1      -7.784  -2.661  -0.158  0.00  0.00    -0.153 OA
BRANCH  23  29
ATOM     26  C   UNL     1      -2.670  -2.698   0.060  0.00  0.00    +0.033 A 
ATOM     27  C   UNL     1      -3.620  -1.697  -0.094  0.00  0.00    +0.025 A 
ATOM     28  C   UNL     1      -4.946  -2.030  -0.292  0.00  0.00    +0.030 A 
ATOM     29  C   UNL     1      -5.327  -3.359  -0.335  0.00  0.00    +0.105 A 
ATOM     30  C   UNL     1      -4.384  -4.358  -0.181  0.00  0.00    +0.030 A 
ATOM     31  C   UNL     1      -3.055  -4.031   0.011  0.00  0.00    +0.025 A 
BRANCH  26  34
ATOM     32  C   UNL     1      -0.354  -3.132  -0.271  0.00  0.00    +0.217 C 
ATOM     33  O   UNL     1      -0.641  -4.158  -0.851  0.00  0.00    -0.275 OA
ATOM     34  N   UNL     1      -1.326  -2.364   0.261  0.00  0.00    -0.286 N 
ATOM     35  H   UNL     1      -1.093  -1.579   0.782  0.00  0.00    +0.155 HD
BRANCH  32  37
ATOM     36  C   UNL     1       1.981  -3.755  -0.828  0.00  0.00    +0.013 C 
ATOM     37  C   UNL     1       1.089  -2.716  -0.144  0.00  0.00    +0.093 C 
ENDBRANCH  32  37
ENDBRANCH  26  34
ENDBRANCH  23  29
ENDBRANCH  21  23
ENDBRANCH  20  21
ENDBRANCH   1  20
TORSDOF 9
