REMARK  Name = ZINC62839292
REMARK  6 active torsions:
REMARK  status: ('A' for Active; 'I' for Inactive)
REMARK    1  A    between atoms: C_3  and  N_11
REMARK    2  A    between atoms: C_5  and  O_7
REMARK    3  A    between atoms: O_7  and  C_8
REMARK    4  A    between atoms: C_8  and  C_9
REMARK    5  A    between atoms: C_9  and  N_10
REMARK    6  A    between atoms: C_13  and  N_19
REMARK                            x       y       z     vdW  Elec       q    Type
REMARK                         _______ _______ _______ _____ _____    ______ ____
ROOT
ATOM      1  C   UNL     1       0.661   2.246   3.068  0.00  0.00    +0.005 A 
ATOM      2  C   UNL     1       1.753   2.804   2.431  0.00  0.00    +0.023 A 
ATOM      3  C   UNL     1       2.727   1.984   1.874  0.00  0.00    +0.036 A 
ATOM      4  C   UNL     1       2.602   0.604   1.960  0.00  0.00    +0.069 A 
ATOM      5  C   UNL     1       1.505   0.049   2.600  0.00  0.00    +0.122 A 
ATOM      6  C   UNL     1       0.535   0.873   3.153  0.00  0.00    +0.046 A 
ENDROOT
BRANCH   3   7
ATOM      7  N   UNL     1       3.831   2.548   1.229  0.00  0.00    -0.298 N 
ATOM      8  C   UNL     1       3.686   3.726   0.504  0.00  0.00    +0.153 A 
ATOM      9  C   UNL     1       4.758   4.218  -0.233  0.00  0.00    +0.167 A 
ATOM     10  C   UNL     1       4.601   5.391  -0.950  0.00  0.00    +0.053 A 
ATOM     11  C   UNL     1       3.370   6.035  -0.905  0.00  0.00    +0.038 A 
ATOM     12  C   UNL     1       2.349   5.489  -0.153  0.00  0.00    +0.128 A 
ATOM     13  N   UNL     1       2.527   4.366   0.517  0.00  0.00    -0.237 NA
ATOM     14 BR   UNL     1       3.097   7.641  -1.865  0.00  0.00    -0.049 Br
ATOM     15  H   UNL     1       4.699   2.118   1.287  0.00  0.00    +0.154 HD
BRANCH   9  16
ATOM     16  N   UNL     1       6.051   3.498  -0.249  0.00  0.00    +0.060 N 
ATOM     17  O   UNL     1       7.089   4.117  -0.257  0.00  0.00    -0.126 OA
ATOM     18  O   UNL     1       6.069   2.289  -0.255  0.00  0.00    -0.126 OA
ENDBRANCH   9  16
ENDBRANCH   3   7
BRANCH   5  19
ATOM     19  O   UNL     1       1.379  -1.302   2.684  0.00  0.00    -0.494 OA
BRANCH  19  20
ATOM     20  C   UNL     1       0.224  -1.805   3.358  0.00  0.00    +0.209 C 
BRANCH  20  21
ATOM     21  C   UNL     1       0.256  -3.334   3.353  0.00  0.00    -0.045 C 
BRANCH  21  22
ATOM     22  N   UNL     1       1.402  -3.803   4.144  0.00  0.00    +0.380 N 
ATOM     23  H   UNL     1       1.423  -4.812   4.140  0.00  0.00    -0.090 HD
ATOM     24  H   UNL     1       2.256  -3.447   3.742  0.00  0.00    -0.090 HD
ATOM     25  H   UNL     1       1.313  -3.472   5.093  0.00  0.00    -0.090 HD
ENDBRANCH  21  22
ENDBRANCH  20  21
ENDBRANCH  19  20
ENDBRANCH   5  19
TORSDOF 6
