REMARK  Name = ZINC13131345
REMARK  6 active torsions:
REMARK  status: ('A' for Active; 'I' for Inactive)
REMARK    1  A    between atoms: C_1  and  O_2
REMARK    2  A    between atoms: O_2  and  C_3
REMARK    3  A    between atoms: C_6  and  C_11
REMARK    4  A    between atoms: C_8  and  O_9
REMARK    5  A    between atoms: O_9  and  C_10
REMARK    6  A    between atoms: C_14  and  C_23
REMARK                            x       y       z     vdW  Elec       q    Type
REMARK                         _______ _______ _______ _____ _____    ______ ____
ROOT
ATOM      1  C   UNL     1      -4.987  -2.627   0.035  0.00  0.00    +0.143 C 
ATOM      2  C   UNL     1      -5.771  -2.221   1.289  0.00  0.00    +0.058 C 
ATOM      3  C   UNL     1      -7.221  -2.703   1.171  0.00  0.00    +0.106 C 
ATOM      4  N   UNL     1      -7.847  -2.035   0.014  0.00  0.00    -0.307 N 
ATOM      5  C   UNL     1      -7.080  -1.962  -1.141  0.00  0.00    +0.216 A 
ATOM      6  N   UNL     1      -5.752  -2.237  -1.149  0.00  0.00    -0.224 N 
ATOM      7  N   UNL     1      -5.315  -2.070  -2.464  0.00  0.00    -0.132 NA
ATOM      8  C   UNL     1      -6.364  -1.712  -3.170  0.00  0.00    +0.233 A 
ATOM      9  N   UNL     1      -7.436  -1.644  -2.357  0.00  0.00    -0.180 NA
ATOM     10  N   UNL     1      -6.366  -1.441  -4.539  0.00  0.00    -0.326 N 
ATOM     11  H   UNL     1      -8.744  -1.667   0.058  0.00  0.00    +0.149 HD
ATOM     12  H   UNL     1      -5.544  -1.511  -5.048  0.00  0.00    +0.145 HD
ATOM     13  H   UNL     1      -7.190  -1.182  -4.981  0.00  0.00    +0.145 HD
ENDROOT
BRANCH   3  14
ATOM     14  C   UNL     1      -7.974  -2.355   2.429  0.00  0.00    -0.027 A 
ATOM     15  C   UNL     1      -8.459  -1.073   2.611  0.00  0.00    +0.008 A 
ATOM     16  C   UNL     1      -9.150  -0.752   3.764  0.00  0.00    +0.038 A 
ATOM     17  C   UNL     1      -9.357  -1.715   4.737  0.00  0.00    +0.123 A 
ATOM     18  C   UNL     1      -8.871  -2.998   4.554  0.00  0.00    +0.038 A 
ATOM     19  C   UNL     1      -8.185  -3.318   3.398  0.00  0.00    +0.008 A 
ATOM     20  F   UNL     1     -10.032  -1.402   5.865  0.00  0.00    -0.205 F 
ENDBRANCH   3  14
BRANCH   1  24
ATOM     21  C   UNL     1      -1.201  -0.638   0.010  0.00  0.00    +0.162 A 
ATOM     22  C   UNL     1      -2.374   0.099   0.019  0.00  0.00    +0.050 A 
ATOM     23  C   UNL     1      -3.596  -0.546   0.027  0.00  0.00    +0.009 A 
ATOM     24  C   UNL     1      -3.652  -1.928   0.026  0.00  0.00    -0.019 A 
ATOM     25  C   UNL     1      -2.485  -2.669   0.017  0.00  0.00    +0.055 A 
ATOM     26  C   UNL     1      -1.257  -2.028   0.003  0.00  0.00    +0.162 A 
BRANCH  21  28
ATOM     27  C   UNL     1      -0.017   1.425   0.010  0.00  0.00    +0.277 C 
ATOM     28  O   UNL     1       0.002  -0.004   0.002  0.00  0.00    -0.491 OA
ENDBRANCH  21  28
BRANCH  26  29
ATOM     29  O   UNL     1      -0.108  -2.756  -0.012  0.00  0.00    -0.491 OA
ATOM     30  C   UNL     1      -0.242  -4.179  -0.018  0.00  0.00    +0.277 C 
ENDBRANCH  26  29
ENDBRANCH   1  24
TORSDOF 4
