REMARK  Name = ZINC14361421
REMARK  8 active torsions:
REMARK  status: ('A' for Active; 'I' for Inactive)
REMARK    1  A    between atoms: C_1  and  C_2
REMARK    2  A    between atoms: N_4  and  C_5
REMARK    3  A    between atoms: C_8  and  C_11
REMARK    4  A    between atoms: C_14  and  C_30
REMARK    5  A    between atoms: C_26  and  C_27
REMARK    6  A    between atoms: C_30  and  C_31
REMARK    7  A    between atoms: C_30  and  C_32
REMARK    8  A    between atoms: C_30  and  C_33
REMARK                            x       y       z     vdW  Elec       q    Type
REMARK                         _______ _______ _______ _____ _____    ______ ____
ROOT
ATOM      1  C   UNL     1      -1.234   2.098  -0.584  0.00  0.00    +0.013 C 
ATOM      2  C   UNL     1      -1.216   3.442  -0.610  0.00  0.00    -0.023 C 
ATOM      3  C   UNL     1       0.066   4.212  -0.375  0.00  0.00    +0.041 C 
ATOM      4  C   UNL     1       0.117   5.343  -1.417  0.00  0.00    +0.003 C 
ATOM      5  C   UNL     1      -1.034   6.313  -1.160  0.00  0.00    +0.042 C 
ATOM      6  C   UNL     1      -2.356   5.596  -1.135  0.00  0.00    -0.009 A 
ATOM      7  C   UNL     1      -2.450   4.219  -0.862  0.00  0.00    +0.047 A 
ATOM      8  N   UNL     1      -3.613   3.591  -0.826  0.00  0.00    -0.354 N 
ATOM      9  C   UNL     1      -4.771   4.211  -1.046  0.00  0.00    +0.048 A 
ATOM     10  C   UNL     1      -5.992   3.512  -0.998  0.00  0.00    +0.026 A 
ATOM     11  C   UNL     1      -7.159   4.173  -1.230  0.00  0.00    +0.002 A 
ATOM     12  C   UNL     1      -7.167   5.536  -1.516  0.00  0.00    +0.001 A 
ATOM     13  C   UNL     1      -6.004   6.247  -1.570  0.00  0.00    +0.011 A 
ATOM     14  C   UNL     1      -4.787   5.599  -1.336  0.00  0.00    +0.013 A 
ATOM     15  C   UNL     1      -3.515   6.320  -1.381  0.00  0.00    +0.077 A 
ATOM     16  H   UNL     1      -3.650   2.514  -0.606  0.00  0.00    +0.166 HD
ENDROOT
BRANCH   1  20
ATOM     17  C   UNL     1       2.217  -0.053   0.630  0.00  0.00    +0.033 A 
ATOM     18  C   UNL     1       1.902   1.154   1.243  0.00  0.00    +0.024 A 
ATOM     19  C   UNL     1       0.784   1.857   0.851  0.00  0.00    +0.010 A 
ATOM     20  C   UNL     1      -0.035   1.353  -0.165  0.00  0.00    -0.025 A 
ATOM     21  C   UNL     1       0.286   0.139  -0.779  0.00  0.00    +0.010 A 
ATOM     22  C   UNL     1       1.406  -0.558  -0.381  0.00  0.00    +0.024 A 
BRANCH  17  26
ATOM     23  C   UNL     1       5.027  -1.405   2.734  0.00  0.00    +0.109 C 
ATOM     24  C   UNL     1       3.735  -0.746   2.323  0.00  0.00    +0.214 C 
ATOM     25  O   UNL     1       3.041  -0.201   3.155  0.00  0.00    -0.276 OA
ATOM     26  N   UNL     1       3.352  -0.762   1.031  0.00  0.00    -0.286 N 
ATOM     27  H   UNL     1       3.933  -1.334   0.292  0.00  0.00    +0.155 HD
ENDBRANCH  17  26
ENDBRANCH   1  20
BRANCH   4  28
ATOM     28  C   UNL     1       1.448   6.088  -1.296  0.00  0.00    -0.034 C 
ATOM     29  C   UNL     1       1.579   6.674   0.111  0.00  0.00    +0.011 C 
ATOM     30  C   UNL     1       2.601   5.116  -1.554  0.00  0.00    +0.011 C 
ATOM     31  C   UNL     1       1.494   7.219  -2.326  0.00  0.00    +0.011 C 
ENDBRANCH   4  28
BRANCH  15  32
ATOM     32  C   UNL     1      -3.465   7.766  -1.679  0.00  0.00    +0.388 C 
ATOM     33  O   UNL     1      -3.360   8.147  -2.827  0.00  0.00    -0.241 OA
ATOM     34  O   UNL     1      -3.537   8.663  -0.676  0.00  0.00    -0.241 OA
ENDBRANCH  15  32
TORSDOF 4
