REMARK  Name = ZINC23653627
REMARK  3 active torsions:
REMARK  status: ('A' for Active; 'I' for Inactive)
REMARK    1  A    between atoms: C_2  and  C_3
REMARK    2  A    between atoms: C_3  and  N_4
REMARK    3  A    between atoms: C_14  and  C_16
REMARK                            x       y       z     vdW  Elec       q    Type
REMARK                         _______ _______ _______ _____ _____    ______ ____
ROOT
ATOM      1  N   UNL     1      -0.995  -0.995  -0.053  0.00  0.00    -0.246 N 
ATOM      2  C   UNL     1      -2.337  -0.631  -0.025  0.00  0.00    +0.168 A 
ATOM      3  N   UNL     1      -3.396  -1.389   0.169  0.00  0.00    -0.229 NA
ATOM      4  C   UNL     1      -4.631  -0.895   0.169  0.00  0.00    +0.054 A 
ATOM      5  C   UNL     1      -4.737   0.442  -0.044  0.00  0.00    +0.014 A 
ATOM      6  S   UNL     1      -3.047   0.941  -0.237  0.00  0.00    -0.057 S 
ATOM      7  C   UNL     1      -5.980   1.264  -0.100  0.00  0.00    +0.044 C 
ATOM      8  C   UNL     1      -7.180   0.313  -0.238  0.00  0.00    +0.006 C 
ATOM      9  C   UNL     1      -7.035  -0.815   0.786  0.00  0.00    +0.006 C 
ATOM     10  C   UNL     1      -5.881  -1.739   0.392  0.00  0.00    +0.056 C 
ATOM     11  C   UNL     1      -0.646  -2.292   0.051  0.00  0.00    +0.228 C 
ATOM     12  O   UNL     1       0.523  -2.601   0.138  0.00  0.00    -0.275 OA
ENDROOT
BRANCH  11  13
ATOM     13  C   UNL     1      -1.710  -3.360   0.059  0.00  0.00    +0.048 C 
ATOM     14  C   UNL     1      -2.639  -3.163  -1.140  0.00  0.00    +0.019 C 
ATOM     15  C   UNL     1      -3.719  -4.247  -1.132  0.00  0.00    -0.009 C 
ATOM     16  C   UNL     1      -3.059  -5.625  -1.220  0.00  0.00    +0.007 C 
ATOM     17  C   UNL     1      -2.129  -5.822  -0.021  0.00  0.00    -0.009 C 
ATOM     18  C   UNL     1      -1.050  -4.738  -0.029  0.00  0.00    +0.019 C 
ATOM     19  C   UNL     1      -2.939  -5.726   1.274  0.00  0.00    +0.007 C 
ATOM     20  C   UNL     1      -3.599  -4.348   1.361  0.00  0.00    -0.009 C 
ATOM     21  C   UNL     1      -4.529  -4.151   0.162  0.00  0.00    +0.007 C 
ATOM     22  C   UNL     1      -2.519  -3.264   1.353  0.00  0.00    +0.019 C 
ENDBRANCH  11  13
BRANCH   1  23
ATOM     23  C   UNL     1       0.039   0.033  -0.195  0.00  0.00    +0.142 C 
BRANCH  23  25
ATOM     24  C   UNL     1       1.793   0.414   1.461  0.00  0.00    +0.005 C 
ATOM     25  C   UNL     1       0.516   0.457   1.170  0.00  0.00    -0.015 C 
ENDBRANCH  23  25
ENDBRANCH   1  23
TORSDOF 3
