REMARK  Name = ZINC09543230
REMARK  6 active torsions:
REMARK  status: ('A' for Active; 'I' for Inactive)
REMARK    1  A    between atoms: C_1  and  C_2
REMARK    2  A    between atoms: C_5  and  C_8
REMARK    3  A    between atoms: C_10  and  C_23
REMARK    4  A    between atoms: C_12  and  C_15
REMARK    5  A    between atoms: C_20  and  O_21
REMARK    6  A    between atoms: C_28  and  C_29
REMARK                            x       y       z     vdW  Elec       q    Type
REMARK                         _______ _______ _______ _____ _____    ______ ____
ROOT
ATOM      1  C   UNL     1       0.881   6.865   1.658  0.00  0.00    +0.040 C 
ATOM      2  N   UNL     1       0.946   5.874   0.851  0.00  0.00    -0.299 NA
ATOM      3  C   UNL     1      -0.177   5.390   0.058  0.00  0.00    +0.081 C 
ATOM      4  C   UNL     1      -1.386   7.348   0.781  0.00  0.00    -0.028 C 
ATOM      5  C   UNL     1      -0.379   7.651   1.894  0.00  0.00    +0.044 C 
ATOM      6  N   UNL     1      -1.451   5.885   0.602  0.00  0.00    +0.401 N 
ATOM      7  H   UNL     1      -1.631   5.438   1.509  0.00  0.00    -0.081 HD
ATOM      8  H   UNL     1      -2.211   5.655  -0.049  0.00  0.00    -0.081 HD
ENDROOT
BRANCH   1  13
ATOM      9  C   UNL     1       5.637   8.390   4.512  0.00  0.00    +0.044 C 
ATOM     10  C   UNL     1       4.391   7.991   3.765  0.00  0.00    -0.050 A 
ATOM     11  C   UNL     1       4.459   7.018   2.783  0.00  0.00    +0.004 A 
ATOM     12  C   UNL     1       3.323   6.647   2.095  0.00  0.00    +0.010 A 
ATOM     13  C   UNL     1       2.102   7.256   2.391  0.00  0.00    -0.004 A 
ATOM     14  C   UNL     1       2.041   8.241   3.379  0.00  0.00    +0.010 A 
ATOM     15  C   UNL     1       3.185   8.599   4.062  0.00  0.00    +0.004 A 
ENDBRANCH   1  13
BRANCH   4  16
ATOM     16  C   UNL     1      -2.745   7.871   1.169  0.00  0.00    -0.018 A 
ATOM     17  C   UNL     1      -3.665   7.030   1.766  0.00  0.00    +0.020 A 
ATOM     18  C   UNL     1      -4.911   7.511   2.126  0.00  0.00    +0.018 A 
ATOM     19  C   UNL     1      -5.242   8.832   1.880  0.00  0.00    +0.019 A 
ATOM     20  C   UNL     1      -4.328   9.674   1.279  0.00  0.00    +0.047 A 
ATOM     21  C   UNL     1      -3.076   9.195   0.921  0.00  0.00    +0.119 A 
ATOM     22 BR   UNL     1      -6.165   6.360   2.950  0.00  0.00    -0.050 Br
BRANCH  21  23
ATOM     23  O   UNL     1      -2.175  10.023   0.329  0.00  0.00    -0.507 OA
ATOM     24  H   UNL     1      -2.228  10.035  -0.636  0.00  0.00    +0.292 HD
ENDBRANCH  21  23
ENDBRANCH   4  16
BRANCH   3  25
ATOM     25  C   UNL     1      -0.186   3.883   0.078  0.00  0.00    -0.038 A 
ATOM     26  C   UNL     1      -0.962   3.208   1.001  0.00  0.00    +0.004 A 
ATOM     27  C   UNL     1      -0.972   1.826   1.017  0.00  0.00    +0.000 A 
ATOM     28  C   UNL     1      -0.199   1.119   0.115  0.00  0.00    +0.000 A 
ATOM     29  C   UNL     1       0.576   1.794  -0.809  0.00  0.00    +0.003 A 
ATOM     30  C   UNL     1       0.583   3.176  -0.828  0.00  0.00    -0.047 A 
ATOM     31  C   UNL     1       1.429   3.912  -1.834  0.00  0.00    +0.044 C 
ENDBRANCH   3  25
TORSDOF 4
