REMARK  Name = ZINC58321388
REMARK  9 active torsions:
REMARK  status: ('A' for Active; 'I' for Inactive)
REMARK    1  A    between atoms: C_1  and  C_2
REMARK    2  A    between atoms: C_5  and  N_8
REMARK    3  A    between atoms: C_9  and  C_34
REMARK    4  A    between atoms: C_11  and  C_14
REMARK    5  A    between atoms: C_12  and  C_13
REMARK    6  A    between atoms: C_14  and  C_16
REMARK    7  A    between atoms: C_16  and  N_17
REMARK    8  A    between atoms: C_20  and  C_24
REMARK    9  A    between atoms: C_20  and  C_25
REMARK                            x       y       z     vdW  Elec       q    Type
REMARK                         _______ _______ _______ _____ _____    ______ ____
ROOT
ATOM      1  N   UNL     1       1.977  -9.808   0.809  0.00  0.00    -0.216 N 
ATOM      2  C   UNL     1       2.959 -10.305   0.031  0.00  0.00    +0.254 C 
ATOM      3  O   UNL     1       3.188 -10.026  -1.126  0.00  0.00    -0.272 OA
ATOM      4  C   UNL     1       3.717 -11.285   0.904  0.00  0.00    +0.168 C 
ATOM      5  N   UNL     1       3.008 -11.221   2.194  0.00  0.00    -0.279 N 
ATOM      6  C   UNL     1       2.013 -10.329   2.041  0.00  0.00    +0.310 C 
ATOM      7  O   UNL     1       1.230 -10.032   2.923  0.00  0.00    -0.252 OA
ATOM      8  C   UNL     1       5.173 -10.845   1.068  0.00  0.00    +0.050 C 
ATOM      9  H   UNL     1       3.220 -11.721   2.998  0.00  0.00    +0.152 HD
ENDROOT
BRANCH   4  10
ATOM     10  C   UNL     1       3.644 -12.676   0.328  0.00  0.00    +0.138 A 
ATOM     11  C   UNL     1       3.670 -13.806   1.047  0.00  0.00    +0.056 A 
ATOM     12  C   UNL     1       3.574 -14.908   0.081  0.00  0.00    +0.020 A 
ATOM     13  C   UNL     1       3.550 -16.297   0.186  0.00  0.00    +0.011 A 
ATOM     14  C   UNL     1       3.450 -17.061  -0.944  0.00  0.00    +0.001 A 
ATOM     15  C   UNL     1       3.374 -16.462  -2.192  0.00  0.00    +0.004 A 
ATOM     16  C   UNL     1       3.396 -15.089  -2.316  0.00  0.00    +0.047 A 
ATOM     17  C   UNL     1       3.496 -14.294  -1.181  0.00  0.00    +0.135 A 
ATOM     18  O   UNL     1       3.536 -12.962  -0.981  0.00  0.00    -0.457 OA
ENDBRANCH   4  10
BRANCH   1  19
ATOM     19  C   UNL     1       0.996  -8.816   0.363  0.00  0.00    +0.197 C 
BRANCH  19  20
ATOM     20  C   UNL     1       1.528  -7.431   0.627  0.00  0.00    +0.183 C 
ATOM     21  O   UNL     1       2.619  -7.286   1.139  0.00  0.00    -0.290 OA
BRANCH  20  25
ATOM     22  N   UNL     1       0.057  -4.172  -0.021  0.00  0.00    -0.317 N 
ATOM     23  C   UNL     1      -0.950  -4.963  -0.500  0.00  0.00    +0.022 A 
ATOM     24  C   UNL     1      -0.605  -6.253  -0.354  0.00  0.00    +0.034 A 
ATOM     25  C   UNL     1       0.727  -6.258   0.268  0.00  0.00    +0.040 A 
ATOM     26  C   UNL     1       1.072  -4.931   0.437  0.00  0.00    +0.031 A 
ATOM     27  C   UNL     1       2.358  -4.420   1.034  0.00  0.00    +0.064 C 
ATOM     28  C   UNL     1      -2.242  -4.467  -1.096  0.00  0.00    +0.064 C 
BRANCH  22  33
ATOM     29  C   UNL     1      -0.018   1.503   0.010  0.00  0.00    +0.044 C 
ATOM     30  C   UNL     1       0.002  -0.004   0.002  0.00  0.00    -0.050 A 
ATOM     31  C   UNL     1       0.006  -0.688  -1.200  0.00  0.00    +0.005 A 
ATOM     32  C   UNL     1       0.024  -2.068  -1.211  0.00  0.00    +0.026 A 
ATOM     33  C   UNL     1       0.039  -2.771  -0.013  0.00  0.00    +0.047 A 
ATOM     34  C   UNL     1       0.036  -2.082   1.192  0.00  0.00    +0.026 A 
ATOM     35  C   UNL     1       0.023  -0.700   1.196  0.00  0.00    +0.005 A 
ENDBRANCH  22  33
ENDBRANCH  20  25
ENDBRANCH  19  20
ENDBRANCH   1  19
TORSDOF 5
