REMARK  Name = ZINC02102535
REMARK  8 active torsions:
REMARK  status: ('A' for Active; 'I' for Inactive)
REMARK    1  A    between atoms: C_1  and  C_2
REMARK    2  A    between atoms: C_8  and  C_37
REMARK    3  A    between atoms: C_9  and  O_36
REMARK    4  A    between atoms: C_19  and  C_21
REMARK    5  A    between atoms: C_21  and  N_22
REMARK    6  A    between atoms: C_25  and  C_28
REMARK    7  A    between atoms: C_25  and  O_35
REMARK    8  A    between atoms: C_28  and  C_29
REMARK                            x       y       z     vdW  Elec       q    Type
REMARK                         _______ _______ _______ _____ _____    ______ ____
ROOT
ATOM      1  C   UNL     1       0.522   1.031  -0.385  0.00  0.00    +0.008 C 
ATOM      2  C   UNL     1       0.399  -0.453  -0.027  0.00  0.00    -0.001 C 
ATOM      3  C   UNL     1       1.267  -1.264  -0.989  0.00  0.00    +0.008 C 
ATOM      4  C   UNL     1       1.062  -2.752  -0.682  0.00  0.00    +0.027 C 
ATOM      5  C   UNL     1       1.391  -2.986   0.766  0.00  0.00    -0.027 C 
ATOM      6  C   UNL     1       1.297  -2.063   1.676  0.00  0.00    -0.061 C 
ATOM      7  C   UNL     1       0.854  -0.650   1.417  0.00  0.00    +0.018 C 
ATOM      8  C   UNL     1      -0.283  -0.297   2.369  0.00  0.00    +0.132 C 
ATOM      9  C   UNL     1      -0.197  -0.800   3.769  0.00  0.00    +0.071 C 
ATOM     10  C   UNL     1       0.435  -2.179   4.002  0.00  0.00    +0.187 C 
ATOM     11  C   UNL     1       1.653  -2.414   3.104  0.00  0.00    +0.076 C 
ATOM     12  O   UNL     1       0.967  -2.088   5.353  0.00  0.00    -0.460 OA
ATOM     13  C   UNL     1       1.412  -0.824   5.525  0.00  0.00    +0.309 C 
ATOM     14  O   UNL     1       2.421  -0.475   6.076  0.00  0.00    -0.251 OA
ATOM     15  C   UNL     1       0.369   0.080   4.876  0.00  0.00    +0.090 C 
ATOM     16  C   UNL     1       2.048   0.283   1.641  0.00  0.00    +0.018 C 
ENDROOT
BRANCH   8  17
ATOM     17  O   UNL     1      -1.512  -0.806   1.812  0.00  0.00    -0.391 OA
ATOM     18  H   UNL     1      -2.293  -0.627   2.353  0.00  0.00    +0.210 HD
ENDBRANCH   8  17
BRANCH  15  19
ATOM     19  C   UNL     1       0.982   1.396   4.425  0.00  0.00    -0.064 C 
BRANCH  19  20
ATOM     20  N   UNL     1      -0.087   2.335   4.060  0.00  0.00    +0.380 N 
ATOM     21  C   UNL     1      -0.849   2.697   5.261  0.00  0.00    -0.076 C 
ATOM     22  C   UNL     1      -2.014   3.611   4.874  0.00  0.00    +0.016 C 
ATOM     23  C   UNL     1      -1.463   4.879   4.215  0.00  0.00    +0.067 C 
ATOM     24  C   UNL     1      -0.608   4.485   3.007  0.00  0.00    +0.016 C 
ATOM     25  C   UNL     1       0.504   3.539   3.463  0.00  0.00    -0.076 C 
ATOM     26  H   UNL     1      -0.703   1.897   3.391  0.00  0.00    -0.082 HD
BRANCH  23  27
ATOM     27  O   UNL     1      -0.660   5.596   5.156  0.00  0.00    -0.388 OA
ATOM     28  H   UNL     1      -0.278   6.412   4.805  0.00  0.00    +0.210 HD
ENDBRANCH  23  27
BRANCH  23  29
ATOM     29  C   UNL     1      -2.625   5.762   3.755  0.00  0.00    +0.069 C 
BRANCH  29  30
ATOM     30  C   UNL     1      -2.084   6.949   2.999  0.00  0.00    -0.045 A 
ATOM     31  C   UNL     1      -1.765   8.111   3.675  0.00  0.00    +0.004 A 
ATOM     32  C   UNL     1      -1.270   9.200   2.982  0.00  0.00    +0.000 A 
ATOM     33  C   UNL     1      -1.093   9.126   1.613  0.00  0.00    +0.000 A 
ATOM     34  C   UNL     1      -1.412   7.963   0.937  0.00  0.00    +0.000 A 
ATOM     35  C   UNL     1      -1.903   6.872   1.631  0.00  0.00    +0.004 A 
ENDBRANCH  29  30
ENDBRANCH  23  29
ENDBRANCH  19  20
ENDBRANCH  15  19
TORSDOF 6
