REMARK  Name = ZINC35132333
REMARK  6 active torsions:
REMARK  status: ('A' for Active; 'I' for Inactive)
REMARK    1  A    between atoms: C_1  and  C_2
REMARK    2  A    between atoms: N_13  and  C_19
REMARK    3  A    between atoms: C_19  and  C_20
REMARK    4  A    between atoms: N_22  and  N_23
REMARK    5  A    between atoms: C_24  and  C_25
REMARK    6  A    between atoms: C_28  and  O_31
REMARK                            x       y       z     vdW  Elec       q    Type
REMARK                         _______ _______ _______ _____ _____    ______ ____
ROOT
ATOM      1  C   UNL     1       1.032   1.358  -0.484  0.00  0.00    +0.044 C 
ATOM      2  C   UNL     1       0.906  -0.144  -0.507  0.00  0.00    -0.050 A 
ATOM      3  C   UNL     1       0.317  -0.751  -1.605  0.00  0.00    +0.005 A 
ATOM      4  C   UNL     1       0.167  -2.123  -1.696  0.00  0.00    +0.026 A 
ATOM      5  C   UNL     1       0.635  -2.887  -0.629  0.00  0.00    +0.049 A 
ATOM      6  C   UNL     1       1.242  -2.258   0.499  0.00  0.00    +0.003 A 
ATOM      7  C   UNL     1       1.382  -0.867   0.556  0.00  0.00    +0.013 A 
ATOM      8  C   UNL     1       1.608  -3.319   1.397  0.00  0.00    -0.020 A 
ATOM      9  C   UNL     1       1.246  -4.471   0.798  0.00  0.00    +0.009 A 
ATOM     10  N   UNL     1       0.638  -4.230  -0.403  0.00  0.00    -0.347 N 
ATOM     11  C   UNL     1       0.103  -5.334  -1.215  0.00  0.00    +0.103 C 
ATOM     12  C   UNL     1       0.708  -6.641  -0.688  0.00  0.00    -0.055 C 
ATOM     13  N   UNL     1       0.552  -6.753   0.768  0.00  0.00    +0.392 N 
ATOM     14  C   UNL     1       1.480  -5.819   1.440  0.00  0.00    -0.020 C 
ATOM     15  C   UNL     1       1.143  -5.706   2.918  0.00  0.00    -0.009 C 
ATOM     16  C   UNL     1       1.543  -4.423   3.602  0.00  0.00    +0.003 C 
ATOM     17  C   UNL     1       2.251  -3.377   2.755  0.00  0.00    +0.037 C 
ATOM     18  H   UNL     1      -0.397  -6.524   1.023  0.00  0.00    -0.080 HD
ENDROOT
BRANCH  13  19
ATOM     19  C   UNL     1       0.853  -8.127   1.189  0.00  0.00    +0.021 C 
BRANCH  19  20
ATOM     20  C   UNL     1      -0.171  -9.066   0.605  0.00  0.00    +0.216 C 
ATOM     21  O   UNL     1      -1.064  -8.633  -0.092  0.00  0.00    -0.276 OA
ATOM     22  N   UNL     1      -0.095 -10.388   0.858  0.00  0.00    -0.209 N 
ATOM     23  H   UNL     1       0.619 -10.735   1.416  0.00  0.00    +0.177 HD
BRANCH  22  24
ATOM     24  N   UNL     1      -1.047 -11.261   0.316  0.00  0.00    -0.188 NA
ATOM     25  C   UNL     1      -1.046 -12.514   0.653  0.00  0.00    +0.138 C 
BRANCH  25  26
ATOM     26  C   UNL     1      -0.402 -12.938   1.911  0.00  0.00    -0.005 A 
ATOM     27  C   UNL     1      -0.142 -14.291   2.143  0.00  0.00    +0.013 A 
ATOM     28  C   UNL     1       0.460 -14.683   3.319  0.00  0.00    +0.046 A 
ATOM     29  C   UNL     1       0.808 -13.735   4.273  0.00  0.00    +0.117 A 
ATOM     30  C   UNL     1       0.551 -12.389   4.046  0.00  0.00    +0.046 A 
ATOM     31  C   UNL     1      -0.046 -11.987   2.871  0.00  0.00    +0.013 A 
BRANCH  29  32
ATOM     32  O   UNL     1       1.401 -14.125   5.431  0.00  0.00    -0.507 OA
ATOM     33  H   UNL     1       2.367 -14.150   5.389  0.00  0.00    +0.292 HD
ENDBRANCH  29  32
ENDBRANCH  25  26
ENDBRANCH  22  24
ENDBRANCH  19  20
ENDBRANCH  13  19
TORSDOF 5
