REMARK  Name = ZINC04140468
REMARK  6 active torsions:
REMARK  status: ('A' for Active; 'I' for Inactive)
REMARK    1  A    between atoms: C_1  and  C_2
REMARK    2  A    between atoms: C_5  and  C_29
REMARK    3  A    between atoms: C_15  and  C_18
REMARK    4  A    between atoms: C_21  and  O_27
REMARK    5  A    between atoms: C_22  and  N_24
REMARK    6  A    between atoms: O_27  and  C_28
REMARK                            x       y       z     vdW  Elec       q    Type
REMARK                         _______ _______ _______ _____ _____    ______ ____
ROOT
ATOM      1  C   UNL     1      -0.416   2.312   1.140  0.00  0.00    +0.044 C 
ATOM      2  C   UNL     1      -0.332   0.864   0.730  0.00  0.00    -0.045 A 
ATOM      3  C   UNL     1      -0.482   0.515  -0.600  0.00  0.00    +0.004 A 
ATOM      4  C   UNL     1      -0.407  -0.812  -0.979  0.00  0.00    +0.005 A 
ATOM      5  C   UNL     1      -0.189  -1.792  -0.032  0.00  0.00    -0.029 A 
ATOM      6  C   UNL     1      -0.040  -1.453   1.307  0.00  0.00    +0.035 A 
ATOM      7  C   UNL     1      -0.100  -0.105   1.681  0.00  0.00    -0.016 A 
ATOM      8  C   UNL     1       0.110   0.216   3.109  0.00  0.00    +0.049 C 
ATOM      9  C   UNL     1      -0.481   1.427   3.736  0.00  0.00    -0.023 C 
ATOM     10  C   UNL     1      -0.736   1.163   5.012  0.00  0.00    -0.030 C 
ATOM     11  C   UNL     1      -0.358  -0.285   5.331  0.00  0.00    +0.033 C 
ATOM     12  C   UNL     1      -0.511  -0.936   3.954  0.00  0.00    +0.029 C 
ATOM     13  C   UNL     1       0.360  -2.151   3.683  0.00  0.00    +0.105 C 
ATOM     14  N   UNL     1       0.159  -2.467   2.252  0.00  0.00    -0.336 N 
ATOM     15  C   UNL     1      -0.113  -3.237  -0.453  0.00  0.00    +0.045 C 
ATOM     16  H   UNL     1       0.176  -3.392   1.962  0.00  0.00    +0.147 HD
ENDROOT
BRANCH  13  17
ATOM     17  C   UNL     1       1.805  -1.827   3.961  0.00  0.00    -0.025 A 
ATOM     18  C   UNL     1       2.324  -2.018   5.229  0.00  0.00    +0.009 A 
ATOM     19  C   UNL     1       3.648  -1.723   5.486  0.00  0.00    +0.048 A 
ATOM     20  C   UNL     1       4.459  -1.234   4.471  0.00  0.00    +0.150 A 
ATOM     21  C   UNL     1       3.936  -1.044   3.200  0.00  0.00    +0.168 A 
ATOM     22  C   UNL     1       2.612  -1.346   2.947  0.00  0.00    +0.042 A 
BRANCH  21  23
ATOM     23  N   UNL     1       4.798  -0.523   2.116  0.00  0.00    +0.060 N 
ATOM     24  O   UNL     1       4.342  -0.357   1.008  0.00  0.00    -0.126 OA
ATOM     25  O   UNL     1       5.957  -0.263   2.337  0.00  0.00    -0.126 OA
ENDBRANCH  21  23
BRANCH  20  26
ATOM     26  O   UNL     1       5.762  -0.942   4.722  0.00  0.00    -0.493 OA
ATOM     27  C   UNL     1       6.232  -1.162   6.053  0.00  0.00    +0.277 C 
ENDBRANCH  20  26
ENDBRANCH  13  17
TORSDOF 3
