REMARK  Name = ZINC26841146
REMARK  2 active torsions:
REMARK  status: ('A' for Active; 'I' for Inactive)
REMARK    1  A    between atoms: C_4  and  C_7
REMARK    2  A    between atoms: C_16  and  C_18
REMARK                            x       y       z     vdW  Elec       q    Type
REMARK                         _______ _______ _______ _____ _____    ______ ____
ROOT
ATOM      1  C   UNL     1       3.699  -0.689  -0.037  0.00  0.00    +0.099 A 
ATOM      2  C   UNL     1       3.978  -1.905   0.596  0.00  0.00    +0.035 A 
ATOM      3  C   UNL     1       5.300  -2.186   0.306  0.00  0.00    +0.127 A 
ATOM      4  N   UNL     1       5.746  -1.153  -0.469  0.00  0.00    -0.272 N 
ATOM      5  H   UNL     1       6.644  -1.074  -0.829  0.00  0.00    +0.189 HD
ATOM      6  N   UNL     1       4.798  -0.305  -0.656  0.00  0.00    -0.173 NA
ATOM      7  C   UNL     1       5.657  -3.457   0.944  0.00  0.00    +0.271 C 
ATOM      8  O   UNL     1       6.752  -3.982   0.879  0.00  0.00    -0.268 OA
ATOM      9  N   UNL     1       4.603  -3.960   1.611  0.00  0.00    -0.239 N 
ATOM     10  C   UNL     1       3.473  -3.036   1.449  0.00  0.00    +0.148 C 
ATOM     11  C   UNL     1       4.585  -5.152   2.331  0.00  0.00    +0.129 A 
ATOM     12  C   UNL     1       5.761  -5.877   2.493  0.00  0.00    +0.044 A 
ATOM     13  C   UNL     1       5.730  -7.059   3.210  0.00  0.00    +0.005 A 
ATOM     14  C   UNL     1       4.519  -7.478   3.744  0.00  0.00    +0.020 A 
ATOM     15  C   UNL     1       3.390  -6.709   3.545  0.00  0.00    +0.113 A 
ATOM     16  N   UNL     1       3.451  -5.582   2.860  0.00  0.00    -0.240 NA
ENDROOT
BRANCH   1  20
ATOM     17  C   UNL     1      -0.017   1.379   0.010  0.00  0.00    +0.000 A 
ATOM     18  C   UNL     1       1.169   2.092   0.002  0.00  0.00    +0.001 A 
ATOM     19  C   UNL     1       2.377   1.425  -0.013  0.00  0.00    +0.010 A 
ATOM     20  C   UNL     1       2.402   0.033  -0.021  0.00  0.00    +0.002 A 
ATOM     21  C   UNL     1       1.205  -0.680  -0.013  0.00  0.00    +0.010 A 
ATOM     22  C   UNL     1       0.002  -0.004   0.002  0.00  0.00    +0.001 A 
ENDBRANCH   1  20
BRANCH  10  23
ATOM     23  C   UNL     1       2.327  -3.733   0.762  0.00  0.00    -0.022 A 
ATOM     24  C   UNL     1       2.579  -4.660  -0.232  0.00  0.00    +0.006 A 
ATOM     25  C   UNL     1       1.529  -5.300  -0.863  0.00  0.00    +0.000 A 
ATOM     26  C   UNL     1       0.226  -5.013  -0.500  0.00  0.00    +0.000 A 
ATOM     27  C   UNL     1      -0.026  -4.087   0.495  0.00  0.00    +0.000 A 
ATOM     28  C   UNL     1       1.025  -3.450   1.129  0.00  0.00    +0.006 A 
ENDBRANCH  10  23
TORSDOF 2
