REMARK  Name = ZINC20736755
REMARK  7 active torsions:
REMARK  status: ('A' for Active; 'I' for Inactive)
REMARK    1  A    between atoms: C_1  and  O_2
REMARK    2  A    between atoms: O_2  and  C_3
REMARK    3  A    between atoms: C_3  and  C_5
REMARK    4  A    between atoms: C_5  and  C_7
REMARK    5  A    between atoms: C_5  and  N_14
REMARK    6  A    between atoms: C_7  and  C_8
REMARK    7  A    between atoms: C_26  and  C_28
REMARK                            x       y       z     vdW  Elec       q    Type
REMARK                         _______ _______ _______ _____ _____    ______ ____
ROOT
ATOM      1  N   UNL     1      -2.686  -2.394   2.236  0.00  0.00    -0.286 N 
ATOM      2  C   UNL     1      -3.347  -2.712   1.105  0.00  0.00    +0.304 C 
ATOM      3  O   UNL     1      -2.814  -2.550   0.024  0.00  0.00    -0.253 OA
ATOM      4  N   UNL     1      -4.597  -3.209   1.173  0.00  0.00    -0.273 N 
ATOM      5  C   UNL     1      -5.288  -3.678  -0.038  0.00  0.00    +0.116 C 
ATOM      6  C   UNL     1      -5.541  -5.186   0.080  0.00  0.00    +0.074 C 
ATOM      7  C   UNL     1      -6.069  -5.483   1.459  0.00  0.00    +0.040 A 
ATOM      8  C   UNL     1      -5.966  -4.655   2.520  0.00  0.00    +0.062 A 
ATOM      9  N   UNL     1      -6.540  -5.248   3.569  0.00  0.00    -0.348 N 
ATOM     10  C   UNL     1      -7.001  -6.415   3.200  0.00  0.00    +0.171 A 
ATOM     11  N   UNL     1      -6.727  -6.597   1.887  0.00  0.00    -0.349 N 
ATOM     12  H   UNL     1      -6.955  -7.373   1.353  0.00  0.00    +0.166 HD
ATOM     13  C   UNL     1      -5.304  -3.303   2.463  0.00  0.00    +0.159 C 
ATOM     14  H   UNL     1      -3.138  -2.446   3.093  0.00  0.00    +0.151 HD
ATOM     15  H   UNL     1      -6.606  -4.874   4.461  0.00  0.00    +0.167 HD
ENDROOT
BRANCH  13  16
ATOM     16  C   UNL     1      -6.348  -2.221   2.556  0.00  0.00    +0.015 A 
ATOM     17  C   UNL     1      -7.599  -2.509   3.069  0.00  0.00    +0.028 A 
ATOM     18  C   UNL     1      -8.558  -1.516   3.154  0.00  0.00    +0.041 A 
ATOM     19  C   UNL     1      -8.266  -0.233   2.726  0.00  0.00    +0.023 A 
ATOM     20  C   UNL     1      -7.016   0.057   2.213  0.00  0.00    +0.040 A 
ATOM     21  C   UNL     1      -6.054  -0.936   2.132  0.00  0.00    +0.129 A 
ATOM     22  F   UNL     1      -4.830  -0.652   1.636  0.00  0.00    -0.205 F 
ATOM     23 CL   UNL     1     -10.129  -1.879   3.798  0.00  0.00    -0.084 Cl
ENDBRANCH  13  16
BRANCH   1  24
ATOM     24  C   UNL     1      -1.285  -1.970   2.171  0.00  0.00    +0.187 C 
BRANCH  24  25
ATOM     25  C   UNL     1      -0.393  -3.185   2.163  0.00  0.00    +0.328 C 
ATOM     26  O   UNL     1      -0.877  -4.291   2.207  0.00  0.00    -0.249 OA
BRANCH  25  28
ATOM     27  C   UNL     1       1.725  -4.232   2.103  0.00  0.00    +0.280 C 
ATOM     28  O   UNL     1       0.940  -3.038   2.107  0.00  0.00    -0.467 OA
ENDBRANCH  25  28
ENDBRANCH  24  25
BRANCH  24  29
ATOM     29  C   UNL     1      -0.957  -1.105   3.390  0.00  0.00    +0.069 C 
BRANCH  29  30
ATOM     30  C   UNL     1      -1.761   0.168   3.333  0.00  0.00    -0.045 A 
ATOM     31  C   UNL     1      -1.251   1.280   2.688  0.00  0.00    +0.004 A 
ATOM     32  C   UNL     1      -1.989   2.447   2.636  0.00  0.00    +0.000 A 
ATOM     33  C   UNL     1      -3.237   2.503   3.228  0.00  0.00    +0.000 A 
ATOM     34  C   UNL     1      -3.748   1.392   3.872  0.00  0.00    +0.000 A 
ATOM     35  C   UNL     1      -3.011   0.223   3.920  0.00  0.00    +0.004 A 
ENDBRANCH  29  30
ENDBRANCH  24  29
ENDBRANCH   1  24
TORSDOF 6
