REMARK  Name = ZINC39371198
REMARK  12 active torsions:
REMARK  status: ('A' for Active; 'I' for Inactive)
REMARK    1  A    between atoms: C_1  and  C_2
REMARK    2  A    between atoms: C_3  and  C_4
REMARK    3  A    between atoms: C_5  and  C_6
REMARK    4  A    between atoms: N_8  and  C_9
REMARK    5  A    between atoms: C_10  and  O_31
REMARK    6  A    between atoms: C_12  and  C_15
REMARK    7  A    between atoms: C_15  and  C_16
REMARK    8  A    between atoms: C_18  and  O_30
REMARK    9  A    between atoms: C_19  and  N_22
REMARK   10  A    between atoms: C_23  and  C_25
REMARK   11  A    between atoms: C_26  and  C_27
REMARK   12  A    between atoms: C_28  and  C_29
REMARK                            x       y       z     vdW  Elec       q    Type
REMARK                         _______ _______ _______ _____ _____    ______ ____
ROOT
ATOM      1  C   UNL     1      -9.527  -0.562   0.859  0.00  0.00    +0.070 C 
ENDROOT
BRANCH   1   5
ATOM      2  C   UNL     1      -5.799  -2.656   0.760  0.00  0.00    +0.076 A 
ATOM      3  C   UNL     1      -6.977  -3.343   1.044  0.00  0.00    +0.138 A 
ATOM      4  C   UNL     1      -8.182  -2.661   1.076  0.00  0.00    +0.051 A 
ATOM      5  C   UNL     1      -8.214  -1.302   0.825  0.00  0.00    -0.039 A 
ATOM      6  C   UNL     1      -7.046  -0.619   0.543  0.00  0.00    +0.006 A 
ATOM      7  C   UNL     1      -5.838  -1.291   0.515  0.00  0.00    +0.027 A 
BRANCH   2  10
ATOM      8  C   UNL     1      -3.452  -2.730   1.148  0.00  0.00    +0.241 C 
ATOM      9  O   UNL     1      -3.482  -1.559   1.480  0.00  0.00    -0.270 OA
ATOM     10  N   UNL     1      -4.577  -3.340   0.727  0.00  0.00    -0.279 N 
ATOM     11  H   UNL     1      -4.542  -4.253   0.402  0.00  0.00    +0.155 HD
BRANCH   8  13
ATOM     12  C   UNL     1      -1.099  -2.908   1.759  0.00  0.00    +0.005 C 
ATOM     13  C   UNL     1      -2.195  -3.474   1.206  0.00  0.00    +0.067 C 
BRANCH  12  16
ATOM     14  C   UNL     1      -0.262   0.211   3.794  0.00  0.00    +0.035 C 
ATOM     15  C   UNL     1      -0.148  -1.110   3.076  0.00  0.00    -0.030 C 
ATOM     16  C   UNL     1      -1.210  -1.626   2.456  0.00  0.00    -0.004 C 
ENDBRANCH  12  16
ENDBRANCH   8  13
ENDBRANCH   2  10
BRANCH   3  17
ATOM     17  O   UNL     1      -6.944  -4.680   1.290  0.00  0.00    -0.505 OA
ATOM     18  H   UNL     1      -6.821  -4.906   2.223  0.00  0.00    +0.292 HD
ENDBRANCH   3  17
ENDBRANCH   1   5
BRANCH   1  19
ATOM     19  C   UNL     1      -9.782  -0.056   2.255  0.00  0.00    -0.039 A 
ATOM     20  C   UNL     1     -10.463  -0.848   3.162  0.00  0.00    +0.051 A 
ATOM     21  C   UNL     1     -10.698  -0.385   4.446  0.00  0.00    +0.138 A 
ATOM     22  C   UNL     1     -10.248   0.879   4.821  0.00  0.00    +0.076 A 
ATOM     23  C   UNL     1      -9.566   1.668   3.906  0.00  0.00    +0.027 A 
ATOM     24  C   UNL     1      -9.331   1.196   2.628  0.00  0.00    +0.006 A 
BRANCH  22  25
ATOM     25  N   UNL     1     -10.484   1.353   6.117  0.00  0.00    -0.279 N 
ATOM     26  C   UNL     1      -9.663   2.276   6.657  0.00  0.00    +0.241 C 
ATOM     27  O   UNL     1      -8.759   2.749   5.994  0.00  0.00    -0.270 OA
ATOM     28  H   UNL     1     -11.238   1.017   6.627  0.00  0.00    +0.155 HD
BRANCH  26  29
ATOM     29  C   UNL     1      -9.859   2.708   8.040  0.00  0.00    +0.067 C 
ATOM     30  C   UNL     1      -9.130   3.732   8.538  0.00  0.00    +0.005 C 
BRANCH  30  31
ATOM     31  C   UNL     1      -8.289   4.532   7.647  0.00  0.00    -0.004 C 
ATOM     32  C   UNL     1      -7.484   5.469   8.152  0.00  0.00    -0.030 C 
ATOM     33  C   UNL     1      -6.618   6.293   7.234  0.00  0.00    +0.035 C 
ENDBRANCH  30  31
ENDBRANCH  26  29
ENDBRANCH  22  25
BRANCH  21  34
ATOM     34  O   UNL     1     -11.367  -1.163   5.339  0.00  0.00    -0.505 OA
ATOM     35  H   UNL     1     -10.796  -1.739   5.864  0.00  0.00    +0.292 HD
ENDBRANCH  21  34
ENDBRANCH   1  19
TORSDOF 10
