REMARK  Name = ZINC38598545
REMARK  7 active torsions:
REMARK  status: ('A' for Active; 'I' for Inactive)
REMARK    1  A    between atoms: C_1  and  C_2
REMARK    2  A    between atoms: C_5  and  S_9
REMARK    3  A    between atoms: C_7  and  C_8
REMARK    4  A    between atoms: S_9  and  C_12
REMARK    5  A    between atoms: N_24  and  N_28
REMARK    6  A    between atoms: C_25  and  N_27
REMARK    7  A    between atoms: C_29  and  C_30
REMARK                            x       y       z     vdW  Elec       q    Type
REMARK                         _______ _______ _______ _____ _____    ______ ____
ROOT
ATOM      1  C   UNL     1       1.518  -5.156  -0.164  0.00  0.00    +0.224 C 
ATOM      2  C   UNL     1       2.235  -4.326   0.879  0.00  0.00    +0.111 A 
ATOM      3  C   UNL     1       2.898  -5.200   1.756  0.00  0.00    +0.166 A 
ATOM      4  N   UNL     1       3.604  -4.705   2.765  0.00  0.00    -0.227 NA
ATOM      5  C   UNL     1       3.682  -3.384   2.945  0.00  0.00    +0.091 A 
ATOM      6  C   UNL     1       4.425  -2.839   4.008  0.00  0.00    +0.030 A 
ATOM      7  C   UNL     1       4.487  -1.488   4.166  0.00  0.00    +0.002 A 
ATOM      8  C   UNL     1       3.823  -0.633   3.289  0.00  0.00    +0.002 A 
ATOM      9  C   UNL     1       3.094  -1.124   2.249  0.00  0.00    +0.030 A 
ATOM     10  C   UNL     1       3.008  -2.512   2.054  0.00  0.00    +0.090 A 
ATOM     11  N   UNL     1       2.299  -3.025   1.041  0.00  0.00    -0.245 NA
ATOM     12  N   UNL     1       2.695  -6.525   1.401  0.00  0.00    -0.186 N 
ATOM     13  C   UNL     1       1.844  -6.611   0.208  0.00  0.00    +0.195 C 
ENDROOT
BRANCH   1  14
ATOM     14  S   UNL     1      -0.271  -4.867  -0.084  0.00  0.00    +0.008 S 
ATOM     15  O   UNL     1      -0.725  -4.981   1.258  0.00  0.00    -0.169 OA
ATOM     16  O   UNL     1      -0.927  -5.565  -1.133  0.00  0.00    -0.169 OA
BRANCH  14  21
ATOM     17  C   UNL     1      -0.966   0.969  -1.451  0.00  0.00    +0.044 C 
ATOM     18  C   UNL     1      -0.792  -0.489  -1.109  0.00  0.00    -0.047 A 
ATOM     19  C   UNL     1      -0.809  -1.440  -2.112  0.00  0.00    +0.005 A 
ATOM     20  C   UNL     1      -0.649  -2.777  -1.799  0.00  0.00    +0.027 A 
ATOM     21  C   UNL     1      -0.473  -3.163  -0.483  0.00  0.00    +0.089 A 
ATOM     22  C   UNL     1      -0.455  -2.211   0.519  0.00  0.00    +0.030 A 
ATOM     23  C   UNL     1      -0.610  -0.874   0.205  0.00  0.00    -0.046 A 
ATOM     24  C   UNL     1      -0.585   0.164   1.298  0.00  0.00    +0.044 C 
ENDBRANCH  14  21
ENDBRANCH   1  14
BRANCH  13  25
ATOM     25  N   UNL     1       0.610  -7.346   0.515  0.00  0.00    -0.309 NA
ATOM     26  H   UNL     1       0.796  -8.330   0.640  0.00  0.00    +0.120 HD
ATOM     27  H   UNL     1       0.151  -6.959   1.326  0.00  0.00    +0.120 HD
ENDBRANCH  13  25
BRANCH  12  28
ATOM     28  N   UNL     1       3.186  -7.539   2.030  0.00  0.00    -0.185 NA
ATOM     29  C   UNL     1       3.024  -8.749   1.550  0.00  0.00    +0.136 C 
BRANCH  29  30
ATOM     30  C   UNL     1       3.449  -9.857   2.289  0.00  0.00    +0.000 C 
ATOM     31  C   UNL     1       3.358 -11.201   1.924  0.00  0.00    +0.004 A 
ATOM     32  C   UNL     1       2.847 -11.845   0.777  0.00  0.00    +0.010 A 
ATOM     33  C   UNL     1       2.890 -13.199   0.689  0.00  0.00    +0.001 A 
ATOM     34  C   UNL     1       3.431 -13.982   1.712  0.00  0.00    +0.002 A 
ATOM     35  C   UNL     1       3.939 -13.431   2.841  0.00  0.00    +0.026 A 
ATOM     36  C   UNL     1       3.929 -12.021   3.005  0.00  0.00    +0.043 A 
ATOM     37  N   UNL     1       4.354 -11.255   3.989  0.00  0.00    -0.380 N 
ATOM     38  C   UNL     1       4.110  -9.850   3.650  0.00  0.00    +0.150 C 
ATOM     39  H   UNL     1       4.768 -11.570   4.808  0.00  0.00    +0.160 HD
ENDBRANCH  29  30
ENDBRANCH  12  28
TORSDOF 5
