REMARK  Name = ZINC66988900
REMARK  8 active torsions:
REMARK  status: ('A' for Active; 'I' for Inactive)
REMARK    1  A    between atoms: C_1  and  N_2
REMARK    2  A    between atoms: N_2  and  S_3
REMARK    3  A    between atoms: S_3  and  C_6
REMARK    4  A    between atoms: C_10  and  C_12
REMARK    5  A    between atoms: C_12  and  N_13
REMARK    6  A    between atoms: N_13  and  C_14
REMARK    7  A    between atoms: C_14  and  C_15
REMARK    8  A    between atoms: C_18  and  C_20
REMARK                            x       y       z     vdW  Elec       q    Type
REMARK                         _______ _______ _______ _____ _____    ______ ____
ROOT
ATOM      1  N   UNL     1      -1.304  -1.340  -5.786  0.00  0.00    +0.386 N 
ATOM      2  H   UNL     1      -1.522  -0.400  -6.083  0.00  0.00    -0.085 HD
ATOM      3  H   UNL     1      -0.476  -1.327  -5.210  0.00  0.00    -0.085 HD
ENDROOT
BRANCH   1   4
ATOM      4  C   UNL     1      -2.430  -1.882  -5.013  0.00  0.00    -0.046 C 
BRANCH   4   9
ATOM      5  C   UNL     1      -2.247  -0.499  -1.505  0.00  0.00    +0.105 A 
ATOM      6  C   UNL     1      -3.117   0.573  -1.585  0.00  0.00    +0.028 A 
ATOM      7  C   UNL     1      -3.765   0.849  -2.774  0.00  0.00    +0.002 A 
ATOM      8  C   UNL     1      -3.543   0.055  -3.883  0.00  0.00    +0.002 A 
ATOM      9  C   UNL     1      -2.672  -1.016  -3.804  0.00  0.00    -0.063 A 
ATOM     10  C   UNL     1      -2.021  -1.290  -2.615  0.00  0.00    +0.030 A 
BRANCH   5  11
ATOM     11  S   UNL     1      -1.421  -0.852   0.011  0.00  0.00    +0.058 S 
ATOM     12  O   UNL     1      -1.073  -2.229  -0.027  0.00  0.00    -0.153 OA
ATOM     13  O   UNL     1      -2.218  -0.295   1.047  0.00  0.00    -0.153 OA
BRANCH  11  15
ATOM     14  C   UNL     1      -0.018   1.461   0.010  0.00  0.00    +0.127 C 
ATOM     15  N   UNL     1       0.002  -0.004   0.002  0.00  0.00    -0.193 NA
ATOM     16  H   UNL     1       0.849  -0.478  -0.009  0.00  0.00    +0.148 HD
ENDBRANCH  11  15
ENDBRANCH   5  11
ENDBRANCH   4   9
ENDBRANCH   1   4
BRANCH   1  17
ATOM     17  C   UNL     1      -1.069  -2.184  -6.965  0.00  0.00    -0.006 C 
BRANCH  17  18
ATOM     18  C   UNL     1       0.086  -1.628  -7.758  0.00  0.00    +0.089 A 
ATOM     19  C   UNL     1       1.382  -1.958  -7.595  0.00  0.00    +0.043 A 
ATOM     20  C   UNL     1       2.120  -1.211  -8.535  0.00  0.00    +0.050 A 
ATOM     21  C   UNL     1       1.224  -0.458  -9.226  0.00  0.00    +0.135 A 
ATOM     22  O   UNL     1      -0.006  -0.726  -8.748  0.00  0.00    -0.462 OA
BRANCH  21  23
ATOM     23  C   UNL     1       1.544   0.486 -10.318  0.00  0.00    +0.017 A 
ATOM     24  C   UNL     1       2.867   0.663 -10.726  0.00  0.00    +0.014 A 
ATOM     25  C   UNL     1       3.160   1.545 -11.745  0.00  0.00    +0.039 A 
ATOM     26  C   UNL     1       2.143   2.256 -12.363  0.00  0.00    +0.123 A 
ATOM     27  C   UNL     1       0.828   2.084 -11.961  0.00  0.00    +0.039 A 
ATOM     28  C   UNL     1       0.523   1.200 -10.948  0.00  0.00    +0.014 A 
ATOM     29  F   UNL     1       2.436   3.119 -13.360  0.00  0.00    -0.205 F 
ENDBRANCH  21  23
ENDBRANCH  17  18
ENDBRANCH   1  17
TORSDOF 7
