REMARK  Name = ZINC01641999
REMARK  7 active torsions:
REMARK  status: ('A' for Active; 'I' for Inactive)
REMARK    1  A    between atoms: C_1  and  C_2
REMARK    2  A    between atoms: C_2  and  C_3
REMARK    3  A    between atoms: C_5  and  C_23
REMARK    4  A    between atoms: C_14  and  N_56
REMARK    5  A    between atoms: C_27  and  O_30
REMARK    6  A    between atoms: C_28  and  O_29
REMARK    7  A    between atoms: O_30  and  C_31
REMARK                            x       y       z     vdW  Elec       q    Type
REMARK                         _______ _______ _______ _____ _____    ______ ____
ROOT
ATOM      1  C   UNL     1      -3.819   1.766  -0.158  0.00  0.00    +0.024 C 
ATOM      2  C   UNL     1      -2.568   0.928   0.118  0.00  0.00    +0.061 C 
ATOM      3  C   UNL     1      -1.335   1.766  -0.108  0.00  0.00    +0.006 A 
ATOM      4  C   UNL     1      -0.118   1.124  -0.282  0.00  0.00    +0.057 A 
ATOM      5  C   UNL     1       1.036   1.858  -0.491  0.00  0.00    +0.167 A 
ATOM      6  C   UNL     1       0.976   3.249  -0.520  0.00  0.00    +0.170 A 
ATOM      7  C   UNL     1      -0.238   3.888  -0.342  0.00  0.00    +0.095 A 
ATOM      8  C   UNL     1      -1.397   3.147  -0.136  0.00  0.00    +0.126 A 
ATOM      9  O   UNL     1      -2.571   3.814   0.024  0.00  0.00    -0.506 OA
ATOM     10  C   UNL     1      -3.675   3.103   0.580  0.00  0.00    +0.128 C 
ATOM     11  O   UNL     1       2.233   3.736  -0.737  0.00  0.00    -0.452 OA
ATOM     12  C   UNL     1       2.993   2.624  -1.248  0.00  0.00    +0.466 C 
ATOM     13  O   UNL     1       2.331   1.473  -0.691  0.00  0.00    -0.453 OA
ENDROOT
BRANCH  10  18
ATOM     14  C   UNL     1      -4.829   5.157   1.195  0.00  0.00    -0.074 C 
ATOM     15  C   UNL     1      -5.901   6.049   0.519  0.00  0.00    -0.020 C 
ATOM     16  C   UNL     1      -5.765   5.680  -0.976  0.00  0.00    -0.020 C 
ATOM     17  C   UNL     1      -5.101   4.290  -0.988  0.00  0.00    -0.074 C 
ATOM     18  N   UNL     1      -4.919   3.913   0.414  0.00  0.00    +0.404 N 
ATOM     19  H   UNL     1      -5.724   3.361   0.732  0.00  0.00    -0.076 HD
ENDBRANCH  10  18
BRANCH   2  20
ATOM     20  C   UNL     1      -2.545  -0.259  -0.810  0.00  0.00    +0.006 A 
ATOM     21  C   UNL     1      -2.524  -0.067  -2.179  0.00  0.00    +0.008 A 
ATOM     22  C   UNL     1      -2.498  -1.153  -3.033  0.00  0.00    +0.004 A 
ATOM     23  C   UNL     1      -2.503  -2.438  -2.521  0.00  0.00    +0.049 A 
ATOM     24  C   UNL     1      -2.530  -2.638  -1.151  0.00  0.00    +0.162 A 
ATOM     25  C   UNL     1      -2.551  -1.544  -0.291  0.00  0.00    +0.162 A 
BRANCH  25  26
ATOM     26  O   UNL     1      -2.578  -1.735   1.055  0.00  0.00    -0.503 OA
ATOM     27  H   UNL     1      -3.468  -1.794   1.426  0.00  0.00    +0.292 HD
ENDBRANCH  25  26
BRANCH  24  28
ATOM     28  O   UNL     1      -2.536  -3.901  -0.647  0.00  0.00    -0.491 OA
ATOM     29  C   UNL     1      -2.513  -4.976  -1.588  0.00  0.00    +0.277 C 
ENDBRANCH  24  28
ENDBRANCH   2  20
BRANCH   1  31
ATOM     30  C   UNL     1      -4.978   0.885   1.873  0.00  0.00    +0.004 C 
ATOM     31  C   UNL     1      -5.058   1.027   0.351  0.00  0.00    +0.002 C 
ENDBRANCH   1  31
TORSDOF 5
