REMARK  Name = ZINC40069171
REMARK  7 active torsions:
REMARK  status: ('A' for Active; 'I' for Inactive)
REMARK    1  A    between atoms: C_1  and  C_2
REMARK    2  A    between atoms: C_2  and  C_4
REMARK    3  A    between atoms: C_2  and  N_11
REMARK    4  A    between atoms: C_12  and  C_14
REMARK    5  A    between atoms: C_14  and  C_15
REMARK    6  A    between atoms: C_15  and  C_17
REMARK    7  A    between atoms: C_15  and  N_24
REMARK                            x       y       z     vdW  Elec       q    Type
REMARK                         _______ _______ _______ _____ _____    ______ ____
ROOT
ATOM      1  C   UNL     1      -3.949  -1.246   2.624  0.00  0.00    +0.113 C 
ENDROOT
BRANCH   1   2
ATOM      2  C   UNL     1      -5.366  -1.738   2.472  0.00  0.00    -0.027 A 
ATOM      3  C   UNL     1      -5.607  -3.053   2.123  0.00  0.00    +0.006 A 
ATOM      4  C   UNL     1      -6.906  -3.505   1.983  0.00  0.00    +0.015 A 
ATOM      5  C   UNL     1      -7.965  -2.639   2.193  0.00  0.00    +0.018 A 
ATOM      6  C   UNL     1      -7.723  -1.323   2.543  0.00  0.00    +0.015 A 
ATOM      7  C   UNL     1      -6.423  -0.874   2.687  0.00  0.00    +0.006 A 
ATOM      8 BR   UNL     1      -9.742  -3.256   2.002  0.00  0.00    -0.050 Br
ENDBRANCH   1   2
BRANCH   1   9
ATOM      9  N   UNL     1      -3.176  -2.217   3.403  0.00  0.00    -0.292 N 
ATOM     10  C   UNL     1      -3.182  -2.159   4.749  0.00  0.00    +0.298 C 
ATOM     11  O   UNL     1      -3.898  -1.359   5.320  0.00  0.00    -0.253 OA
ATOM     12  N   UNL     1      -2.393  -2.986   5.463  0.00  0.00    -0.313 N 
ATOM     13  H   UNL     1      -2.661  -2.902   2.949  0.00  0.00    +0.151 HD
ATOM     14  H   UNL     1      -1.822  -3.625   5.007  0.00  0.00    +0.146 HD
ATOM     15  H   UNL     1      -2.397  -2.944   6.432  0.00  0.00    +0.146 HD
ENDBRANCH   1   9
BRANCH   1  16
ATOM     16  C   UNL     1      -3.315  -1.081   1.242  0.00  0.00    +0.123 C 
BRANCH  16  18
ATOM     17  N   UNL     1      -1.193  -0.235   0.294  0.00  0.00    -0.309 N 
ATOM     18  C   UNL     1      -1.944  -0.474   1.387  0.00  0.00    +0.216 C 
ATOM     19  O   UNL     1      -1.515  -0.201   2.488  0.00  0.00    -0.276 OA
ATOM     20  H   UNL     1      -1.535  -0.454  -0.587  0.00  0.00    +0.149 HD
BRANCH  17  22
ATOM     21  C   UNL     1       0.020   1.878   0.505  0.00  0.00    +0.033 C 
ATOM     22  C   UNL     1       0.141   0.355   0.435  0.00  0.00    +0.100 C 
BRANCH  22  23
ATOM     23  C   UNL     1       0.988  -0.028  -0.751  0.00  0.00    -0.025 A 
ATOM     24  C   UNL     1       0.436  -0.043  -2.018  0.00  0.00    +0.005 A 
ATOM     25  C   UNL     1       1.212  -0.394  -3.107  0.00  0.00    +0.003 A 
ATOM     26  C   UNL     1       2.540  -0.731  -2.930  0.00  0.00    +0.038 A 
ATOM     27  C   UNL     1       3.094  -0.716  -1.661  0.00  0.00    +0.124 A 
ATOM     28  C   UNL     1       2.318  -0.358  -0.572  0.00  0.00    +0.043 A 
ATOM     29  F   UNL     1       4.393  -1.046  -1.487  0.00  0.00    -0.205 F 
ENDBRANCH  22  23
ENDBRANCH  17  22
ENDBRANCH  16  18
ENDBRANCH   1  16
TORSDOF 6
