REMARK  Name = ZINC08635691
REMARK  8 active torsions:
REMARK  status: ('A' for Active; 'I' for Inactive)
REMARK    1  A    between atoms: C_3  and  C_6
REMARK    2  A    between atoms: C_6  and  N_7
REMARK    3  A    between atoms: N_7  and  C_8
REMARK    4  A    between atoms: C_8  and  N_10
REMARK    5  A    between atoms: N_10  and  C_11
REMARK    6  A    between atoms: C_11  and  C_12
REMARK    7  A    between atoms: C_20  and  C_22
REMARK    8  A    between atoms: C_22  and  N_66
REMARK                            x       y       z     vdW  Elec       q    Type
REMARK                         _______ _______ _______ _____ _____    ______ ____
ROOT
ATOM      1  C   UNL     1      -0.720   3.212  -1.027  0.00  0.00    -0.051 C 
ATOM      2  C   UNL     1      -1.526   3.635   0.204  0.00  0.00    -0.010 C 
ATOM      3  C   UNL     1      -2.005   2.377   0.939  0.00  0.00    -0.015 C 
ATOM      4  C   UNL     1      -0.777   1.550   1.343  0.00  0.00    -0.015 C 
ATOM      5  C   UNL     1       0.009   1.184   0.081  0.00  0.00    -0.078 C 
ATOM      6  C   UNL     1      -2.018   1.179  -1.247  0.00  0.00    -0.076 C 
ATOM      7  C   UNL     1      -2.878   1.554  -0.016  0.00  0.00    -0.041 C 
ATOM      8  N   UNL     1      -0.655   1.738  -1.120  0.00  0.00    +0.383 N 
ATOM      9  H   UNL     1      -0.110   1.480  -1.951  0.00  0.00    -0.081 HD
ENDROOT
BRANCH   1  10
ATOM     10  C   UNL     1      -1.389   3.759  -2.289  0.00  0.00    +0.088 C 
BRANCH  10  11
ATOM     11  N   UNL     1      -0.688   3.254  -3.472  0.00  0.00    -0.328 N 
ATOM     12  H   UNL     1       0.076   2.665  -3.369  0.00  0.00    +0.148 HD
BRANCH  11  13
ATOM     13  C   UNL     1      -1.104   3.607  -4.705  0.00  0.00    +0.131 C 
ATOM     14  S   UNL     1      -2.452   4.646  -4.888  0.00  0.00    -0.019 S 
BRANCH  13  15
ATOM     15  N   UNL     1      -0.459   3.141  -5.793  0.00  0.00    -0.319 N 
ATOM     16  H   UNL     1       0.305   2.553  -5.689  0.00  0.00    +0.148 HD
BRANCH  15  17
ATOM     17  C   UNL     1      -0.912   3.525  -7.132  0.00  0.00    +0.177 C 
BRANCH  17  20
ATOM     18  C   UNL     1       0.833   1.458  -9.636  0.00  0.00    +0.041 A 
ATOM     19  C   UNL     1      -0.228   1.669  -8.725  0.00  0.00    +0.046 A 
ATOM     20  C   UNL     1      -0.028   2.875  -8.166  0.00  0.00    +0.122 A 
ATOM     21  O   UNL     1       1.095   3.401  -8.681  0.00  0.00    -0.466 OA
ATOM     22  C   UNL     1       1.622   2.546  -9.573  0.00  0.00    +0.195 A 
ENDBRANCH  17  20
ENDBRANCH  15  17
ENDBRANCH  13  15
ENDBRANCH  11  13
ENDBRANCH  10  11
ENDBRANCH   1  10
BRANCH   7  23
ATOM     23  C   UNL     1      -4.094   2.380  -0.440  0.00  0.00    -0.077 C 
BRANCH  23  35
ATOM     24  C   UNL     1      -5.904   2.381  -2.049  0.00  0.00    -0.060 C 
ATOM     25  C   UNL     1      -6.766   1.481  -2.937  0.00  0.00    +0.089 C 
ATOM     26  N   UNL     1      -7.519   0.542  -2.094  0.00  0.00    -0.303 N 
ATOM     27  C   UNL     1      -6.608  -0.291  -1.296  0.00  0.00    +0.089 C 
ATOM     28  C   UNL     1      -5.745   0.609  -0.408  0.00  0.00    -0.060 C 
ATOM     29  C   UNL     1      -8.366  -0.242  -2.859  0.00  0.00    +0.218 A 
ATOM     30  N   UNL     1      -8.262  -1.561  -2.792  0.00  0.00    -0.223 NA
ATOM     31  C   UNL     1      -9.059  -2.339  -3.506  0.00  0.00    +0.116 A 
ATOM     32  C   UNL     1     -10.003  -1.758  -4.338  0.00  0.00    +0.039 A 
ATOM     33  C   UNL     1     -10.081  -0.375  -4.387  0.00  0.00    +0.116 A 
ATOM     34  N   UNL     1      -9.257   0.345  -3.644  0.00  0.00    -0.223 NA
ATOM     35  N   UNL     1      -4.978   1.533  -1.269  0.00  0.00    +0.382 N 
ATOM     36  H   UNL     1      -4.401   0.984  -1.917  0.00  0.00    -0.082 HD
ENDBRANCH  23  35
ENDBRANCH   7  23
TORSDOF 8
