REMARK  Name = ZINC63513950
REMARK  10 active torsions:
REMARK  status: ('A' for Active; 'I' for Inactive)
REMARK    1  A    between atoms: C_1  and  C_2
REMARK    2  A    between atoms: C_6  and  C_38
REMARK    3  A    between atoms: C_7  and  N_8
REMARK    4  A    between atoms: C_9  and  C_14
REMARK    5  A    between atoms: C_14  and  C_16
REMARK    6  A    between atoms: C_14  and  N_24
REMARK    7  A    between atoms: N_24  and  C_25
REMARK    8  A    between atoms: C_25  and  C_26
REMARK    9  A    between atoms: C_26  and  C_27
REMARK   10  A    between atoms: C_35  and  C_37
REMARK                            x       y       z     vdW  Elec       q    Type
REMARK                         _______ _______ _______ _____ _____    ______ ____
ROOT
ATOM      1  C   UNL     1       2.048   1.683   2.000  0.00  0.00    +0.127 C 
ENDROOT
BRANCH   1   2
ATOM      2  C   UNL     1       3.406   2.074   2.522  0.00  0.00    -0.009 A 
ATOM      3  C   UNL     1       3.544   3.196   3.318  0.00  0.00    +0.008 A 
ATOM      4  C   UNL     1       4.790   3.555   3.797  0.00  0.00    +0.020 A 
ATOM      5  C   UNL     1       5.900   2.791   3.481  0.00  0.00    +0.042 A 
ATOM      6  C   UNL     1       5.762   1.668   2.686  0.00  0.00    +0.040 A 
ATOM      7  C   UNL     1       4.514   1.307   2.210  0.00  0.00    +0.047 A 
ATOM      8 CL   UNL     1       4.340  -0.106   1.216  0.00  0.00    -0.083 Cl
ATOM      9 CL   UNL     1       7.464   3.243   4.083  0.00  0.00    -0.083 Cl
ENDBRANCH   1   2
BRANCH   1  11
ATOM     10  N   UNL     1       0.148   0.148   2.384  0.00  0.00    -0.181 N 
ATOM     11  C   UNL     1       1.417   0.653   2.939  0.00  0.00    +0.222 C 
ATOM     12  N   UNL     1       0.995   1.285   4.204  0.00  0.00    -0.226 N 
ATOM     13  N   UNL     1      -0.392   1.108   4.276  0.00  0.00    -0.063 NA
ATOM     14  N   UNL     1      -0.844   0.507   3.305  0.00  0.00    -0.056 NA
ATOM     15  H   UNL     1       1.562   1.731   4.852  0.00  0.00    +0.172 HD
BRANCH  10  22
ATOM     16  C   UNL     1      -1.295   1.437   0.297  0.00  0.00    +0.046 C 
ATOM     17  C   UNL     1      -0.728   0.050   0.137  0.00  0.00    -0.027 A 
ATOM     18  C   UNL     1      -0.897  -0.632  -1.052  0.00  0.00    +0.005 A 
ATOM     19  C   UNL     1      -0.377  -1.905  -1.199  0.00  0.00    +0.001 A 
ATOM     20  C   UNL     1       0.313  -2.500  -0.159  0.00  0.00    +0.005 A 
ATOM     21  C   UNL     1       0.486  -1.823   1.033  0.00  0.00    -0.027 A 
ATOM     22  C   UNL     1      -0.030  -0.541   1.183  0.00  0.00    +0.061 A 
ATOM     23  C   UNL     1       1.238  -2.471   2.166  0.00  0.00    +0.046 C 
ENDBRANCH  10  22
ENDBRANCH   1  11
BRANCH   1  24
ATOM     24  N   UNL     1       1.189   2.873   1.930  0.00  0.00    -0.306 NA
ATOM     25  H   UNL     1       0.214   2.618   1.974  0.00  0.00    +0.123 HD
BRANCH  24  26
ATOM     26  C   UNL     1       1.474   3.658   0.721  0.00  0.00    +0.086 C 
BRANCH  26  27
ATOM     27  C   UNL     1       0.652   4.948   0.745  0.00  0.00    +0.048 C 
BRANCH  27  28
ATOM     28  C   UNL     1       0.945   5.753  -0.495  0.00  0.00    -0.038 C 
ATOM     29  C   UNL     1       1.788   5.422  -1.500  0.00  0.00    -0.001 A 
ATOM     30  C   UNL     1       2.654   4.258  -1.728  0.00  0.00    +0.010 A 
ATOM     31  C   UNL     1       3.402   4.209  -2.854  0.00  0.00    +0.001 A 
ATOM     32  C   UNL     1       3.372   5.238  -3.805  0.00  0.00    +0.002 A 
ATOM     33  C   UNL     1       2.602   6.338  -3.665  0.00  0.00    +0.026 A 
ATOM     34  C   UNL     1       1.774   6.495  -2.519  0.00  0.00    +0.043 A 
ATOM     35  N   UNL     1       0.954   7.452  -2.159  0.00  0.00    -0.378 N 
ATOM     36  C   UNL     1       0.349   7.091  -0.872  0.00  0.00    +0.103 C 
ATOM     37  C   UNL     1       0.700   8.140   0.185  0.00  0.00    +0.035 C 
ATOM     38  H   UNL     1       0.773   8.262  -2.662  0.00  0.00    +0.160 HD
ENDBRANCH  27  28
ENDBRANCH  26  27
ENDBRANCH  24  26
ENDBRANCH   1  24
TORSDOF 7
