REMARK  Name = ZINC20827174
REMARK  13 active torsions:
REMARK  status: ('A' for Active; 'I' for Inactive)
REMARK    1  A    between atoms: C_1  and  O_2
REMARK    2  A    between atoms: O_2  and  C_3
REMARK    3  A    between atoms: C_5  and  C_13
REMARK    4  A    between atoms: C_7  and  O_11
REMARK    5  A    between atoms: C_8  and  O_9
REMARK    6  A    between atoms: O_9  and  C_10
REMARK    7  A    between atoms: O_11  and  C_12
REMARK    8  A    between atoms: N_14  and  N_15
REMARK    9  A    between atoms: C_19  and  S_22
REMARK   10  A    between atoms: N_20  and  N_21
REMARK   11  A    between atoms: S_22  and  C_23
REMARK   12  A    between atoms: C_23  and  C_24
REMARK   13  A    between atoms: C_24  and  C_26
REMARK                            x       y       z     vdW  Elec       q    Type
REMARK                         _______ _______ _______ _____ _____    ______ ____
ROOT
ATOM      1  N   UNL     1      -4.127  -6.045   2.454  0.00  0.00    -0.204 N 
ATOM      2  C   UNL     1      -3.556  -4.827   2.114  0.00  0.00    +0.254 A 
ATOM      3  N   UNL     1      -4.041  -3.643   2.397  0.00  0.00    -0.109 NA
ATOM      4  N   UNL     1      -3.165  -2.681   1.877  0.00  0.00    -0.119 NA
ATOM      5  C   UNL     1      -2.172  -3.309   1.293  0.00  0.00    +0.210 A 
ATOM      6  N   UNL     1      -2.391  -4.652   1.419  0.00  0.00    -0.211 N 
ATOM      7  H   UNL     1      -3.633  -6.984   2.165  0.00  0.00    +0.177 HD
ENDROOT
BRANCH   6   8
ATOM      8  N   UNL     1      -1.585  -5.645   0.939  0.00  0.00    -0.294 N 
ATOM      9  H   UNL     1      -0.666  -5.391   0.391  0.00  0.00    +0.163 HD
ATOM     10  H   UNL     1      -1.856  -6.699   1.100  0.00  0.00    +0.163 HD
ENDBRANCH   6   8
BRANCH   1  12
ATOM     11  C   UNL     1      -5.867  -7.218   3.485  0.00  0.00    +0.138 C 
ATOM     12  N   UNL     1      -5.333  -6.078   3.166  0.00  0.00    -0.188 NA
BRANCH  11  15
ATOM     13  C   UNL     1      -8.904  -8.508   5.281  0.00  0.00    +0.166 A 
ATOM     14  C   UNL     1      -7.713  -8.479   4.578  0.00  0.00    +0.059 A 
ATOM     15  C   UNL     1      -7.136  -7.253   4.234  0.00  0.00    +0.002 A 
ATOM     16  C   UNL     1      -7.762  -6.061   4.607  0.00  0.00    +0.059 A 
ATOM     17  C   UNL     1      -8.956  -6.097   5.307  0.00  0.00    +0.166 A 
ATOM     18  C   UNL     1      -9.527  -7.319   5.647  0.00  0.00    +0.204 A 
BRANCH  13  20
ATOM     19  C   UNL     1      -8.771 -10.882   5.210  0.00  0.00    +0.277 C 
ATOM     20  O   UNL     1      -9.465  -9.700   5.617  0.00  0.00    -0.491 OA
ENDBRANCH  13  20
BRANCH  18  21
ATOM     21  O   UNL     1     -10.698  -7.352   6.339  0.00  0.00    -0.488 OA
ATOM     22  C   UNL     1     -10.609  -7.364   7.765  0.00  0.00    +0.277 C 
ENDBRANCH  18  21
BRANCH  17  23
ATOM     23  O   UNL     1      -9.568  -4.937   5.666  0.00  0.00    -0.491 OA
ATOM     24  C   UNL     1      -8.925  -3.719   5.284  0.00  0.00    +0.277 C 
ENDBRANCH  17  23
ENDBRANCH  11  15
ENDBRANCH   1  12
BRANCH   5  25
ATOM     25  S   UNL     1      -0.802  -2.555   0.483  0.00  0.00    -0.077 S 
BRANCH  25  26
ATOM     26  C   UNL     1      -1.112  -0.776   0.661  0.00  0.00    +0.152 C 
BRANCH  26  27
ATOM     27  C   UNL     1       0.002  -0.004   0.002  0.00  0.00    +0.147 C 
ATOM     28  O   UNL     1       0.911  -0.593  -0.533  0.00  0.00    -0.296 OA
BRANCH  27  29
ATOM     29  C   UNL     1      -0.018   1.503   0.010  0.00  0.00    +0.062 C 
ATOM     30  C   UNL     1      -1.071   2.004  -0.980  0.00  0.00    +0.000 C 
ATOM     31  C   UNL     1      -1.092   3.534  -0.972  0.00  0.00    +0.007 C 
ATOM     32  C   UNL     1       0.284   4.065  -1.378  0.00  0.00    -0.010 C 
ATOM     33  C   UNL     1       0.629   3.567  -2.783  0.00  0.00    +0.007 C 
ATOM     34  C   UNL     1       0.649   2.037  -2.792  0.00  0.00    -0.010 C 
ATOM     35  C   UNL     1      -0.727   1.506  -2.386  0.00  0.00    +0.007 C 
ATOM     36  C   UNL     1       1.702   1.536  -1.801  0.00  0.00    +0.007 C 
ATOM     37  C   UNL     1       1.358   2.034  -0.396  0.00  0.00    +0.000 C 
ATOM     38  C   UNL     1       1.337   3.564  -0.387  0.00  0.00    +0.007 C 
ENDBRANCH  27  29
ENDBRANCH  26  27
ENDBRANCH  25  26
ENDBRANCH   5  25
TORSDOF 10
