REMARK  Name = ZINC51549459
REMARK  10 active torsions:
REMARK  status: ('A' for Active; 'I' for Inactive)
REMARK    1  A    between atoms: C_1  and  C_2
REMARK    2  A    between atoms: C_2  and  C_3
REMARK    3  A    between atoms: C_3  and  N_4
REMARK    4  A    between atoms: N_4  and  C_5
REMARK    5  A    between atoms: C_5  and  C_6
REMARK    6  A    between atoms: C_11  and  O_12
REMARK    7  A    between atoms: O_12  and  C_13
REMARK    8  A    between atoms: C_13  and  C_14
REMARK    9  A    between atoms: C_14  and  C_15
REMARK   10  A    between atoms: N_20  and  C_21
REMARK                            x       y       z     vdW  Elec       q    Type
REMARK                         _______ _______ _______ _____ _____    ______ ____
ROOT
ATOM      1  C   UNL     1      -2.771  -4.018   0.007  0.00  0.00    -0.002 A 
ATOM      2  C   UNL     1      -2.974  -4.715  -1.171  0.00  0.00    +0.023 A 
ATOM      3  C   UNL     1      -2.946  -6.103  -1.132  0.00  0.00    +0.036 A 
ATOM      4  C   UNL     1      -2.719  -6.741   0.072  0.00  0.00    +0.130 A 
ATOM      5  N   UNL     1      -2.529  -6.047   1.179  0.00  0.00    -0.220 NA
ATOM      6  C   UNL     1      -2.542  -4.725   1.180  0.00  0.00    +0.216 A 
ATOM      7 BR   UNL     1      -3.218  -7.109  -2.710  0.00  0.00    -0.049 Br
ENDROOT
BRANCH   1   8
ATOM      8  C   UNL     1      -2.792  -2.511   0.015  0.00  0.00    -0.041 C 
BRANCH   8   9
ATOM      9  N   UNL     1      -1.413  -2.002   0.005  0.00  0.00    +0.382 N 
ATOM     10  H   UNL     1      -0.941  -2.328  -0.825  0.00  0.00    -0.085 HD
ATOM     11  H   UNL     1      -0.925  -2.337   0.822  0.00  0.00    -0.085 HD
BRANCH   9  12
ATOM     12  C   UNL     1      -1.433  -0.534   0.013  0.00  0.00    -0.082 C 
BRANCH  12  14
ATOM     13  C   UNL     1      -0.019   1.526   0.010  0.00  0.00    +0.002 C 
ATOM     14  C   UNL     1       0.002  -0.004   0.002  0.00  0.00    -0.022 C 
ENDBRANCH  12  14
ENDBRANCH   9  12
ENDBRANCH   8   9
ENDBRANCH   1   8
BRANCH   6  15
ATOM     15  O   UNL     1      -2.336  -4.052   2.340  0.00  0.00    -0.476 OA
BRANCH  15  16
ATOM     16  C   UNL     1      -2.107  -4.836   3.513  0.00  0.00    +0.229 C 
BRANCH  16  17
ATOM     17  C   UNL     1      -1.897  -3.910   4.713  0.00  0.00    +0.026 C 
BRANCH  17  18
ATOM     18  C   UNL     1      -1.651  -4.750   5.968  0.00  0.00    -0.066 C 
ATOM     19  C   UNL     1      -1.520  -3.828   7.199  0.00  0.00    -0.017 C 
ATOM     20  C   UNL     1      -0.399  -4.509   8.028  0.00  0.00    -0.020 C 
ATOM     21  C   UNL     1       0.532  -5.046   6.913  0.00  0.00    -0.079 C 
ATOM     22  N   UNL     1      -0.383  -5.490   5.835  0.00  0.00    +0.380 N 
ATOM     23  C   UNL     1      -0.637  -6.932   5.961  0.00  0.00    -0.096 C 
ATOM     24  H   UNL     1       0.031  -5.297   4.936  0.00  0.00    -0.082 HD
ENDBRANCH  17  18
ENDBRANCH  16  17
ENDBRANCH  15  16
ENDBRANCH   6  15
TORSDOF 8
