REMARK  Name = ZINC24868354
REMARK  7 active torsions:
REMARK  status: ('A' for Active; 'I' for Inactive)
REMARK    1  A    between atoms: C_1  and  C_2
REMARK    2  A    between atoms: C_2  and  C_4
REMARK    3  A    between atoms: C_2  and  N_17
REMARK    4  A    between atoms: C_7  and  O_10
REMARK    5  A    between atoms: O_10  and  C_11
REMARK    6  A    between atoms: N_20  and  C_23
REMARK    7  A    between atoms: C_23  and  N_25
REMARK                            x       y       z     vdW  Elec       q    Type
REMARK                         _______ _______ _______ _____ _____    ______ ____
ROOT
ATOM      1  C   UNL     1      -0.466   3.288  -3.199  0.00  0.00    +0.029 C 
ATOM      2  C   UNL     1      -1.512   3.531  -2.109  0.00  0.00    +0.084 C 
ENDROOT
BRANCH   2   3
ATOM      3  C   UNL     1      -1.767   5.011  -1.979  0.00  0.00    -0.030 A 
ATOM      4  C   UNL     1      -0.891   5.802  -1.260  0.00  0.00    +0.009 A 
ATOM      5  C   UNL     1      -1.120   7.159  -1.143  0.00  0.00    +0.046 A 
ATOM      6  C   UNL     1      -2.237   7.726  -1.740  0.00  0.00    +0.128 A 
ATOM      7  C   UNL     1      -3.118   6.929  -2.456  0.00  0.00    +0.046 A 
ATOM      8  C   UNL     1      -2.881   5.573  -2.575  0.00  0.00    +0.009 A 
BRANCH   6   9
ATOM      9  O   UNL     1      -2.469   9.060  -1.621  0.00  0.00    -0.456 OA
BRANCH   9  10
ATOM     10  C   UNL     1      -1.518   9.822  -1.020  0.00  0.00    +0.128 A 
ATOM     11  C   UNL     1      -1.779  10.421   0.204  0.00  0.00    +0.046 A 
ATOM     12  C   UNL     1      -0.808  11.190   0.816  0.00  0.00    +0.004 A 
ATOM     13  C   UNL     1       0.419  11.372   0.205  0.00  0.00    +0.000 A 
ATOM     14  C   UNL     1       0.679  10.780  -1.017  0.00  0.00    +0.004 A 
ATOM     15  C   UNL     1      -0.286  10.006  -1.631  0.00  0.00    +0.046 A 
ENDBRANCH   9  10
ENDBRANCH   6   9
ENDBRANCH   2   3
BRANCH   2  16
ATOM     16  N   UNL     1      -1.016   3.006  -0.830  0.00  0.00    -0.293 NA
ATOM     17  C   UNL     1      -0.868   1.545  -0.882  0.00  0.00    +0.104 C 
ATOM     18  C   UNL     1      -0.183   1.058   0.399  0.00  0.00    +0.122 C 
ATOM     19  N   UNL     1      -0.934   1.565   1.557  0.00  0.00    -0.310 N 
ATOM     20  C   UNL     1      -1.245   3.002   1.609  0.00  0.00    +0.122 C 
ATOM     21  C   UNL     1      -1.889   3.413   0.280  0.00  0.00    +0.104 C 
BRANCH  19  22
ATOM     22  C   UNL     1      -1.331   0.735   2.542  0.00  0.00    +0.130 C 
ATOM     23  S   UNL     1      -2.087   1.367   3.942  0.00  0.00    -0.019 S 
BRANCH  22  24
ATOM     24  N   UNL     1      -1.132  -0.593   2.425  0.00  0.00    -0.340 N 
ATOM     25  H   UNL     1      -1.456  -1.271   3.228  0.00  0.00    +0.144 HD
ATOM     26  H   UNL     1      -0.646  -0.999   1.525  0.00  0.00    +0.144 HD
ENDBRANCH  22  24
ENDBRANCH  19  22
ENDBRANCH   2  16
TORSDOF 6
