REMARK  Name = ZINC21255551
REMARK  8 active torsions:
REMARK  status: ('A' for Active; 'I' for Inactive)
REMARK    1  A    between atoms: C_1  and  C_2
REMARK    2  A    between atoms: C_2  and  C_3
REMARK    3  A    between atoms: C_2  and  O_4
REMARK    4  A    between atoms: O_4  and  C_5
REMARK    5  A    between atoms: C_8  and  C_11
REMARK    6  A    between atoms: C_16  and  C_22
REMARK    7  A    between atoms: C_27  and  O_28
REMARK    8  A    between atoms: O_28  and  C_29
REMARK                            x       y       z     vdW  Elec       q    Type
REMARK                         _______ _______ _______ _____ _____    ______ ____
ROOT
ATOM      1  C   UNL     1      -2.439   0.984  -0.865  0.00  0.00    +0.032 C 
ATOM      2  C   UNL     1      -3.149   1.530  -2.106  0.00  0.00    +0.059 C 
ATOM      3  C   UNL     1      -4.448   0.791  -2.312  0.00  0.00    +0.018 C 
ATOM      4  C   UNL     1      -5.138   0.299  -1.261  0.00  0.00    +0.020 C 
ATOM      5  C   UNL     1      -6.440  -0.432  -1.491  0.00  0.00    +0.066 C 
ATOM      6  C   UNL     1      -7.174   0.199  -2.676  0.00  0.00    +0.109 C 
ATOM      7  C   UNL     1      -6.213   0.356  -3.826  0.00  0.00    +0.218 C 
ATOM      8  O   UNL     1      -6.609   0.237  -4.966  0.00  0.00    -0.275 OA
ATOM      9  N   UNL     1      -4.917   0.627  -3.590  0.00  0.00    -0.289 N 
ATOM     10  C   UNL     1      -4.670   0.448   0.055  0.00  0.00    +0.162 C 
ATOM     11  O   UNL     1      -5.327   0.004   0.976  0.00  0.00    -0.292 OA
ATOM     12  C   UNL     1      -3.369   1.148   0.342  0.00  0.00    +0.088 C 
ATOM     13  H   UNL     1      -4.230   0.718  -4.444  0.00  0.00    +0.155 HD
ENDROOT
BRANCH   5  14
ATOM     14  C   UNL     1      -6.156  -1.881  -1.790  0.00  0.00    +0.003 A 
ATOM     15  C   UNL     1      -5.384  -2.224  -2.883  0.00  0.00    +0.023 A 
ATOM     16  C   UNL     1      -5.124  -3.554  -3.157  0.00  0.00    +0.018 A 
ATOM     17  C   UNL     1      -5.636  -4.545  -2.338  0.00  0.00    +0.019 A 
ATOM     18  C   UNL     1      -6.409  -4.207  -1.245  0.00  0.00    +0.047 A 
ATOM     19  C   UNL     1      -6.666  -2.873  -0.964  0.00  0.00    +0.124 A 
ATOM     20 BR   UNL     1      -4.066  -4.020  -4.654  0.00  0.00    -0.050 Br
BRANCH  19  21
ATOM     21  O   UNL     1      -7.421  -2.537   0.115  0.00  0.00    -0.495 OA
ATOM     22  C   UNL     1      -7.913  -3.610   0.921  0.00  0.00    +0.277 C 
ENDBRANCH  19  21
ENDBRANCH   5  14
BRANCH   1  26
ATOM     23  C   UNL     1       1.173   3.171  -0.205  0.00  0.00    +0.121 A 
ATOM     24  C   UNL     1       1.220   1.801  -0.424  0.00  0.00    +0.046 A 
ATOM     25  C   UNL     1       0.050   1.096  -0.634  0.00  0.00    +0.007 A 
ATOM     26  C   UNL     1      -1.165   1.755  -0.630  0.00  0.00    -0.043 A 
ATOM     27  C   UNL     1      -1.215   3.118  -0.406  0.00  0.00    +0.007 A 
ATOM     28  C   UNL     1      -0.049   3.828  -0.197  0.00  0.00    +0.046 A 
BRANCH  23  29
ATOM     29  O   UNL     1       2.322   3.866   0.001  0.00  0.00    -0.489 OA
BRANCH  29  31
ATOM     30  C   UNL     1       4.080   2.846  -1.306  0.00  0.00    +0.051 C 
ATOM     31  C   UNL     1       3.530   3.110   0.097  0.00  0.00    +0.167 C 
ATOM     32  C   UNL     1       4.561   3.897   0.909  0.00  0.00    +0.051 C 
ENDBRANCH  29  31
ENDBRANCH  23  29
ENDBRANCH   1  26
TORSDOF 5
