REMARK  Name = ZINC14909551
REMARK  8 active torsions:
REMARK  status: ('A' for Active; 'I' for Inactive)
REMARK    1  A    between atoms: C_1  and  C_2
REMARK    2  A    between atoms: C_2  and  C_3
REMARK    3  A    between atoms: N_11  and  C_15
REMARK    4  A    between atoms: C_15  and  C_16
REMARK    5  A    between atoms: N_18  and  C_19
REMARK    6  A    between atoms: C_24  and  C_25
REMARK    7  A    between atoms: C_25  and  C_26
REMARK    8  A    between atoms: C_25  and  C_27
REMARK                            x       y       z     vdW  Elec       q    Type
REMARK                         _______ _______ _______ _____ _____    ______ ____
ROOT
ATOM      1  C   UNL     1       3.016   5.244  -0.016  0.00  0.00    -0.011 C 
ATOM      2  C   UNL     1       2.578   4.482   1.237  0.00  0.00    +0.006 C 
ATOM      3  C   UNL     1       1.051   4.383   1.266  0.00  0.00    +0.035 C 
ATOM      4  C   UNL     1       0.564   3.661   0.014  0.00  0.00    +0.113 C 
ATOM      5  C   UNL     1       1.011   4.398  -1.243  0.00  0.00    +0.035 C 
ATOM      6  C   UNL     1       2.538   4.497  -1.262  0.00  0.00    +0.006 C 
ATOM      7  C   UNL     1       1.070   2.237  -0.002  0.00  0.00    +0.247 C 
ATOM      8  O   UNL     1       2.225   1.869  -0.022  0.00  0.00    -0.273 OA
ATOM      9  N   UNL     1      -0.034   1.461   0.011  0.00  0.00    -0.215 N 
ATOM     10  C   UNL     1      -1.152   2.197   0.028  0.00  0.00    +0.310 C 
ATOM     11  O   UNL     1      -2.272   1.724   0.036  0.00  0.00    -0.252 OA
ATOM     12  N   UNL     1      -0.897   3.519   0.037  0.00  0.00    -0.285 N 
ATOM     13  H   UNL     1      -1.550   4.236   0.051  0.00  0.00    +0.151 HD
ENDROOT
BRANCH   1  15
ATOM     14  C   UNL     1       4.973   6.220  -1.224  0.00  0.00    +0.004 C 
ATOM     15  C   UNL     1       4.542   5.352  -0.039  0.00  0.00    -0.000 C 
ENDBRANCH   1  15
BRANCH   9  16
ATOM     16  C   UNL     1      -0.011  -0.003   0.003  0.00  0.00    +0.214 C 
BRANCH  16  17
ATOM     17  C   UNL     1       0.019  -0.514   1.421  0.00  0.00    +0.235 C 
ATOM     18  O   UNL     1       0.022   0.269   2.347  0.00  0.00    -0.274 OA
ATOM     19  N   UNL     1       0.043  -1.840   1.659  0.00  0.00    -0.284 N 
ATOM     20  H   UNL     1      -0.026  -2.467   0.922  0.00  0.00    +0.155 HD
BRANCH  19  21
ATOM     21  C   UNL     1       0.168  -2.313   2.970  0.00  0.00    +0.037 A 
ATOM     22  C   UNL     1      -0.423  -1.620   4.019  0.00  0.00    +0.023 A 
ATOM     23  C   UNL     1      -0.303  -2.092   5.311  0.00  0.00    +0.002 A 
ATOM     24  C   UNL     1       0.413  -3.248   5.562  0.00  0.00    +0.000 A 
ATOM     25  C   UNL     1       1.007  -3.937   4.521  0.00  0.00    +0.006 A 
ATOM     26  C   UNL     1       0.887  -3.473   3.226  0.00  0.00    -0.024 A 
BRANCH  26  27
ATOM     27  C   UNL     1       1.535  -4.224   2.092  0.00  0.00    +0.015 C 
ATOM     28  C   UNL     1       3.027  -4.398   2.382  0.00  0.00    +0.012 C 
ATOM     29  C   UNL     1       0.880  -5.599   1.950  0.00  0.00    +0.012 C 
ENDBRANCH  26  27
ENDBRANCH  19  21
ENDBRANCH  16  17
ENDBRANCH   9  16
TORSDOF 5
