REMARK  Name = ZINC57721195
REMARK  5 active torsions:
REMARK  status: ('A' for Active; 'I' for Inactive)
REMARK    1  A    between atoms: C_4  and  N_7
REMARK    2  A    between atoms: C_11  and  C_16
REMARK    3  A    between atoms: C_16  and  N_17
REMARK    4  A    between atoms: N_17  and  C_18
REMARK    5  A    between atoms: C_27  and  C_29
REMARK                            x       y       z     vdW  Elec       q    Type
REMARK                         _______ _______ _______ _____ _____    ______ ____
ROOT
ATOM      1  N   UNL     1       3.623  -0.651  -0.037  0.00  0.00    -0.215 N 
ATOM      2  C   UNL     1       3.870  -1.833   0.586  0.00  0.00    +0.145 A 
ATOM      3  C   UNL     1       5.199  -2.168   0.324  0.00  0.00    +0.045 A 
ATOM      4  C   UNL     1       5.739  -3.359   0.851  0.00  0.00    +0.024 A 
ATOM      5  C   UNL     1       4.948  -4.164   1.610  0.00  0.00    +0.035 A 
ATOM      6  C   UNL     1       3.611  -3.802   1.858  0.00  0.00    +0.255 A 
ATOM      7  O   UNL     1       2.908  -4.529   2.540  0.00  0.00    -0.268 OA
ATOM      8  N   UNL     1       3.099  -2.665   1.353  0.00  0.00    -0.307 N 
ATOM      9  H   UNL     1       2.175  -2.432   1.535  0.00  0.00    +0.170 HD
ATOM     10  C   UNL     1       5.742  -1.092  -0.510  0.00  0.00    +0.102 A 
ATOM     11  N   UNL     1       4.776  -0.224  -0.703  0.00  0.00    -0.164 NA
ENDROOT
BRANCH  10  12
ATOM     12  C   UNL     1       7.122  -1.004  -1.044  0.00  0.00    +0.005 A 
ATOM     13  C   UNL     1       8.195  -1.484  -0.292  0.00  0.00    +0.010 A 
ATOM     14  C   UNL     1       9.478  -1.401  -0.792  0.00  0.00    +0.003 A 
ATOM     15  C   UNL     1       9.703  -0.841  -2.037  0.00  0.00    +0.038 A 
ATOM     16  C   UNL     1       8.643  -0.362  -2.789  0.00  0.00    +0.124 A 
ATOM     17  C   UNL     1       7.353  -0.446  -2.300  0.00  0.00    +0.048 A 
ATOM     18  F   UNL     1       8.870   0.183  -4.004  0.00  0.00    -0.205 F 
ENDBRANCH  10  12
BRANCH   1  22
ATOM     19  C   UNL     1      -0.017   1.379   0.010  0.00  0.00    +0.000 A 
ATOM     20  C   UNL     1       1.170   2.089   0.002  0.00  0.00    +0.002 A 
ATOM     21  C   UNL     1       2.377   1.419  -0.013  0.00  0.00    +0.028 A 
ATOM     22  C   UNL     1       2.400   0.031  -0.021  0.00  0.00    +0.068 A 
ATOM     23  C   UNL     1       1.206  -0.680  -0.013  0.00  0.00    +0.028 A 
ATOM     24  C   UNL     1       0.002  -0.004   0.002  0.00  0.00    +0.002 A 
ENDBRANCH   1  22
BRANCH   5  25
ATOM     25  C   UNL     1       5.502  -5.442   2.184  0.00  0.00    +0.142 C 
BRANCH  25  26
ATOM     26  N   UNL     1       5.969  -5.202   3.552  0.00  0.00    -0.339 N 
ATOM     27  H   UNL     1       5.891  -4.317   3.942  0.00  0.00    +0.146 HD
BRANCH  26  28
ATOM     28  C   UNL     1       6.529  -6.247   4.294  0.00  0.00    +0.031 A 
ATOM     29  C   UNL     1       6.646  -7.512   3.733  0.00  0.00    +0.027 A 
ATOM     30  C   UNL     1       7.199  -8.546   4.466  0.00  0.00    +0.051 A 
ATOM     31  C   UNL     1       7.637  -8.323   5.761  0.00  0.00    +0.166 A 
ATOM     32  C   UNL     1       7.520  -7.056   6.326  0.00  0.00    +0.168 A 
ATOM     33  C   UNL     1       6.971  -6.019   5.590  0.00  0.00    +0.072 A 
ATOM     34  O   UNL     1       8.018  -7.097   7.597  0.00  0.00    -0.453 OA
ATOM     35  C   UNL     1       8.064  -8.493   7.947  0.00  0.00    +0.466 C 
ATOM     36  O   UNL     1       8.208  -9.159   6.678  0.00  0.00    -0.453 OA
ENDBRANCH  26  28
ENDBRANCH  25  26
ENDBRANCH   5  25
TORSDOF 5
