REMARK  Name = ZINC12512903
REMARK  5 active torsions:
REMARK  status: ('A' for Active; 'I' for Inactive)
REMARK    1  A    between atoms: C_4  and  N_7
REMARK    2  A    between atoms: C_10  and  C_15
REMARK    3  A    between atoms: C_15  and  S_16
REMARK    4  A    between atoms: S_16  and  C_17
REMARK    5  A    between atoms: C_23  and  C_27
REMARK                            x       y       z     vdW  Elec       q    Type
REMARK                         _______ _______ _______ _____ _____    ______ ____
ROOT
ATOM      1  N   UNL     1       7.848  -5.610  -2.448  0.00  0.00    -0.284 N 
ATOM      2  C   UNL     1       7.418  -5.078  -1.248  0.00  0.00    +0.224 A 
ATOM      3  N   UNL     1       6.854  -3.873  -1.217  0.00  0.00    -0.198 NA
ATOM      4  C   UNL     1       6.441  -3.364  -0.070  0.00  0.00    +0.146 A 
ATOM      5  N   UNL     1       6.591  -4.046   1.052  0.00  0.00    -0.199 NA
ATOM      6  C   UNL     1       7.148  -5.255   1.028  0.00  0.00    +0.217 A 
ATOM      7  N   UNL     1       7.564  -5.770  -0.123  0.00  0.00    -0.181 NA
ATOM      8  N   UNL     1       7.298  -5.970   2.199  0.00  0.00    -0.327 N 
ATOM      9  H   UNL     1       7.669  -5.141  -3.278  0.00  0.00    +0.155 HD
ATOM     10  H   UNL     1       7.708  -6.849   2.182  0.00  0.00    +0.145 HD
ATOM     11  H   UNL     1       6.994  -5.593   3.040  0.00  0.00    +0.145 HD
ENDROOT
BRANCH   1  15
ATOM     12  C   UNL     1       9.916  -9.225  -2.502  0.00  0.00    +0.000 A 
ATOM     13  C   UNL     1       9.081  -8.892  -3.553  0.00  0.00    +0.002 A 
ATOM     14  C   UNL     1       8.394  -7.695  -3.538  0.00  0.00    +0.023 A 
ATOM     15  C   UNL     1       8.543  -6.823  -2.466  0.00  0.00    +0.034 A 
ATOM     16  C   UNL     1       9.387  -7.158  -1.415  0.00  0.00    +0.023 A 
ATOM     17  C   UNL     1      10.067  -8.360  -1.433  0.00  0.00    +0.002 A 
ENDBRANCH   1  15
BRANCH   4  18
ATOM     18  C   UNL     1       5.804  -1.998  -0.039  0.00  0.00    +0.153 C 
BRANCH  18  19
ATOM     19  S   UNL     1       4.012  -2.162  -0.264  0.00  0.00    -0.078 S 
BRANCH  19  20
ATOM     20  C   UNL     1       3.421  -0.503  -0.205  0.00  0.00    +0.196 A 
ATOM     21  N   UNL     1       4.149   0.577  -0.035  0.00  0.00    -0.122 NA
ATOM     22  N   UNL     1       3.402   1.625  -0.042  0.00  0.00    -0.127 NA
ATOM     23  C   UNL     1       2.143   1.271  -0.218  0.00  0.00    +0.180 A 
ATOM     24  N   UNL     1       2.123  -0.103  -0.328  0.00  0.00    -0.276 N 
ATOM     25  C   UNL     1       0.943  -0.765  -0.519  0.00  0.00    +0.107 A 
ATOM     26  C   UNL     1      -0.218  -0.084  -0.604  0.00  0.00    +0.073 A 
ATOM     27  C   UNL     1      -0.231   1.319  -0.496  0.00  0.00    +0.037 A 
ATOM     28  C   UNL     1       0.935   1.994  -0.305  0.00  0.00    +0.086 A 
ATOM     29 CL   UNL     1       0.935   3.725  -0.170  0.00  0.00    -0.080 Cl
BRANCH  26  30
ATOM     30  C   UNL     1      -1.510  -0.831  -0.816  0.00  0.00    +0.419 C 
ATOM     31  F   UNL     1      -2.571   0.080  -0.870  0.00  0.00    -0.166 F 
ATOM     32  F   UNL     1      -1.445  -1.544  -2.018  0.00  0.00    -0.166 F 
ATOM     33  F   UNL     1      -1.713  -1.721   0.244  0.00  0.00    -0.166 F 
ENDBRANCH  26  30
ENDBRANCH  19  20
ENDBRANCH  18  19
ENDBRANCH   4  18
TORSDOF 5
