REMARK  Name = ZINC10729445
REMARK  11 active torsions:
REMARK  status: ('A' for Active; 'I' for Inactive)
REMARK    1  A    between atoms: C_1  and  C_2
REMARK    2  A    between atoms: C_2  and  C_4
REMARK    3  A    between atoms: C_2  and  O_20
REMARK    4  A    between atoms: N_6  and  C_7
REMARK    5  A    between atoms: C_7  and  C_8
REMARK    6  A    between atoms: N_10  and  C_11
REMARK    7  A    between atoms: O_20  and  C_21
REMARK    8  A    between atoms: C_21  and  C_23
REMARK    9  A    between atoms: C_23  and  C_25
REMARK   10  A    between atoms: C_23  and  O_26
REMARK   11  A    between atoms: O_26  and  C_27
REMARK                            x       y       z     vdW  Elec       q    Type
REMARK                         _______ _______ _______ _____ _____    ______ ____
ROOT
ATOM      1  C   UNL     1       3.909   7.497   0.429  0.00  0.00    +0.254 C 
ATOM      2  O   UNL     1       2.972   8.267   0.453  0.00  0.00    -0.272 OA
ATOM      3  N   UNL     1       3.688   6.172   0.318  0.00  0.00    -0.304 N 
ATOM      4  H   UNL     1       4.437   5.555   0.299  0.00  0.00    +0.149 HD
ENDROOT
BRANCH   1   6
ATOM      5  C   UNL     1       6.002   7.428   1.757  0.00  0.00    +0.062 C 
ATOM      6  C   UNL     1       5.318   8.021   0.523  0.00  0.00    +0.259 C 
BRANCH   6   7
ATOM      7  O   UNL     1       5.290   9.468   0.633  0.00  0.00    -0.450 OA
BRANCH   7   8
ATOM      8  C   UNL     1       6.336  10.139   0.125  0.00  0.00    +0.349 C 
ATOM      9  O   UNL     1       7.245   9.536  -0.396  0.00  0.00    -0.247 OA
BRANCH   8  10
ATOM     10  C   UNL     1       6.376  11.643   0.203  0.00  0.00    +0.278 C 
ATOM     11  C   UNL     1       6.461  12.076   1.668  0.00  0.00    +0.064 C 
BRANCH  10  12
ATOM     12  O   UNL     1       7.521  12.126  -0.504  0.00  0.00    -0.476 OA
BRANCH  12  13
ATOM     13  C   UNL     1       7.460  13.398  -0.980  0.00  0.00    +0.140 A 
ATOM     14  C   UNL     1       6.288  14.130  -0.860  0.00  0.00    +0.048 A 
ATOM     15  C   UNL     1       6.230  15.424  -1.341  0.00  0.00    +0.023 A 
ATOM     16  C   UNL     1       7.337  15.987  -1.951  0.00  0.00    +0.043 A 
ATOM     17  C   UNL     1       8.506  15.258  -2.077  0.00  0.00    +0.043 A 
ATOM     18  C   UNL     1       8.570  13.964  -1.593  0.00  0.00    +0.084 A 
ATOM     19 CL   UNL     1      10.036  13.048  -1.752  0.00  0.00    -0.080 Cl
ATOM     20 CL   UNL     1       7.259  17.611  -2.559  0.00  0.00    -0.083 Cl
ENDBRANCH  12  13
ENDBRANCH  10  12
ENDBRANCH   8  10
ENDBRANCH   7   8
ENDBRANCH   6   7
ENDBRANCH   1   6
BRANCH   3  21
ATOM     21  C   UNL     1       2.318   5.662   0.227  0.00  0.00    +0.200 C 
BRANCH  21  22
ATOM     22  C   UNL     1       2.347   4.160   0.112  0.00  0.00    +0.234 C 
ATOM     23  O   UNL     1       3.408   3.572   0.107  0.00  0.00    -0.274 OA
ATOM     24  N   UNL     1       1.194   3.469   0.015  0.00  0.00    -0.282 N 
ATOM     25  H   UNL     1       0.351   3.941  -0.064  0.00  0.00    +0.155 HD
BRANCH  24  26
ATOM     26  C   UNL     1       1.214   2.067   0.027  0.00  0.00    +0.072 A 
ATOM     27  C   UNL     1       2.266   1.392   0.631  0.00  0.00    +0.029 A 
ATOM     28  C   UNL     1       2.285   0.011   0.642  0.00  0.00    +0.043 A 
ATOM     29  C   UNL     1       1.256  -0.703   0.051  0.00  0.00    +0.161 A 
ATOM     30  C   UNL     1       0.203  -0.033  -0.553  0.00  0.00    +0.195 A 
ATOM     31  C   UNL     1       0.180   1.352  -0.567  0.00  0.00    +0.182 A 
ATOM     32  F   UNL     1      -0.842   2.006  -1.160  0.00  0.00    -0.200 F 
ATOM     33  F   UNL     1      -0.800  -0.731  -1.130  0.00  0.00    -0.199 F 
ATOM     34  F   UNL     1       1.278  -2.053   0.064  0.00  0.00    -0.202 F 
ENDBRANCH  24  26
ENDBRANCH  21  22
ENDBRANCH   3  21
TORSDOF 9
