REMARK  Name = ZINC38680182
REMARK  6 active torsions:
REMARK  status: ('A' for Active; 'I' for Inactive)
REMARK    1  A    between atoms: C_4  and  C_8
REMARK    2  A    between atoms: C_13  and  O_22
REMARK    3  A    between atoms: C_17  and  N_21
REMARK    4  A    between atoms: C_18  and  C_19
REMARK    5  A    between atoms: O_22  and  C_23
REMARK    6  A    between atoms: C_23  and  C_25
REMARK                            x       y       z     vdW  Elec       q    Type
REMARK                         _______ _______ _______ _____ _____    ______ ____
ROOT
ATOM      1  C   UNL     1       3.695  -0.658  -0.074  0.00  0.00    +0.102 C 
ATOM      2  C   UNL     1       3.780  -1.523  -1.304  0.00  0.00    +0.008 A 
ATOM      3  C   UNL     1       3.960  -0.930  -2.541  0.00  0.00    +0.012 A 
ATOM      4  C   UNL     1       4.040  -1.708  -3.680  0.00  0.00    +0.047 A 
ATOM      5  C   UNL     1       3.941  -3.089  -3.585  0.00  0.00    +0.135 A 
ATOM      6  C   UNL     1       3.761  -3.685  -2.347  0.00  0.00    +0.093 A 
ATOM      7  C   UNL     1       3.680  -2.902  -1.203  0.00  0.00    +0.138 A 
ATOM      8  O   UNL     1       3.503  -3.500   0.001  0.00  0.00    -0.441 OA
ATOM      9  C   UNL     1       3.804  -2.837   1.129  0.00  0.00    +0.199 C 
ATOM     10  C   UNL     1       3.909  -1.490   1.159  0.00  0.00    +0.098 C 
ENDROOT
BRANCH   1  14
ATOM     11  C   UNL     1      -0.163   1.173   0.104  0.00  0.00    +0.004 A 
ATOM     12  C   UNL     1       0.972   1.960   0.035  0.00  0.00    +0.039 A 
ATOM     13  C   UNL     1       2.222   1.368  -0.022  0.00  0.00    +0.129 A 
ATOM     14  C   UNL     1       2.335  -0.012  -0.011  0.00  0.00    +0.019 A 
ATOM     15  C   UNL     1       1.199  -0.797   0.058  0.00  0.00    +0.048 A 
ATOM     16  C   UNL     1      -0.050  -0.204   0.116  0.00  0.00    +0.020 A 
ATOM     17 CL   UNL     1       1.339  -2.528   0.072  0.00  0.00    -0.083 Cl
ATOM     18  F   UNL     1       3.331   2.136  -0.090  0.00  0.00    -0.205 F 
ENDBRANCH   1  14
BRANCH   9  19
ATOM     19  N   UNL     1       4.010  -3.548   2.285  0.00  0.00    -0.328 N 
ATOM     20  H   UNL     1       3.937  -4.515   2.279  0.00  0.00    +0.145 HD
ATOM     21  H   UNL     1       4.228  -3.083   3.108  0.00  0.00    +0.145 HD
ENDBRANCH   9  19
BRANCH  10  22
ATOM     22  C   UNL     1       4.232  -0.843   2.395  0.00  0.00    +0.101 C 
ATOM     23  N   UNL     1       4.487  -0.330   3.376  0.00  0.00    -0.191 NA
ENDBRANCH  10  22
BRANCH   5  24
ATOM     24  O   UNL     1       4.019  -3.856  -4.704  0.00  0.00    -0.422 OA
BRANCH  24  25
ATOM     25  C   UNL     1       5.208  -3.937  -5.333  0.00  0.00    +0.344 C 
ATOM     26  O   UNL     1       6.192  -3.422  -4.841  0.00  0.00    -0.245 OA
BRANCH  25  27
ATOM     27  C   UNL     1       5.315  -4.652  -6.620  0.00  0.00    +0.059 A 
ATOM     28  C   UNL     1       4.185  -5.240  -7.192  0.00  0.00    +0.016 A 
ATOM     29  C   UNL     1       4.291  -5.906  -8.395  0.00  0.00    +0.021 A 
ATOM     30  C   UNL     1       5.516  -5.993  -9.035  0.00  0.00    +0.041 A 
ATOM     31  C   UNL     1       6.641  -5.412  -8.473  0.00  0.00    +0.021 A 
ATOM     32  C   UNL     1       6.546  -4.738  -7.275  0.00  0.00    +0.016 A 
ATOM     33 CL   UNL     1       5.642  -6.834 -10.549  0.00  0.00    -0.084 Cl
ENDBRANCH  25  27
ENDBRANCH  24  25
ENDBRANCH   5  24
TORSDOF 6
