REMARK  Name = ZINC39690714
REMARK  9 active torsions:
REMARK  status: ('A' for Active; 'I' for Inactive)
REMARK    1  A    between atoms: C_1  and  C_2
REMARK    2  A    between atoms: C_2  and  C_3
REMARK    3  A    between atoms: C_3  and  C_4
REMARK    4  A    between atoms: C_4  and  C_5
REMARK    5  A    between atoms: C_5  and  C_7
REMARK    6  A    between atoms: C_5  and  C_8
REMARK    7  A    between atoms: C_12  and  C_21
REMARK    8  A    between atoms: N_23  and  C_24
REMARK    9  A    between atoms: C_24  and  C_25
REMARK                            x       y       z     vdW  Elec       q    Type
REMARK                         _______ _______ _______ _____ _____    ______ ____
ROOT
ATOM      1  C   UNL     1       1.419  -4.180   2.494  0.00  0.00    +0.218 C 
ATOM      2  O   UNL     1       0.794  -4.805   1.663  0.00  0.00    -0.275 OA
ATOM      3  N   UNL     1       1.988  -4.823   3.533  0.00  0.00    -0.300 N 
ATOM      4  C   UNL     1       2.778  -4.237   4.641  0.00  0.00    +0.121 C 
ATOM      5  C   UNL     1       2.333  -5.022   5.896  0.00  0.00    +0.100 C 
ATOM      6  C   UNL     1       1.802  -6.359   5.354  0.00  0.00    -0.004 C 
ATOM      7  C   UNL     1       1.960  -6.276   3.829  0.00  0.00    +0.115 C 
ATOM      8  C   UNL     1       0.330  -6.530   5.717  0.00  0.00    -0.010 C 
ATOM      9  C   UNL     1      -0.160  -7.892   5.217  0.00  0.00    -0.082 C 
ATOM     10  N   UNL     1       0.643  -8.957   5.830  0.00  0.00    +0.379 N 
ATOM     11  C   UNL     1       2.042  -8.841   5.401  0.00  0.00    -0.082 C 
ATOM     12  C   UNL     1       2.625  -7.518   5.908  0.00  0.00    -0.010 C 
ATOM     13  H   UNL     1       0.593  -8.879   6.835  0.00  0.00    -0.086 HD
ATOM     14  H   UNL     1       0.280  -9.855   5.547  0.00  0.00    -0.086 HD
ENDROOT
BRANCH   5  15
ATOM     15  C   UNL     1       3.506  -5.253   6.814  0.00  0.00    +0.218 C 
ATOM     16  O   UNL     1       4.620  -5.383   6.353  0.00  0.00    -0.275 OA
ATOM     17  N   UNL     1       3.316  -5.315   8.146  0.00  0.00    -0.311 N 
ATOM     18  H   UNL     1       2.425  -5.211   8.515  0.00  0.00    +0.149 HD
BRANCH  17  19
ATOM     19  C   UNL     1       4.456  -5.540   9.039  0.00  0.00    +0.140 C 
BRANCH  19  20
ATOM     20  C   UNL     1       3.977  -5.566  10.468  0.00  0.00    -0.016 A 
ATOM     21  C   UNL     1       4.116  -4.445  11.264  0.00  0.00    +0.006 A 
ATOM     22  C   UNL     1       3.677  -4.469  12.575  0.00  0.00    +0.000 A 
ATOM     23  C   UNL     1       3.099  -5.615  13.089  0.00  0.00    +0.001 A 
ATOM     24  C   UNL     1       2.960  -6.736  12.294  0.00  0.00    +0.015 A 
ATOM     25  C   UNL     1       3.394  -6.711  10.981  0.00  0.00    +0.023 A 
ATOM     26 BR   UNL     1       3.197  -8.243   9.889  0.00  0.00    -0.050 Br
ENDBRANCH  19  20
ENDBRANCH  17  19
ENDBRANCH   5  15
BRANCH   1  27
ATOM     27  C   UNL     1       1.561  -2.686   2.364  0.00  0.00    +0.072 C 
ATOM     28  C   UNL     1       3.043  -2.321   2.257  0.00  0.00    +0.017 C 
BRANCH  27  29
ATOM     29  C   UNL     1       0.828  -2.211   1.107  0.00  0.00    +0.012 C 
BRANCH  29  30
ATOM     30  C   UNL     1       0.865  -0.683   1.042  0.00  0.00    +0.000 C 
BRANCH  30  32
ATOM     31  C   UNL     1       0.168   1.319  -0.280  0.00  0.00    +0.004 C 
ATOM     32  C   UNL     1       0.131  -0.209  -0.214  0.00  0.00    -0.003 C 
ENDBRANCH  30  32
ENDBRANCH  29  30
ENDBRANCH  27  29
ENDBRANCH   1  27
TORSDOF 7
