REMARK  Name = ZINC21336372
REMARK  5 active torsions:
REMARK  status: ('A' for Active; 'I' for Inactive)
REMARK    1  A    between atoms: C_6  and  C_10
REMARK    2  A    between atoms: N_12  and  C_13
REMARK    3  A    between atoms: C_16  and  S_19
REMARK    4  A    between atoms: S_19  and  C_22
REMARK    5  A    between atoms: C_25  and  N_28
REMARK                            x       y       z     vdW  Elec       q    Type
REMARK                         _______ _______ _______ _____ _____    ______ ____
ROOT
ATOM      1  C   UNL     1       7.293   2.835  -0.143  0.00  0.00    +0.034 A 
ATOM      2  C   UNL     1       7.598   4.191  -0.137  0.00  0.00    +0.025 A 
ATOM      3  C   UNL     1       8.913   4.602  -0.234  0.00  0.00    +0.029 A 
ATOM      4  C   UNL     1       9.925   3.666  -0.347  0.00  0.00    +0.094 A 
ATOM      5  C   UNL     1       9.625   2.317  -0.359  0.00  0.00    +0.029 A 
ATOM      6  C   UNL     1       8.312   1.898  -0.257  0.00  0.00    +0.025 A 
ENDROOT
BRANCH   1   9
ATOM      7  C   UNL     1       5.087   3.126   0.697  0.00  0.00    +0.255 C 
ATOM      8  O   UNL     1       5.473   4.077   1.350  0.00  0.00    -0.269 OA
ATOM      9  N   UNL     1       5.964   2.415  -0.041  0.00  0.00    -0.281 N 
ATOM     10  H   UNL     1       5.633   1.505  -0.562  0.00  0.00    +0.155 HD
BRANCH   7  16
ATOM     11  C   UNL     1      -1.144   1.570   0.822  0.00  0.00    +0.004 A 
ATOM     12  C   UNL     1      -1.048   2.673   1.662  0.00  0.00    +0.039 A 
ATOM     13  C   UNL     1       0.150   3.298   1.888  0.00  0.00    +0.132 A 
ATOM     14  C   UNL     1       1.339   2.827   1.268  0.00  0.00    +0.025 A 
ATOM     15  C   UNL     1       2.643   3.340   1.386  0.00  0.00    +0.032 A 
ATOM     16  C   UNL     1       3.667   2.752   0.712  0.00  0.00    +0.075 A 
ATOM     17  S   UNL     1       2.860   1.414  -0.150  0.00  0.00    -0.084 S 
ATOM     18  C   UNL     1       1.205   1.699   0.425  0.00  0.00    +0.023 A 
ATOM     19  C   UNL     1      -0.009   1.082   0.208  0.00  0.00    +0.016 A 
ATOM     20  F   UNL     1       0.201   4.371   2.706  0.00  0.00    -0.205 F 
ENDBRANCH   7  16
ENDBRANCH   1   9
BRANCH   4  21
ATOM     21  S   UNL     1      11.600   4.196  -0.477  0.00  0.00    +0.025 S 
ATOM     22  O   UNL     1      11.664   5.490   0.107  0.00  0.00    -0.164 OA
ATOM     23  O   UNL     1      12.404   3.115  -0.024  0.00  0.00    -0.164 OA
BRANCH  21  24
ATOM     24  C   UNL     1      11.950   4.399  -2.192  0.00  0.00    +0.094 A 
ATOM     25  C   UNL     1      12.449   3.339  -2.926  0.00  0.00    +0.029 A 
ATOM     26  C   UNL     1      12.719   3.498  -4.273  0.00  0.00    +0.034 A 
ATOM     27  C   UNL     1      12.501   4.719  -4.883  0.00  0.00    +0.126 A 
ATOM     28  C   UNL     1      12.007   5.780  -4.147  0.00  0.00    +0.034 A 
ATOM     29  C   UNL     1      11.732   5.620  -2.802  0.00  0.00    +0.029 A 
BRANCH  27  30
ATOM     30  N   UNL     1      12.795   4.890  -6.323  0.00  0.00    +0.056 N 
ATOM     31  O   UNL     1      12.602   5.965  -6.861  0.00  0.00    -0.126 OA
ATOM     32  O   UNL     1      13.230   3.955  -6.971  0.00  0.00    -0.126 OA
ENDBRANCH  27  30
ENDBRANCH  21  24
ENDBRANCH   4  21
TORSDOF 5
