REMARK  Name = ZINC29342590
REMARK  6 active torsions:
REMARK  status: ('A' for Active; 'I' for Inactive)
REMARK    1  A    between atoms: C_8  and  C_10
REMARK    2  A    between atoms: C_13  and  C_15
REMARK    3  A    between atoms: C_15  and  O_17
REMARK    4  A    between atoms: O_17  and  C_18
REMARK    5  A    between atoms: C_18  and  C_19
REMARK    6  A    between atoms: C_23  and  C_32
REMARK                            x       y       z     vdW  Elec       q    Type
REMARK                         _______ _______ _______ _____ _____    ______ ____
ROOT
ATOM      1  C   UNL     1      -0.977   9.406   0.041  0.00  0.00    +0.328 C 
ENDROOT
BRANCH   1   2
ATOM      2  C   UNL     1      -2.471   9.603   0.073  0.00  0.00    +0.258 C 
ATOM      3  O   UNL     1      -3.210   8.644  -0.003  0.00  0.00    -0.272 OA
ATOM      4  N   UNL     1      -2.985  10.844   0.185  0.00  0.00    -0.261 N 
ATOM      5  C   UNL     1      -2.115  12.032   0.186  0.00  0.00    +0.168 C 
ATOM      6  C   UNL     1      -2.639  12.990   1.265  0.00  0.00    +0.276 C 
ATOM      7  O   UNL     1      -3.999  13.317   0.971  0.00  0.00    -0.476 OA
ATOM      8  C   UNL     1      -4.852  12.293   0.703  0.00  0.00    +0.143 A 
ATOM      9  C   UNL     1      -4.371  11.049   0.300  0.00  0.00    +0.078 A 
ATOM     10  C   UNL     1      -5.252  10.016   0.032  0.00  0.00    +0.027 A 
ATOM     11  C   UNL     1      -6.614  10.221   0.156  0.00  0.00    +0.002 A 
ATOM     12  C   UNL     1      -7.095  11.455   0.552  0.00  0.00    +0.004 A 
ATOM     13  C   UNL     1      -6.219  12.490   0.825  0.00  0.00    +0.047 A 
BRANCH   6  14
ATOM     14  C   UNL     1      -1.807  14.247   1.272  0.00  0.00    +0.253 C 
ATOM     15  O   UNL     1      -2.310  15.308   0.970  0.00  0.00    -0.272 OA
ATOM     16  N   UNL     1      -0.505  14.191   1.614  0.00  0.00    -0.326 N 
ATOM     17  H   UNL     1       0.102  15.109   1.618  0.00  0.00    +0.145 HD
ATOM     18  H   UNL     1      -0.048  13.229   1.888  0.00  0.00    +0.145 HD
ENDBRANCH   6  14
ENDBRANCH   1   2
BRANCH   1  19
ATOM     19  O   UNL     1      -0.676   7.986   0.034  0.00  0.00    -0.451 OA
BRANCH  19  20
ATOM     20  C   UNL     1       0.627   7.636   0.006  0.00  0.00    +0.346 C 
ATOM     21  O   UNL     1       1.487   8.496  -0.013  0.00  0.00    -0.244 OA
BRANCH  20  25
ATOM     22  C   UNL     1       1.230   3.531  -0.008  0.00  0.00    +0.045 A 
ATOM     23  C   UNL     1       2.387   4.297  -0.033  0.00  0.00    +0.019 A 
ATOM     24  C   UNL     1       2.274   5.657  -0.030  0.00  0.00    +0.023 A 
ATOM     25  C   UNL     1       1.005   6.221  -0.003  0.00  0.00    +0.097 A 
ATOM     26  S   UNL     1      -0.047   4.778   0.013  0.00  0.00    -0.080 S 
BRANCH  22  34
ATOM     27  C   UNL     1      -0.897  -2.238   0.036  0.00  0.00    +0.002 A 
ATOM     28  C   UNL     1       0.375  -2.793   0.008  0.00  0.00    +0.001 A 
ATOM     29  C   UNL     1       1.478  -1.960  -0.016  0.00  0.00    +0.017 A 
ATOM     30  C   UNL     1       1.296  -0.599  -0.012  0.00  0.00    +0.040 A 
ATOM     31  C   UNL     1       0.012  -0.002   0.017  0.00  0.00    +0.079 A 
ATOM     32  C   UNL     1      -1.089  -0.892   0.041  0.00  0.00    +0.029 A 
ATOM     33  N   UNL     1      -0.008   1.339   0.018  0.00  0.00    -0.239 NA
ATOM     34  C   UNL     1       1.091   2.065  -0.006  0.00  0.00    +0.116 A 
ATOM     35  S   UNL     1       2.370   0.817  -0.035  0.00  0.00    -0.067 S 
ENDBRANCH  22  34
ENDBRANCH  20  25
ENDBRANCH  19  20
ENDBRANCH   1  19
TORSDOF 6
