REMARK  Name = ZINC20288708
REMARK  14 active torsions:
REMARK  status: ('A' for Active; 'I' for Inactive)
REMARK    1  A    between atoms: C_1  and  C_2
REMARK    2  A    between atoms: C_2  and  N_3
REMARK    3  A    between atoms: N_3  and  C_4
REMARK    4  A    between atoms: N_3  and  C_6
REMARK    5  A    between atoms: C_4  and  C_5
REMARK    6  A    between atoms: C_6  and  C_7
REMARK    7  A    between atoms: C_7  and  N_8
REMARK    8  A    between atoms: C_9  and  C_11
REMARK    9  A    between atoms: N_13  and  C_14
REMARK   10  A    between atoms: C_14  and  C_16
REMARK   11  A    between atoms: C_14  and  C_17
REMARK   12  A    between atoms: C_17  and  C_19
REMARK   13  A    between atoms: C_17  and  N_24
REMARK   14  A    between atoms: N_27  and  C_30
REMARK                            x       y       z     vdW  Elec       q    Type
REMARK                         _______ _______ _______ _____ _____    ______ ____
ROOT
ATOM      1  C   UNL     1      -0.824   1.319   1.367  0.00  0.00    +0.114 C 
ENDROOT
BRANCH   1   2
ATOM      2  N   UNL     1      -2.283   1.230   1.509  0.00  0.00    -0.290 NA
ATOM      3  C   UNL     1      -2.789   2.280   2.405  0.00  0.00    +0.104 C 
ATOM      4  C   UNL     1      -4.317   2.203   2.464  0.00  0.00    +0.120 C 
ATOM      5  N   UNL     1      -4.720   0.871   2.937  0.00  0.00    -0.325 N 
ATOM      6  C   UNL     1      -4.213  -0.178   2.042  0.00  0.00    +0.120 C 
ATOM      7  C   UNL     1      -2.686  -0.102   1.983  0.00  0.00    +0.104 C 
BRANCH   5   8
ATOM      8  C   UNL     1      -6.109   0.786   3.073  0.00  0.00    +0.065 A 
ATOM      9  C   UNL     1      -6.689  -0.368   3.579  0.00  0.00    +0.026 A 
ATOM     10  C   UNL     1      -8.062  -0.448   3.716  0.00  0.00    +0.002 A 
ATOM     11  C   UNL     1      -8.859   0.618   3.341  0.00  0.00    +0.003 A 
ATOM     12  C   UNL     1      -8.286   1.769   2.831  0.00  0.00    +0.040 A 
ATOM     13  C   UNL     1      -6.912   1.857   2.696  0.00  0.00    +0.144 A 
ATOM     14  F   UNL     1      -6.353   2.981   2.197  0.00  0.00    -0.204 F 
ENDBRANCH   5   8
ENDBRANCH   1   2
BRANCH   1  15
ATOM     15  C   UNL     1      -0.171   1.041   2.696  0.00  0.00    +0.009 A 
ATOM     16  C   UNL     1       0.613   1.851   3.449  0.00  0.00    +0.013 A 
ATOM     17  C   UNL     1       1.105   1.380   4.652  0.00  0.00    +0.008 A 
ATOM     18  C   UNL     1       0.797   0.118   5.038  0.00  0.00    +0.045 A 
ATOM     19  S   UNL     1      -0.223  -0.444   3.686  0.00  0.00    -0.100 S 
ENDBRANCH   1  15
BRANCH   1  20
ATOM     20  C   UNL     1      -0.348   0.289   0.340  0.00  0.00    +0.092 C 
ATOM     21  C   UNL     1      -1.084   0.511  -0.983  0.00  0.00    +0.030 C 
BRANCH  20  24
ATOM     22  C   UNL     1       1.825  -0.606  -0.305  0.00  0.00    +0.299 C 
ATOM     23  O   UNL     1       1.289  -1.673  -0.519  0.00  0.00    -0.265 OA
ATOM     24  N   UNL     1       1.094   0.441   0.128  0.00  0.00    -0.303 N 
ATOM     25  H   UNL     1       1.580   1.408   0.323  0.00  0.00    +0.149 HD
BRANCH  22  27
ATOM     26  N   UNL     1       4.027  -1.497  -0.954  0.00  0.00    -0.309 N 
ATOM     27  C   UNL     1       3.296  -0.451  -0.521  0.00  0.00    +0.299 C 
ATOM     28  O   UNL     1       3.832   0.616  -0.306  0.00  0.00    -0.265 OA
ATOM     29  H   UNL     1       3.541  -2.465  -1.148  0.00  0.00    +0.149 HD
BRANCH  26  30
ATOM     30  C   UNL     1       5.468  -1.346  -1.165  0.00  0.00    +0.086 C 
BRANCH  30  31
ATOM     31  C   UNL     1       6.054  -2.672  -1.654  0.00  0.00    -0.060 C 
BRANCH  31  32
ATOM     32  N   UNL     1       7.500  -2.520  -1.866  0.00  0.00    +0.380 N 
ATOM     33  H   UNL     1       7.657  -1.642  -2.510  0.00  0.00    -0.082 HD
BRANCH  32  35
ATOM     34  C   UNL     1       8.021  -3.490   0.321  0.00  0.00    -0.017 C 
ATOM     35  C   UNL     1       8.196  -2.278  -0.596  0.00  0.00    -0.082 C 
ENDBRANCH  32  35
BRANCH  32  36
ATOM     36  C   UNL     1       8.057  -3.692  -2.556  0.00  0.00    -0.082 C 
ATOM     37  C   UNL     1       9.446  -3.351  -3.100  0.00  0.00    -0.017 C 
ENDBRANCH  32  36
ENDBRANCH  31  32
ENDBRANCH  30  31
ENDBRANCH  26  30
ENDBRANCH  22  27
ENDBRANCH  20  24
ENDBRANCH   1  20
TORSDOF 11
