REMARK  Name = ZINC12502233
REMARK  9 active torsions:
REMARK  status: ('A' for Active; 'I' for Inactive)
REMARK    1  A    between atoms: C_3  and  O_9
REMARK    2  A    between atoms: O_9  and  C_10
REMARK    3  A    between atoms: C_10  and  C_11
REMARK    4  A    between atoms: N_13  and  N_14
REMARK    5  A    between atoms: N_14  and  C_15
REMARK    6  A    between atoms: C_15  and  N_17
REMARK    7  A    between atoms: C_18  and  C_20
REMARK    8  A    between atoms: C_22  and  N_29
REMARK    9  A    between atoms: C_24  and  N_26
REMARK                            x       y       z     vdW  Elec       q    Type
REMARK                         _______ _______ _______ _____ _____    ______ ____
ROOT
ATOM      1  C   UNL     1       5.407  -4.043  -0.074  0.00  0.00    +0.153 C 
ATOM      2  S   UNL     1       6.998  -4.674  -0.093  0.00  0.00    -0.017 S 
ENDROOT
BRANCH   1   3
ATOM      3  N   UNL     1       4.350  -4.880  -0.069  0.00  0.00    -0.263 N 
ATOM      4  C   UNL     1       4.546  -6.213  -0.078  0.00  0.00    +0.250 C 
ATOM      5  O   UNL     1       5.676  -6.661  -0.092  0.00  0.00    -0.270 OA
ATOM      6  H   UNL     1       3.449  -4.522  -0.058  0.00  0.00    +0.157 HD
BRANCH   4   7
ATOM      7  C   UNL     1       3.388  -7.131  -0.072  0.00  0.00    +0.041 A 
ATOM      8  C   UNL     1       2.089  -6.619  -0.051  0.00  0.00    +0.046 A 
ATOM      9  C   UNL     1       1.012  -7.481  -0.051  0.00  0.00    +0.129 A 
ATOM     10  C   UNL     1       1.217  -8.850  -0.061  0.00  0.00    +0.065 A 
ATOM     11  C   UNL     1       2.501  -9.363  -0.076  0.00  0.00    +0.129 A 
ATOM     12  C   UNL     1       3.587  -8.512  -0.082  0.00  0.00    +0.046 A 
BRANCH  11  13
ATOM     13  N   UNL     1       2.711 -10.828  -0.087  0.00  0.00    +0.057 N 
ATOM     14  O   UNL     1       3.841 -11.282  -0.101  0.00  0.00    -0.126 OA
ATOM     15  O   UNL     1       1.753 -11.581  -0.082  0.00  0.00    -0.126 OA
ENDBRANCH  11  13
BRANCH   9  16
ATOM     16  N   UNL     1      -0.366  -6.941  -0.034  0.00  0.00    +0.057 N 
ATOM     17  O   UNL     1      -1.318  -7.701  -0.029  0.00  0.00    -0.126 OA
ATOM     18  O   UNL     1      -0.548  -5.737  -0.025  0.00  0.00    -0.126 OA
ENDBRANCH   9  16
ENDBRANCH   4   7
ENDBRANCH   1   3
BRANCH   1  19
ATOM     19  N   UNL     1       5.211  -2.710  -0.065  0.00  0.00    -0.245 N 
ATOM     20  H   UNL     1       5.971  -2.108  -0.069  0.00  0.00    +0.172 HD
BRANCH  19  23
ATOM     21  C   UNL     1       3.712  -0.860  -0.040  0.00  0.00    +0.267 C 
ATOM     22  O   UNL     1       4.663  -0.107  -0.044  0.00  0.00    -0.271 OA
ATOM     23  N   UNL     1       3.909  -2.193  -0.049  0.00  0.00    -0.232 N 
ATOM     24  H   UNL     1       3.148  -2.796  -0.045  0.00  0.00    +0.173 HD
BRANCH  21  25
ATOM     25  C   UNL     1       2.312  -0.305  -0.023  0.00  0.00    +0.326 C 
BRANCH  25  26
ATOM     26  O   UNL     1       2.366   1.123  -0.015  0.00  0.00    -0.481 OA
BRANCH  26  29
ATOM     27  C   UNL     1      -1.218   1.751   0.017  0.00  0.00    +0.023 A 
ATOM     28  C   UNL     1      -0.013   1.076   0.008  0.00  0.00    +0.048 A 
ATOM     29  C   UNL     1       1.179   1.786   0.000  0.00  0.00    +0.140 A 
ATOM     30  C   UNL     1       1.157   3.174   0.008  0.00  0.00    +0.084 A 
ATOM     31  C   UNL     1      -0.051   3.845   0.023  0.00  0.00    +0.043 A 
ATOM     32  C   UNL     1      -1.238   3.134   0.030  0.00  0.00    +0.043 A 
ATOM     33 CL   UNL     1      -2.755   3.979   0.048  0.00  0.00    -0.083 Cl
ATOM     34 CL   UNL     1       2.646   4.066  -0.002  0.00  0.00    -0.080 Cl
ENDBRANCH  26  29
ENDBRANCH  25  26
ENDBRANCH  21  25
ENDBRANCH  19  23
ENDBRANCH   1  19
TORSDOF 9
