REMARK  Name = ZINC15675565
REMARK  9 active torsions:
REMARK  status: ('A' for Active; 'I' for Inactive)
REMARK    1  A    between atoms: C_1  and  C_2
REMARK    2  A    between atoms: C_2  and  C_3
REMARK    3  A    between atoms: C_2  and  O_4
REMARK    4  A    between atoms: O_4  and  C_5
REMARK    5  A    between atoms: C_8  and  C_11
REMARK    6  A    between atoms: C_11  and  N_12
REMARK    7  A    between atoms: C_21  and  C_22
REMARK    8  A    between atoms: C_21  and  C_23
REMARK    9  A    between atoms: N_25  and  C_26
REMARK                            x       y       z     vdW  Elec       q    Type
REMARK                         _______ _______ _______ _____ _____    ______ ____
ROOT
ATOM      1  N   UNL     1      -2.894   0.020   0.197  0.00  0.00    -0.276 N 
ATOM      2  C   UNL     1      -3.745   0.270  -0.827  0.00  0.00    +0.264 C 
ATOM      3  O   UNL     1      -4.951   0.295  -0.666  0.00  0.00    -0.268 OA
ATOM      4  C   UNL     1      -3.134   0.509  -2.140  0.00  0.00    +0.109 A 
ATOM      5  C   UNL     1      -3.682   0.962  -3.304  0.00  0.00    +0.079 A 
ATOM      6  C   UNL     1      -2.651   1.036  -4.253  0.00  0.00    +0.153 A 
ATOM      7  C   UNL     1      -1.475   0.612  -3.634  0.00  0.00    +0.088 A 
ATOM      8  N   UNL     1      -1.775   0.283  -2.346  0.00  0.00    -0.331 N 
ATOM      9  C   UNL     1      -0.912  -0.233  -1.280  0.00  0.00    +0.157 C 
ATOM     10  C   UNL     1      -1.455   0.226   0.073  0.00  0.00    +0.129 C 
ATOM     11  C   UNL     1      -0.745  -0.556   1.181  0.00  0.00    +0.043 C 
ATOM     12  C   UNL     1      -0.459   0.705  -4.615  0.00  0.00    +0.067 A 
ATOM     13  C   UNL     1      -1.033   1.157  -5.743  0.00  0.00    +0.198 A 
ATOM     14  O   UNL     1      -2.345   1.354  -5.529  0.00  0.00    -0.461 OA
ENDROOT
BRANCH  10  15
ATOM     15  C   UNL     1      -1.155   1.692   0.247  0.00  0.00    +0.238 C 
ATOM     16  O   UNL     1      -0.224   2.195  -0.346  0.00  0.00    -0.273 OA
ATOM     17  N   UNL     1      -1.921   2.445   1.061  0.00  0.00    -0.311 N 
ATOM     18  H   UNL     1      -2.665   2.042   1.536  0.00  0.00    +0.149 HD
BRANCH  17  19
ATOM     19  C   UNL     1      -1.629   3.871   1.230  0.00  0.00    +0.073 C 
ATOM     20  C   UNL     1      -0.562   4.048   2.312  0.00  0.00    +0.022 C 
ATOM     21  C   UNL     1       0.028   5.457   2.219  0.00  0.00    +0.002 C 
ATOM     22  C   UNL     1       0.298   5.802   0.753  0.00  0.00    +0.000 C 
ATOM     23  C   UNL     1      -0.641   6.927   0.313  0.00  0.00    +0.000 C 
ATOM     24  C   UNL     1      -2.045   6.360   0.088  0.00  0.00    +0.000 C 
ATOM     25  C   UNL     1      -2.716   6.110   1.440  0.00  0.00    +0.002 C 
ATOM     26  C   UNL     1      -2.905   4.606   1.646  0.00  0.00    +0.022 C 
ENDBRANCH  17  19
ENDBRANCH  10  15
BRANCH   1  27
ATOM     27  C   UNL     1      -3.436  -0.471   1.466  0.00  0.00    +0.144 C 
BRANCH  27  31
ATOM     28  C   UNL     1      -3.931  -4.710   1.259  0.00  0.00    +0.121 A 
ATOM     29  C   UNL     1      -2.797  -4.171   1.850  0.00  0.00    +0.046 A 
ATOM     30  C   UNL     1      -2.640  -2.800   1.916  0.00  0.00    +0.009 A 
ATOM     31  C   UNL     1      -3.610  -1.966   1.393  0.00  0.00    -0.030 A 
ATOM     32  C   UNL     1      -4.743  -2.500   0.808  0.00  0.00    +0.009 A 
ATOM     33  C   UNL     1      -4.903  -3.871   0.735  0.00  0.00    +0.046 A 
BRANCH  28  34
ATOM     34  O   UNL     1      -4.088  -6.059   1.193  0.00  0.00    -0.489 OA
BRANCH  34  36
ATOM     35  C   UNL     1      -3.710  -8.219   2.207  0.00  0.00    +0.051 C 
ATOM     36  C   UNL     1      -3.105  -6.859   1.851  0.00  0.00    +0.167 C 
ATOM     37  C   UNL     1      -1.907  -7.062   0.922  0.00  0.00    +0.051 C 
ENDBRANCH  34  36
ENDBRANCH  28  34
ENDBRANCH  27  31
ENDBRANCH   1  27
TORSDOF 6
