REMARK  Name = ZINC55071571
REMARK  6 active torsions:
REMARK  status: ('A' for Active; 'I' for Inactive)
REMARK    1  A    between atoms: C_1  and  C_2
REMARK    2  A    between atoms: C_2  and  C_3
REMARK    3  A    between atoms: C_3  and  C_5
REMARK    4  A    between atoms: C_3  and  N_6
REMARK    5  A    between atoms: N_9  and  C_12
REMARK    6  A    between atoms: C_12  and  C_13
REMARK                            x       y       z     vdW  Elec       q    Type
REMARK                         _______ _______ _______ _____ _____    ______ ____
ROOT
ATOM      1  N   UNL     1       0.082  -0.027   2.330  0.00  0.00    +0.383 N 
ATOM      2  C   UNL     1       0.915  -0.320   3.504  0.00  0.00    -0.063 C 
ATOM      3  C   UNL     1       0.200   0.161   4.769  0.00  0.00    +0.066 C 
ATOM      4  N   UNL     1      -0.047   1.606   4.669  0.00  0.00    -0.305 NA
ATOM      5  C   UNL     1      -0.859   1.917   3.484  0.00  0.00    +0.066 C 
ATOM      6  C   UNL     1      -0.135   1.422   2.230  0.00  0.00    -0.063 C 
ATOM      7  H   UNL     1      -0.807  -0.495   2.424  0.00  0.00    -0.081 HD
ENDROOT
BRANCH   1   8
ATOM      8  C   UNL     1       0.760  -0.505   1.117  0.00  0.00    -0.072 C 
ATOM      9  C   UNL     1       2.166   0.095   1.050  0.00  0.00    -0.013 C 
BRANCH   8  11
ATOM     10  C   UNL     1      -0.546  -2.634   1.089  0.00  0.00    +0.002 C 
ATOM     11  C   UNL     1       0.859  -2.031   1.155  0.00  0.00    -0.019 C 
ENDBRANCH   8  11
ENDBRANCH   1   8
BRANCH   4  12
ATOM     12  C   UNL     1      -0.682   2.117   5.891  0.00  0.00    +0.095 C 
BRANCH  12  13
ATOM     13  C   UNL     1      -0.697   3.646   5.858  0.00  0.00    +0.069 C 
ATOM     14  C   UNL     1      -1.555   4.144   7.046  0.00  0.00    +0.012 C 
ATOM     15  C   UNL     1      -1.277   5.643   7.318  0.00  0.00    +0.001 C 
ATOM     16  C   UNL     1      -1.105   6.382   6.020  0.00  0.00    +0.000 C 
ATOM     17  C   UNL     1       0.402   6.513   5.847  0.00  0.00    +0.007 C 
ATOM     18  C   UNL     1       1.025   5.436   5.074  0.00  0.00    +0.074 C 
ATOM     19  C   UNL     1       0.705   4.118   5.816  0.00  0.00    +0.138 C 
ATOM     20  O   UNL     1       1.583   3.484   6.351  0.00  0.00    -0.297 OA
ENDBRANCH  12  13
ENDBRANCH   4  12
TORSDOF 4
