REMARK  Name = ZINC12576118
REMARK  6 active torsions:
REMARK  status: ('A' for Active; 'I' for Inactive)
REMARK    1  A    between atoms: C_9  and  O_12
REMARK    2  A    between atoms: O_12  and  C_13
REMARK    3  A    between atoms: C_13  and  C_14
REMARK    4  A    between atoms: N_16  and  N_17
REMARK    5  A    between atoms: C_18  and  C_20
REMARK    6  A    between atoms: C_24  and  N_26
REMARK                            x       y       z     vdW  Elec       q    Type
REMARK                         _______ _______ _______ _____ _____    ______ ____
ROOT
ATOM      1  C   UNL     1       2.119   9.458   0.028  0.00  0.00    +0.267 C 
ATOM      2  O   UNL     1       0.994   9.911   0.041  0.00  0.00    -0.271 OA
ATOM      3  N   UNL     1       3.180  10.290   0.021  0.00  0.00    -0.231 N 
ATOM      4  H   UNL     1       4.079   9.928   0.011  0.00  0.00    +0.173 HD
ENDROOT
BRANCH   3   5
ATOM      5  N   UNL     1       2.982  11.677   0.030  0.00  0.00    -0.230 N 
ATOM      6  C   UNL     1       4.043  12.508   0.024  0.00  0.00    +0.260 C 
ATOM      7  O   UNL     1       5.171  12.055   0.011  0.00  0.00    -0.269 OA
ATOM      8  H   UNL     1       2.083  12.039   0.040  0.00  0.00    +0.173 HD
BRANCH   6   9
ATOM      9  C   UNL     1       3.835  13.972   0.033  0.00  0.00    +0.040 A 
ATOM     10  C   UNL     1       2.541  14.496   0.041  0.00  0.00    +0.013 A 
ATOM     11  C   UNL     1       2.354  15.863   0.054  0.00  0.00    +0.003 A 
ATOM     12  C   UNL     1       3.446  16.713   0.048  0.00  0.00    +0.033 A 
ATOM     13  C   UNL     1       4.730  16.201   0.034  0.00  0.00    +0.127 A 
ATOM     14  C   UNL     1       4.931  14.835   0.026  0.00  0.00    +0.045 A 
BRANCH  13  15
ATOM     15  N   UNL     1       5.892  17.118   0.026  0.00  0.00    +0.056 N 
ATOM     16  O   UNL     1       7.024  16.668   0.014  0.00  0.00    -0.126 OA
ATOM     17  O   UNL     1       5.716  18.323   0.033  0.00  0.00    -0.126 OA
ENDBRANCH  13  15
ENDBRANCH   6   9
ENDBRANCH   3   5
BRANCH   1  18
ATOM     18  C   UNL     1       2.331   7.966   0.019  0.00  0.00    +0.326 C 
BRANCH  18  19
ATOM     19  O   UNL     1       1.064   7.305   0.028  0.00  0.00    -0.482 OA
BRANCH  19  28
ATOM     20  C   UNL     1      -0.013   1.076   0.008  0.00  0.00    +0.001 A 
ATOM     21  C   UNL     1      -1.235   1.746   0.017  0.00  0.00    +0.001 A 
ATOM     22  C   UNL     1      -1.288   3.105   0.030  0.00  0.00    +0.010 A 
ATOM     23  C   UNL     1      -0.095   3.849   0.023  0.00  0.00    -0.000 A 
ATOM     24  C   UNL     1       1.148   3.167   0.008  0.00  0.00    -0.017 A 
ATOM     25  C   UNL     1       1.163   1.762   0.000  0.00  0.00    +0.008 A 
ATOM     26  C   UNL     1       2.343   3.907  -0.000  0.00  0.00    +0.012 A 
ATOM     27  C   UNL     1       2.299   5.266   0.006  0.00  0.00    +0.047 A 
ATOM     28  C   UNL     1       1.077   5.946   0.021  0.00  0.00    +0.136 A 
ATOM     29  C   UNL     1      -0.113   5.253   0.029  0.00  0.00    +0.067 A 
ATOM     30 BR   UNL     1      -1.758   6.186   0.049  0.00  0.00    -0.046 Br
ENDBRANCH  19  28
ENDBRANCH  18  19
ENDBRANCH   1  18
TORSDOF 6
