REMARK  Name = ZINC23157452
REMARK  5 active torsions:
REMARK  status: ('A' for Active; 'I' for Inactive)
REMARK    1  A    between atoms: C_1  and  C_2
REMARK    2  A    between atoms: C_8  and  C_10
REMARK    3  A    between atoms: C_10  and  C_12
REMARK    4  A    between atoms: C_10  and  N_19
REMARK    5  A    between atoms: C_23  and  C_26
REMARK                            x       y       z     vdW  Elec       q    Type
REMARK                         _______ _______ _______ _____ _____    ______ ____
ROOT
ATOM      1  C   UNL     1      -1.262  -3.591  -0.007  0.00  0.00    +0.006 C 
ENDROOT
BRANCH   1   9
ATOM      2  C   UNL     1       2.204   2.988   0.574  0.00  0.00    +0.090 C 
ATOM      3  C   UNL     1       1.651   1.591   0.448  0.00  0.00    +0.150 A 
ATOM      4  N   UNL     1       2.379   0.483   0.324  0.00  0.00    -0.205 NA
ATOM      5  C   UNL     1       1.583  -0.548   0.238  0.00  0.00    +0.199 A 
ATOM      6  N   UNL     1       0.288  -0.132   0.305  0.00  0.00    -0.170 N 
ATOM      7  N   UNL     1       0.384   1.277   0.443  0.00  0.00    -0.147 NA
ATOM      8  C   UNL     1      -0.688  -1.097   0.230  0.00  0.00    +0.282 A 
ATOM      9  C   UNL     1      -0.361  -2.388   0.095  0.00  0.00    +0.050 A 
ATOM     10  S   UNL     1       1.424  -2.309   0.067  0.00  0.00    -0.050 S 
ATOM     11  O   UNL     1      -1.998  -0.737   0.292  0.00  0.00    -0.265 OA
ENDBRANCH   1   9
BRANCH   1  12
ATOM     12  N   UNL     1      -0.802  -4.456  -1.102  0.00  0.00    +0.388 N 
ATOM     13  C   UNL     1      -0.745  -3.715  -2.368  0.00  0.00    -0.077 C 
ATOM     14  C   UNL     1      -0.126  -4.602  -3.452  0.00  0.00    -0.018 C 
ATOM     15  C   UNL     1      -0.975  -5.866  -3.616  0.00  0.00    -0.001 C 
ATOM     16  C   UNL     1      -1.059  -6.593  -2.271  0.00  0.00    -0.031 C 
ATOM     17  C   UNL     1      -1.650  -5.649  -1.222  0.00  0.00    -0.074 C 
ATOM     18  C   UNL     1      -1.954  -7.826  -2.411  0.00  0.00    +0.005 C 
ATOM     19  H   UNL     1       0.218  -4.793  -0.863  0.00  0.00    -0.080 HD
ENDBRANCH   1  12
BRANCH   1  20
ATOM     20  C   UNL     1      -1.223  -4.359   1.290  0.00  0.00    -0.056 A 
ATOM     21  C   UNL     1      -0.114  -5.120   1.609  0.00  0.00    +0.005 A 
ATOM     22  C   UNL     1      -0.074  -5.820   2.800  0.00  0.00    +0.038 A 
ATOM     23  C   UNL     1      -1.151  -5.768   3.668  0.00  0.00    +0.123 A 
ATOM     24  C   UNL     1      -2.264  -5.010   3.345  0.00  0.00    +0.038 A 
ATOM     25  C   UNL     1      -2.299  -4.306   2.156  0.00  0.00    +0.005 A 
ATOM     26  F   UNL     1      -1.117  -6.457   4.830  0.00  0.00    -0.205 F 
ENDBRANCH   1  20
TORSDOF 3
