REMARK  Name = ZINC12036429
REMARK  11 active torsions:
REMARK  status: ('A' for Active; 'I' for Inactive)
REMARK    1  A    between atoms: C_1  and  C_2
REMARK    2  A    between atoms: C_2  and  C_3
REMARK    3  A    between atoms: C_2  and  C_4
REMARK    4  A    between atoms: C_2  and  C_5
REMARK    5  A    between atoms: C_13  and  S_19
REMARK    6  A    between atoms: C_14  and  C_15
REMARK    7  A    between atoms: C_15  and  O_17
REMARK    8  A    between atoms: O_17  and  C_18
REMARK    9  A    between atoms: S_19  and  N_22
REMARK   10  A    between atoms: N_22  and  C_23
REMARK   11  A    between atoms: C_23  and  C_24
REMARK                            x       y       z     vdW  Elec       q    Type
REMARK                         _______ _______ _______ _____ _____    ______ ____
ROOT
ATOM      1  C   UNL     1       6.882   3.370   6.145  0.00  0.00    +0.221 C 
ATOM      2  O   UNL     1       7.527   2.852   5.258  0.00  0.00    -0.275 OA
ATOM      3  N   UNL     1       5.785   2.755   6.629  0.00  0.00    -0.296 N 
ATOM      4  C   UNL     1       5.051   3.300   7.781  0.00  0.00    +0.113 C 
ATOM      5  C   UNL     1       3.644   3.713   7.344  0.00  0.00    +0.056 C 
ATOM      6  C   UNL     1       3.020   2.585   6.532  0.00  0.00    -0.018 A 
ATOM      7  C   UNL     1       3.784   1.628   5.958  0.00  0.00    +0.013 A 
ATOM      8  S   UNL     1       2.632   0.565   5.137  0.00  0.00    -0.071 S 
ATOM      9  C   UNL     1       1.160   1.384   5.546  0.00  0.00    +0.157 A 
ATOM     10  C   UNL     1       1.593   2.448   6.307  0.00  0.00    +0.096 A 
ATOM     11  C   UNL     1       5.276   1.509   6.023  0.00  0.00    +0.150 C 
ENDROOT
BRANCH   1  13
ATOM     12  C   UNL     1       8.472   5.255   5.882  0.00  0.00    +0.020 C 
ATOM     13  C   UNL     1       7.308   4.703   6.707  0.00  0.00    +0.039 C 
ATOM     14  C   UNL     1       6.133   5.680   6.648  0.00  0.00    +0.020 C 
ATOM     15  C   UNL     1       7.752   4.525   8.160  0.00  0.00    +0.020 C 
ENDBRANCH   1  13
BRANCH   9  16
ATOM     16  S   UNL     1      -0.490   0.955   5.102  0.00  0.00    +0.065 S 
ATOM     17  O   UNL     1      -1.339   1.535   6.083  0.00  0.00    -0.153 OA
ATOM     18  O   UNL     1      -0.487  -0.439   4.825  0.00  0.00    -0.153 OA
BRANCH  16  19
ATOM     19  N   UNL     1      -0.827   1.720   3.672  0.00  0.00    -0.189 NA
ATOM     20  H   UNL     1      -1.512   2.406   3.639  0.00  0.00    +0.148 HD
BRANCH  19  21
ATOM     21  C   UNL     1      -0.092   1.360   2.458  0.00  0.00    +0.109 C 
BRANCH  21  22
ATOM     22  C   UNL     1      -0.824   1.917   1.235  0.00  0.00    +0.005 C 
ATOM     23  C   UNL     1      -0.125   1.437  -0.039  0.00  0.00    +0.005 C 
ATOM     24  C   UNL     1      -0.857   1.993  -1.262  0.00  0.00    +0.000 C 
ATOM     25  C   UNL     1      -0.839   3.522  -1.216  0.00  0.00    +0.000 C 
ATOM     26  C   UNL     1      -1.537   4.002   0.058  0.00  0.00    +0.000 C 
ATOM     27  C   UNL     1      -0.805   3.446   1.281  0.00  0.00    +0.005 C 
ENDBRANCH  21  22
ENDBRANCH  19  21
ENDBRANCH  16  19
ENDBRANCH   9  16
BRANCH  10  28
ATOM     28  C   UNL     1       0.639   3.413   6.873  0.00  0.00    +0.342 C 
ATOM     29  O   UNL     1       0.164   3.224   7.975  0.00  0.00    -0.245 OA
BRANCH  28  30
ATOM     30  O   UNL     1       0.291   4.509   6.169  0.00  0.00    -0.464 OA
ATOM     31  C   UNL     1      -0.655   5.419   6.789  0.00  0.00    +0.280 C 
ENDBRANCH  28  30
ENDBRANCH  10  28
TORSDOF 7
