REMARK  Name = ZINC19095811
REMARK  6 active torsions:
REMARK  status: ('A' for Active; 'I' for Inactive)
REMARK    1  A    between atoms: C_1  and  O_2
REMARK    2  A    between atoms: O_2  and  C_3
REMARK    3  A    between atoms: C_6  and  C_11
REMARK    4  A    between atoms: C_8  and  O_9
REMARK    5  A    between atoms: O_9  and  C_10
REMARK    6  A    between atoms: C_16  and  C_17
REMARK                            x       y       z     vdW  Elec       q    Type
REMARK                         _______ _______ _______ _____ _____    ______ ____
ROOT
ATOM      1  C   UNL     1       2.579  -2.537   4.298  0.00  0.00    +0.008 A 
ATOM      2  C   UNL     1       3.948  -2.383   4.501  0.00  0.00    -0.012 A 
ATOM      3  C   UNL     1       4.555  -3.018   5.581  0.00  0.00    +0.077 A 
ATOM      4  N   UNL     1       3.853  -3.790   6.404  0.00  0.00    -0.231 NA
ATOM      5  C   UNL     1       2.552  -3.972   6.253  0.00  0.00    +0.135 A 
ATOM      6  C   UNL     1       1.856  -3.341   5.207  0.00  0.00    +0.099 A 
ATOM      7  N   UNL     1       1.868  -4.788   7.137  0.00  0.00    -0.342 N 
ATOM      8  C   UNL     1       6.001  -2.793   5.822  0.00  0.00    +0.004 A 
ATOM      9  C   UNL     1       6.714  -3.628   6.678  0.00  0.00    +0.010 A 
ATOM     10  C   UNL     1       8.064  -3.415   6.874  0.00  0.00    +0.001 A 
ATOM     11  C   UNL     1       8.704  -2.377   6.221  0.00  0.00    +0.000 A 
ATOM     12  C   UNL     1       7.997  -1.540   5.376  0.00  0.00    +0.004 A 
ATOM     13  C   UNL     1       6.645  -1.738   5.180  0.00  0.00    -0.038 A 
ATOM     14  C   UNL     1       5.863  -0.799   4.301  0.00  0.00    +0.040 C 
ATOM     15  C   UNL     1       4.767  -1.552   3.552  0.00  0.00    +0.042 C 
ATOM     16  H   UNL     1       2.343  -5.223   7.862  0.00  0.00    +0.144 HD
ATOM     17  H   UNL     1       0.913  -4.926   7.031  0.00  0.00    +0.144 HD
ENDROOT
BRANCH   1  21
ATOM     18  C   UNL     1       0.626  -0.618   1.042  0.00  0.00    +0.162 A 
ATOM     19  C   UNL     1       1.202   0.141   2.050  0.00  0.00    +0.050 A 
ATOM     20  C   UNL     1       1.835  -0.479   3.107  0.00  0.00    +0.012 A 
ATOM     21  C   UNL     1       1.898  -1.871   3.164  0.00  0.00    -0.013 A 
ATOM     22  C   UNL     1       1.320  -2.635   2.150  0.00  0.00    +0.058 A 
ATOM     23  C   UNL     1       0.681  -2.009   1.095  0.00  0.00    +0.162 A 
BRANCH  18  25
ATOM     24  C   UNL     1      -0.017   1.425   0.010  0.00  0.00    +0.277 C 
ATOM     25  O   UNL     1       0.002  -0.004   0.002  0.00  0.00    -0.491 OA
ENDBRANCH  18  25
BRANCH  23  26
ATOM     26  O   UNL     1       0.111  -2.752   0.109  0.00  0.00    -0.491 OA
ATOM     27  C   UNL     1       0.206  -4.172   0.228  0.00  0.00    +0.277 C 
ENDBRANCH  23  26
ENDBRANCH   1  21
BRANCH   6  28
ATOM     28  C   UNL     1       0.442  -3.514   5.063  0.00  0.00    +0.103 C 
ATOM     29  N   UNL     1      -0.680  -3.651   4.949  0.00  0.00    -0.191 NA
ENDBRANCH   6  28
TORSDOF 4
