REMARK  Name = ZINC09875220
REMARK  8 active torsions:
REMARK  status: ('A' for Active; 'I' for Inactive)
REMARK    1  A    between atoms: C_1  and  C_2
REMARK    2  A    between atoms: C_2  and  O_3
REMARK    3  A    between atoms: O_3  and  C_4
REMARK    4  A    between atoms: C_7  and  S_10
REMARK    5  A    between atoms: S_10  and  N_13
REMARK    6  A    between atoms: N_21  and  C_22
REMARK    7  A    between atoms: C_22  and  C_24
REMARK    8  A    between atoms: C_22  and  C_30
REMARK                            x       y       z     vdW  Elec       q    Type
REMARK                         _______ _______ _______ _____ _____    ______ ____
ROOT
ATOM      1  N   UNL     1       1.209  -2.984  -1.607  0.00  0.00    -0.174 NA
ATOM      2  C   UNL     1      -0.061  -3.195  -2.315  0.00  0.00    +0.128 C 
ATOM      3  C   UNL     1      -0.070  -2.309  -3.572  0.00  0.00    +0.126 C 
ATOM      4  N   UNL     1       1.189  -2.517  -4.301  0.00  0.00    -0.283 N 
ATOM      5  C   UNL     1       2.460  -2.311  -3.591  0.00  0.00    +0.126 C 
ATOM      6  C   UNL     1       2.469  -3.192  -2.336  0.00  0.00    +0.128 C 
ATOM      7  C   UNL     1       1.180  -2.890  -5.596  0.00  0.00    +0.303 C 
ATOM      8  O   UNL     1       0.127  -3.149  -6.146  0.00  0.00    -0.253 OA
ATOM      9  N   UNL     1       2.337  -2.974  -6.282  0.00  0.00    -0.292 N 
ATOM     10  H   UNL     1       3.181  -2.824  -5.828  0.00  0.00    +0.151 HD
ENDROOT
BRANCH   1  11
ATOM     11  S   UNL     1       1.221  -2.526  -0.016  0.00  0.00    +0.061 S 
ATOM     12  O   UNL     1       2.470  -2.944   0.517  0.00  0.00    -0.153 OA
ATOM     13  O   UNL     1      -0.021  -2.942   0.536  0.00  0.00    -0.153 OA
BRANCH  11  17
ATOM     14  C   UNL     1       1.226   2.002   0.076  0.00  0.00    +0.121 A 
ATOM     15  C   UNL     1       0.025   1.308   0.070  0.00  0.00    +0.047 A 
ATOM     16  C   UNL     1       0.026  -0.073   0.042  0.00  0.00    +0.032 A 
ATOM     17  C   UNL     1       1.223  -0.764   0.019  0.00  0.00    +0.106 A 
ATOM     18  C   UNL     1       2.422  -0.075   0.025  0.00  0.00    +0.032 A 
ATOM     19  C   UNL     1       2.426   1.306   0.053  0.00  0.00    +0.047 A 
BRANCH  14  20
ATOM     20  O   UNL     1       1.228   3.360   0.103  0.00  0.00    -0.492 OA
BRANCH  20  22
ATOM     21  C   UNL     1       2.303   5.524   0.139  0.00  0.00    +0.048 C 
ATOM     22  C   UNL     1       2.501   4.008   0.107  0.00  0.00    +0.225 C 
ENDBRANCH  20  22
ENDBRANCH  14  20
ENDBRANCH  11  17
ENDBRANCH   1  11
BRANCH   9  23
ATOM     23  C   UNL     1       2.319  -3.294  -7.711  0.00  0.00    +0.108 C 
BRANCH  23  24
ATOM     24  C   UNL     1       3.564  -2.749  -8.363  0.00  0.00    -0.027 A 
ATOM     25  C   UNL     1       4.779  -2.828  -7.706  0.00  0.00    +0.005 A 
ATOM     26  C   UNL     1       5.921  -2.333  -8.306  0.00  0.00    +0.000 A 
ATOM     27  C   UNL     1       5.849  -1.750  -9.557  0.00  0.00    +0.000 A 
ATOM     28  C   UNL     1       4.634  -1.667 -10.212  0.00  0.00    +0.000 A 
ATOM     29  C   UNL     1       3.491  -2.167  -9.614  0.00  0.00    +0.005 A 
ENDBRANCH  23  24
BRANCH  23  30
ATOM     30  C   UNL     1       2.270  -4.812  -7.894  0.00  0.00    +0.014 C 
ATOM     31  C   UNL     1       1.187  -5.378  -8.814  0.00  0.00    +0.006 C 
ATOM     32  C   UNL     1       1.073  -5.557  -7.299  0.00  0.00    +0.006 C 
ENDBRANCH  23  30
ENDBRANCH   9  23
TORSDOF 7
