REMARK  Name = ZINC58341304
REMARK  8 active torsions:
REMARK  status: ('A' for Active; 'I' for Inactive)
REMARK    1  A    between atoms: C_6  and  C_7
REMARK    2  A    between atoms: C_10  and  C_12
REMARK    3  A    between atoms: C_12  and  N_13
REMARK    4  A    between atoms: C_14  and  C_16
REMARK    5  A    between atoms: C_16  and  N_17
REMARK    6  A    between atoms: C_21  and  C_24
REMARK    7  A    between atoms: C_24  and  C_25
REMARK    8  A    between atoms: C_25  and  C_26
REMARK                            x       y       z     vdW  Elec       q    Type
REMARK                         _______ _______ _______ _____ _____    ______ ____
ROOT
ATOM      1  N   UNL     1      -5.384  -0.985   1.421  0.00  0.00    -0.310 N 
ATOM      2  C   UNL     1      -6.697  -0.825   1.677  0.00  0.00    +0.197 C 
ATOM      3  O   UNL     1      -7.486  -0.729   0.761  0.00  0.00    -0.278 OA
ATOM      4  H   UNL     1      -4.753  -1.061   2.154  0.00  0.00    +0.149 HD
ENDROOT
BRANCH   1   5
ATOM      5  C   UNL     1      -4.909  -1.041   0.037  0.00  0.00    +0.178 C 
BRANCH   5   9
ATOM      6  C   UNL     1      -1.266  -0.763   0.011  0.00  0.00    +0.135 A 
ATOM      7  C   UNL     1      -1.385  -2.118   0.010  0.00  0.00    +0.050 A 
ATOM      8  C   UNL     1      -2.765  -2.404   0.020  0.00  0.00    +0.047 A 
ATOM      9  C   UNL     1      -3.413  -1.223   0.026  0.00  0.00    +0.123 A 
ATOM     10  O   UNL     1      -2.504  -0.234   0.026  0.00  0.00    -0.458 OA
BRANCH   6  16
ATOM     11  C   UNL     1      -0.017   1.392   0.010  0.00  0.00    +0.013 A 
ATOM     12  C   UNL     1       1.170   2.095   0.002  0.00  0.00    +0.021 A 
ATOM     13  C   UNL     1       2.378   1.419  -0.013  0.00  0.00    +0.041 A 
ATOM     14  C   UNL     1       2.404   0.034  -0.021  0.00  0.00    +0.021 A 
ATOM     15  C   UNL     1       1.223  -0.680  -0.014  0.00  0.00    +0.013 A 
ATOM     16  C   UNL     1       0.002  -0.004   0.002  0.00  0.00    +0.017 A 
ATOM     17 CL   UNL     1       3.868   2.311  -0.023  0.00  0.00    -0.084 Cl
ENDBRANCH   6  16
ENDBRANCH   5   9
ENDBRANCH   1   5
BRANCH   2  18
ATOM     18  C   UNL     1      -7.186  -0.767   3.102  0.00  0.00    +0.019 C 
BRANCH  18  19
ATOM     19  N   UNL     1      -8.644  -0.590   3.112  0.00  0.00    +0.386 N 
ATOM     20  C   UNL     1      -9.283  -1.772   2.522  0.00  0.00    -0.078 C 
ATOM     21  C   UNL     1     -10.797  -1.559   2.456  0.00  0.00    -0.018 C 
ATOM     22  C   UNL     1     -11.338  -1.338   3.872  0.00  0.00    -0.000 C 
ATOM     23  C   UNL     1     -10.611  -0.148   4.505  0.00  0.00    -0.027 C 
ATOM     24  C   UNL     1      -9.104  -0.413   4.495  0.00  0.00    -0.075 C 
ATOM     25  H   UNL     1      -8.887   0.226   2.571  0.00  0.00    -0.081 HD
BRANCH  23  26
ATOM     26  C   UNL     1     -11.089   0.034   5.947  0.00  0.00    +0.011 C 
BRANCH  26  27
ATOM     27  C   UNL     1     -12.570   0.417   5.949  0.00  0.00    +0.096 C 
BRANCH  27  28
ATOM     28  C   UNL     1     -13.041   0.596   7.369  0.00  0.00    +0.210 C 
ATOM     29  O   UNL     1     -12.268   0.433   8.290  0.00  0.00    -0.276 OA
ATOM     30  N   UNL     1     -14.321   0.937   7.617  0.00  0.00    -0.329 N 
ATOM     31  H   UNL     1     -14.940   1.067   6.881  0.00  0.00    +0.145 HD
ATOM     32  H   UNL     1     -14.624   1.052   8.531  0.00  0.00    +0.145 HD
ENDBRANCH  27  28
ENDBRANCH  26  27
ENDBRANCH  23  26
ENDBRANCH  18  19
ENDBRANCH   2  18
TORSDOF 8
