REMARK  Name = ZINC53030907
REMARK  7 active torsions:
REMARK  status: ('A' for Active; 'I' for Inactive)
REMARK    1  A    between atoms: C_1  and  C_2
REMARK    2  A    between atoms: C_2  and  C_3
REMARK    3  A    between atoms: C_2  and  C_4
REMARK    4  A    between atoms: C_4  and  N_5
REMARK    5  A    between atoms: N_5  and  C_6
REMARK    6  A    between atoms: C_6  and  C_7
REMARK    7  A    between atoms: N_11  and  C_13
REMARK                            x       y       z     vdW  Elec       q    Type
REMARK                         _______ _______ _______ _____ _____    ______ ____
ROOT
ATOM      1  C   UNL     1      -4.187  -0.253  -2.522  0.00  0.00    -0.009 C 
ATOM      2  C   UNL     1      -3.584  -1.016  -3.731  0.00  0.00    +0.022 C 
ATOM      3  C   UNL     1      -4.776  -1.024  -4.720  0.00  0.00    +0.105 C 
ATOM      4  N   UNL     1      -5.969  -1.199  -3.872  0.00  0.00    -0.327 N 
ATOM      5  C   UNL     1      -5.659  -0.719  -2.514  0.00  0.00    +0.107 C 
ENDROOT
BRANCH   4   6
ATOM      6  C   UNL     1      -7.196  -1.729  -4.289  0.00  0.00    +0.080 A 
ATOM      7  C   UNL     1      -8.180  -0.891  -4.802  0.00  0.00    +0.148 A 
ATOM      8  C   UNL     1      -9.390  -1.418  -5.213  0.00  0.00    +0.078 A 
ATOM      9  C   UNL     1      -9.623  -2.779  -5.113  0.00  0.00    +0.127 A 
ATOM     10  C   UNL     1      -8.646  -3.616  -4.602  0.00  0.00    +0.055 A 
ATOM     11  C   UNL     1      -7.431  -3.095  -4.196  0.00  0.00    +0.044 A 
ATOM     12 BR   UNL     1      -6.093  -4.239  -3.506  0.00  0.00    -0.048 Br
ATOM     13  F   UNL     1     -10.807  -3.292  -5.514  0.00  0.00    -0.205 F 
ATOM     14  F   UNL     1      -7.952   0.438  -4.899  0.00  0.00    -0.203 F 
ENDBRANCH   4   6
BRANCH   1  15
ATOM     15  C   UNL     1      -3.485  -0.656  -1.224  0.00  0.00    -0.078 C 
BRANCH  15  16
ATOM     16  N   UNL     1      -2.107  -0.147  -1.234  0.00  0.00    +0.379 N 
ATOM     17  H   UNL     1      -2.120   0.859  -1.311  0.00  0.00    -0.086 HD
ATOM     18  H   UNL     1      -1.610  -0.539  -2.020  0.00  0.00    -0.086 HD
BRANCH  16  19
ATOM     19  C   UNL     1      -1.433  -0.534   0.013  0.00  0.00    -0.080 C 
BRANCH  19  21
ATOM     20  C   UNL     1      -0.019   1.526   0.010  0.00  0.00    +0.005 C 
ATOM     21  C   UNL     1       0.002  -0.004   0.002  0.00  0.00    -0.034 C 
ATOM     22  C   UNL     1       0.742  -0.511   1.242  0.00  0.00    +0.005 C 
ENDBRANCH  19  21
ENDBRANCH  16  19
ENDBRANCH  15  16
ENDBRANCH   1  15
TORSDOF 5
