REMARK  Name = ZINC39853234
REMARK  10 active torsions:
REMARK  status: ('A' for Active; 'I' for Inactive)
REMARK    1  A    between atoms: C_1  and  C_2
REMARK    2  A    between atoms: N_6  and  C_7
REMARK    3  A    between atoms: C_15  and  C_33
REMARK    4  A    between atoms: C_15  and  C_34
REMARK    5  A    between atoms: N_18  and  O_19
REMARK    6  A    between atoms: O_19  and  C_20
REMARK    7  A    between atoms: C_20  and  C_22
REMARK    8  A    between atoms: C_25  and  C_32
REMARK    9  A    between atoms: C_26  and  C_27
REMARK   10  A    between atoms: C_26  and  C_28
REMARK                            x       y       z     vdW  Elec       q    Type
REMARK                         _______ _______ _______ _____ _____    ______ ____
ROOT
ATOM      1  C   UNL     1      -0.018   1.503   0.010  0.00  0.00    +0.064 C 
ATOM      2  C   UNL     1       0.002  -0.004   0.002  0.00  0.00    +0.022 A 
ATOM      3  C   UNL     1       0.008  -0.783  -1.102  0.00  0.00    +0.033 A 
ATOM      4  C   UNL     1       0.029  -2.153  -0.628  0.00  0.00    +0.021 A 
ATOM      5  C   UNL     1       0.032  -2.106   0.745  0.00  0.00    +0.033 A 
ATOM      6  N   UNL     1       0.024  -0.806   1.113  0.00  0.00    -0.317 N 
ATOM      7  C   UNL     1       0.047  -3.341   1.608  0.00  0.00    +0.061 C 
ATOM      8  C   UNL     1      -0.451  -4.537   0.791  0.00  0.00    -0.024 C 
ATOM      9  C   UNL     1       0.334  -4.662  -0.518  0.00  0.00    +0.066 C 
ATOM     10  C   UNL     1       0.047  -3.431  -1.366  0.00  0.00    +0.090 C 
ATOM     11  N   UNL     1      -0.167  -3.500  -2.642  0.00  0.00    -0.079 NA
ATOM     12  C   UNL     1      -1.935  -4.346   0.473  0.00  0.00    +0.011 C 
ATOM     13  C   UNL     1      -0.272  -5.816   1.611  0.00  0.00    +0.011 C 
ENDROOT
BRANCH   6  14
ATOM     14  C   UNL     1       0.031  -0.345   2.437  0.00  0.00    +0.047 A 
ATOM     15  C   UNL     1       1.134  -0.576   3.247  0.00  0.00    +0.027 A 
ATOM     16  C   UNL     1       1.139  -0.121   4.551  0.00  0.00    +0.022 A 
ATOM     17  C   UNL     1       0.046   0.566   5.049  0.00  0.00    +0.041 A 
ATOM     18  C   UNL     1      -1.054   0.798   4.243  0.00  0.00    +0.022 A 
ATOM     19  C   UNL     1      -1.062   0.349   2.937  0.00  0.00    +0.027 A 
ATOM     20 CL   UNL     1       0.056   1.137   6.689  0.00  0.00    -0.084 Cl
ENDBRANCH   6  14
BRANCH  11  21
ATOM     21  O   UNL     1      -0.138  -4.755  -3.298  0.00  0.00    -0.316 OA
BRANCH  21  22
ATOM     22  C   UNL     1      -0.375  -4.687  -4.617  0.00  0.00    +0.343 C 
ATOM     23  O   UNL     1      -0.588  -3.614  -5.140  0.00  0.00    -0.248 OA
BRANCH  22  24
ATOM     24  C   UNL     1      -0.376  -5.944  -5.448  0.00  0.00    +0.083 C 
ATOM     25  C   UNL     1      -1.451  -7.011  -5.077  0.00  0.00    +0.020 C 
ATOM     26  C   UNL     1      -1.555  -7.907  -6.332  0.00  0.00    +0.016 C 
ATOM     27  C   UNL     1      -0.540  -7.289  -7.341  0.00  0.00    +0.032 C 
ATOM     28  C   UNL     1      -0.662  -5.766  -6.982  0.00  0.00    -0.007 C 
ATOM     29  C   UNL     1      -2.075  -5.242  -7.246  0.00  0.00    +0.013 C 
ATOM     30  C   UNL     1       0.400  -4.907  -7.670  0.00  0.00    +0.013 C 
ATOM     31  C   UNL     1       0.839  -7.615  -6.751  0.00  0.00    +0.141 C 
ATOM     32  O   UNL     1       1.654  -8.396  -7.181  0.00  0.00    -0.297 OA
ATOM     33  C   UNL     1       0.971  -6.728  -5.507  0.00  0.00    +0.093 C 
ATOM     34  C   UNL     1      -0.755  -7.654  -8.812  0.00  0.00    +0.019 C 
ENDBRANCH  22  24
ENDBRANCH  21  22
ENDBRANCH  11  21
TORSDOF 4
