REMARK  Name = ZINC66802163
REMARK  9 active torsions:
REMARK  status: ('A' for Active; 'I' for Inactive)
REMARK    1  A    between atoms: C_1  and  C_2
REMARK    2  A    between atoms: C_2  and  C_4
REMARK    3  A    between atoms: C_2  and  S_7
REMARK    4  A    between atoms: C_4  and  C_5
REMARK    5  A    between atoms: S_7  and  C_8
REMARK    6  A    between atoms: C_13  and  N_14
REMARK    7  A    between atoms: C_15  and  C_17
REMARK    8  A    between atoms: C_24  and  S_26
REMARK    9  A    between atoms: S_26  and  C_27
REMARK                            x       y       z     vdW  Elec       q    Type
REMARK                         _______ _______ _______ _____ _____    ______ ____
ROOT
ATOM      1  N   UNL     1       0.885  -1.184  -4.329  0.00  0.00    -0.279 N 
ATOM      2  C   UNL     1       1.079  -1.654  -5.577  0.00  0.00    +0.269 C 
ATOM      3  O   UNL     1       0.400  -1.236  -6.498  0.00  0.00    -0.268 OA
ATOM      4  H   UNL     1       1.479  -1.454  -3.611  0.00  0.00    +0.155 HD
ENDROOT
BRANCH   2   5
ATOM      5  C   UNL     1       2.074  -2.634  -5.818  0.00  0.00    +0.152 A 
ATOM      6  C   UNL     1       2.393  -3.209  -7.054  0.00  0.00    +0.079 A 
ATOM      7  C   UNL     1       1.896  -3.040  -8.354  0.00  0.00    +0.028 A 
ATOM      8  C   UNL     1       2.433  -3.769  -9.373  0.00  0.00    +0.004 A 
ATOM      9  C   UNL     1       3.473  -4.675  -9.105  0.00  0.00    +0.018 A 
ATOM     10  C   UNL     1       3.941  -4.827  -7.849  0.00  0.00    +0.094 A 
ATOM     11  N   UNL     1       3.412  -4.103  -6.816  0.00  0.00    -0.294 N 
ATOM     12  C   UNL     1       3.688  -4.058  -5.478  0.00  0.00    +0.174 A 
ATOM     13  N   UNL     1       2.903  -3.189  -4.895  0.00  0.00    -0.216 NA
BRANCH  12  14
ATOM     14  S   UNL     1       4.920  -5.019  -4.664  0.00  0.00    -0.091 S 
ATOM     15  C   UNL     1       4.795  -4.512  -2.927  0.00  0.00    +0.093 C 
ENDBRANCH  12  14
ENDBRANCH   2   5
BRANCH   1  21
ATOM     16  C   UNL     1      -0.112   0.562  -2.978  0.00  0.00    +0.029 A 
ATOM     17  C   UNL     1      -1.163   1.433  -2.729  0.00  0.00    +0.016 A 
ATOM     18  C   UNL     1      -2.270   1.435  -3.556  0.00  0.00    +0.001 A 
ATOM     19  C   UNL     1      -2.335   0.569  -4.633  0.00  0.00    +0.002 A 
ATOM     20  C   UNL     1      -1.293  -0.303  -4.888  0.00  0.00    +0.024 A 
ATOM     21  C   UNL     1      -0.175  -0.306  -4.068  0.00  0.00    +0.047 A 
BRANCH  16  22
ATOM     22  S   UNL     1       1.301   0.558  -1.925  0.00  0.00    -0.119 S 
BRANCH  22  24
ATOM     23  C   UNL     1       1.117   3.250  -1.472  0.00  0.00    +0.020 C 
ATOM     24  C   UNL     1       0.979   1.906  -0.754  0.00  0.00    +0.062 C 
BRANCH  24  25
ATOM     25  C   UNL     1       1.989   1.836   0.394  0.00  0.00    +0.132 C 
BRANCH  25  26
ATOM     26  C   UNL     1       1.777   0.596   1.159  0.00  0.00    +0.064 C 
ATOM     27  N   UNL     1       1.613  -0.360   1.749  0.00  0.00    -0.197 NA
ENDBRANCH  25  26
ENDBRANCH  24  25
ENDBRANCH  22  24
ENDBRANCH  16  22
ENDBRANCH   1  21
TORSDOF 7
