REMARK  Name = ZINC38806023
REMARK  3 active torsions:
REMARK  status: ('A' for Active; 'I' for Inactive)
REMARK    1  A    between atoms: C_5  and  C_17
REMARK    2  A    between atoms: C_7  and  C_15
REMARK    3  A    between atoms: C_10  and  C_11
REMARK                            x       y       z     vdW  Elec       q    Type
REMARK                         _______ _______ _______ _____ _____    ______ ____
ROOT
ATOM      1  C   UNL     1      -0.017   1.400   0.010  0.00  0.00    +0.014 A 
ATOM      2  C   UNL     1       1.119   2.130   0.003  0.00  0.00    +0.026 A 
ATOM      3  C   UNL     1       2.417   1.435  -0.013  0.00  0.00    +0.044 A 
ATOM      4  N   UNL     1       3.641   1.878  -0.023  0.00  0.00    -0.373 N 
ATOM      5  C   UNL     1       4.569   0.743  -0.038  0.00  0.00    +0.144 C 
ATOM      6  C   UNL     1       3.708  -0.501  -0.036  0.00  0.00    +0.027 C 
ATOM      7  C   UNL     1       2.401  -0.049  -0.021  0.00  0.00    +0.007 A 
ATOM      8  C   UNL     1       1.152  -0.714  -0.012  0.00  0.00    +0.022 A 
ATOM      9  C   UNL     1       0.002  -0.004   0.002  0.00  0.00    +0.056 A 
ATOM     10  H   UNL     1       3.899   2.813  -0.021  0.00  0.00    +0.161 HD
ENDROOT
BRANCH   5  11
ATOM     11  C   UNL     1       5.444   0.771   1.188  0.00  0.00    -0.018 A 
ATOM     12  C   UNL     1       4.927   1.143   2.420  0.00  0.00    +0.025 A 
ATOM     13  C   UNL     1       5.760   1.157   3.523  0.00  0.00    +0.111 A 
ATOM     14  N   UNL     1       7.032   0.824   3.413  0.00  0.00    -0.263 NA
ATOM     15  C   UNL     1       7.557   0.466   2.257  0.00  0.00    +0.111 A 
ATOM     16  C   UNL     1       6.784   0.422   1.112  0.00  0.00    +0.025 A 
ENDBRANCH   5  11
BRANCH   9  17
ATOM     17  C   UNL     1      -1.309  -0.747   0.011  0.00  0.00    +0.417 C 
ATOM     18  F   UNL     1      -2.365   0.170   0.026  0.00  0.00    -0.166 F 
ATOM     19  F   UNL     1      -1.400  -1.545  -1.135  0.00  0.00    -0.166 F 
ATOM     20  F   UNL     1      -1.379  -1.557   1.149  0.00  0.00    -0.166 F 
ENDBRANCH   9  17
BRANCH   6  21
ATOM     21  C   UNL     1       4.147  -1.843  -0.049  0.00  0.00    +0.257 C 
ATOM     22  O   UNL     1       3.336  -2.747  -0.046  0.00  0.00    -0.296 OA
ENDBRANCH   6  21
TORSDOF 3
