REMARK  Name = ZINC19995822
REMARK  9 active torsions:
REMARK  status: ('A' for Active; 'I' for Inactive)
REMARK    1  A    between atoms: C_1  and  N_2
REMARK    2  A    between atoms: N_2  and  C_3
REMARK    3  A    between atoms: N_2  and  C_4
REMARK    4  A    between atoms: C_4  and  C_6
REMARK    5  A    between atoms: C_4  and  C_18
REMARK    6  A    between atoms: C_6  and  N_7
REMARK    7  A    between atoms: N_7  and  C_8
REMARK    8  A    between atoms: C_8  and  C_9
REMARK    9  A    between atoms: C_14  and  O_15
REMARK                            x       y       z     vdW  Elec       q    Type
REMARK                         _______ _______ _______ _____ _____    ______ ____
ROOT
ATOM      1  N   UNL     1      -1.395   0.299   2.336  0.00  0.00    -0.310 NA
ATOM      2  H   UNL     1      -1.066  -0.573   2.723  0.00  0.00    +0.122 HD
ENDROOT
BRANCH   1   3
ATOM      3  C   UNL     1      -2.164   0.072   1.106  0.00  0.00    +0.108 C 
BRANCH   3   4
ATOM      4  C   UNL     1      -1.310  -0.709   0.106  0.00  0.00    +0.136 C 
BRANCH   4   5
ATOM      5  C   UNL     1      -2.048  -0.826  -1.203  0.00  0.00    +0.123 A 
ATOM      6  C   UNL     1      -2.614  -1.945  -1.690  0.00  0.00    +0.046 A 
ATOM      7  C   UNL     1      -3.193  -1.603  -2.934  0.00  0.00    +0.041 A 
ATOM      8  C   UNL     1      -2.946  -0.296  -3.132  0.00  0.00    +0.195 A 
ATOM      9  O   UNL     1      -2.257   0.171  -2.078  0.00  0.00    -0.466 OA
ENDBRANCH   4   5
BRANCH   4  11
ATOM     10  C   UNL     1       0.837  -0.760  -1.013  0.00  0.00    +0.105 C 
ATOM     11  N   UNL     1      -0.040  -0.003  -0.110  0.00  0.00    -0.298 NA
ATOM     12  C   UNL     1      -0.272   1.355  -0.618  0.00  0.00    +0.105 C 
ENDBRANCH   4  11
ENDBRANCH   3   4
ENDBRANCH   1   3
BRANCH   1  13
ATOM     13  C   UNL     1      -2.185   1.049   3.321  0.00  0.00    +0.120 C 
BRANCH  13  14
ATOM     14  C   UNL     1      -1.365   1.262   4.567  0.00  0.00    +0.011 A 
ATOM     15  C   UNL     1      -1.551   0.445   5.666  0.00  0.00    +0.028 A 
ATOM     16  C   UNL     1      -0.798   0.640   6.810  0.00  0.00    +0.043 A 
ATOM     17  C   UNL     1       0.143   1.654   6.857  0.00  0.00    +0.043 A 
ATOM     18  C   UNL     1       0.333   2.473   5.760  0.00  0.00    +0.084 A 
ATOM     19  C   UNL     1      -0.418   2.274   4.609  0.00  0.00    +0.140 A 
ATOM     20 CL   UNL     1       1.513   3.744   5.819  0.00  0.00    -0.080 Cl
ATOM     21 CL   UNL     1      -1.035  -0.387   8.189  0.00  0.00    -0.083 Cl
BRANCH  19  22
ATOM     22  O   UNL     1      -0.229   3.075   3.526  0.00  0.00    -0.505 OA
ATOM     23  H   UNL     1      -0.786   3.865   3.520  0.00  0.00    +0.292 HD
ENDBRANCH  19  22
ENDBRANCH  13  14
ENDBRANCH   1  13
TORSDOF 7
