REMARK  Name = ZINC02423923
REMARK  9 active torsions:
REMARK  status: ('A' for Active; 'I' for Inactive)
REMARK    1  A    between atoms: C_1  and  C_2
REMARK    2  A    between atoms: C_2  and  C_4
REMARK    3  A    between atoms: C_2  and  N_12
REMARK    4  A    between atoms: C_4  and  C_5
REMARK    5  A    between atoms: C_5  and  C_6
REMARK    6  A    between atoms: C_13  and  C_15
REMARK    7  A    between atoms: N_26  and  C_29
REMARK    8  A    between atoms: C_27  and  N_28
REMARK    9  A    between atoms: C_29  and  C_30
REMARK                            x       y       z     vdW  Elec       q    Type
REMARK                         _______ _______ _______ _____ _____    ______ ____
ROOT
ATOM      1  C   UNL     1       5.867  -4.465   0.676  0.00  0.00    +0.103 A 
ATOM      2  C   UNL     1       6.206  -5.575  -0.228  0.00  0.00    +0.122 A 
ATOM      3  C   UNL     1       6.086  -6.789   0.586  0.00  0.00    +0.162 A 
ATOM      4  N   UNL     1       6.336  -7.960   0.041  0.00  0.00    -0.226 NA
ATOM      5  C   UNL     1       6.689  -8.034  -1.249  0.00  0.00    +0.092 A 
ATOM      6  C   UNL     1       6.954  -9.284  -1.840  0.00  0.00    +0.030 A 
ATOM      7  C   UNL     1       7.318  -9.349  -3.149  0.00  0.00    +0.002 A 
ATOM      8  C   UNL     1       7.434  -8.194  -3.920  0.00  0.00    +0.002 A 
ATOM      9  C   UNL     1       7.187  -6.968  -3.384  0.00  0.00    +0.030 A 
ATOM     10  C   UNL     1       6.807  -6.860  -2.033  0.00  0.00    +0.090 A 
ATOM     11  N   UNL     1       6.561  -5.659  -1.495  0.00  0.00    -0.241 NA
ATOM     12  N   UNL     1       5.700  -6.390   1.849  0.00  0.00    -0.308 N 
ATOM     13  C   UNL     1       5.570  -5.037   1.909  0.00  0.00    +0.113 A 
ENDROOT
BRANCH   1  15
ATOM     14  N   UNL     1       4.707  -2.481  -0.124  0.00  0.00    -0.309 N 
ATOM     15  C   UNL     1       5.840  -3.042   0.343  0.00  0.00    +0.250 C 
ATOM     16  O   UNL     1       6.841  -2.365   0.487  0.00  0.00    -0.270 OA
ATOM     17  H   UNL     1       3.910  -3.021  -0.239  0.00  0.00    +0.149 HD
BRANCH  14  19
ATOM     18  C   UNL     1       5.194  -0.856  -1.886  0.00  0.00    +0.028 C 
ATOM     19  C   UNL     1       4.681  -1.055  -0.459  0.00  0.00    +0.070 C 
BRANCH  19  20
ATOM     20  C   UNL     1       3.246  -0.533  -0.355  0.00  0.00    +0.026 C 
BRANCH  20  21
ATOM     21  C   UNL     1       2.776  -0.617   1.098  0.00  0.00    +0.037 C 
BRANCH  21  22
ATOM     22  C   UNL     1       1.363  -0.104   1.200  0.00  0.00    -0.047 A 
ATOM     23  C   UNL     1       0.299  -0.974   1.048  0.00  0.00    +0.003 A 
ATOM     24  C   UNL     1      -0.997  -0.502   1.141  0.00  0.00    +0.000 A 
ATOM     25  C   UNL     1      -1.230   0.838   1.385  0.00  0.00    +0.000 A 
ATOM     26  C   UNL     1      -0.166   1.708   1.537  0.00  0.00    +0.000 A 
ATOM     27  C   UNL     1       1.130   1.237   1.444  0.00  0.00    +0.003 A 
ENDBRANCH  21  22
ENDBRANCH  20  21
ENDBRANCH  19  20
ENDBRANCH  14  19
ENDBRANCH   1  15
BRANCH  13  28
ATOM     28  N   UNL     1       5.200  -4.336   3.027  0.00  0.00    -0.344 N 
ATOM     29  H   UNL     1       5.215  -3.366   3.018  0.00  0.00    +0.144 HD
ATOM     30  H   UNL     1       4.922  -4.809   3.826  0.00  0.00    +0.144 HD
ENDBRANCH  13  28
BRANCH  12  31
ATOM     31  C   UNL     1       5.462  -7.300   2.972  0.00  0.00    +0.161 C 
BRANCH  31  32
ATOM     32  C   UNL     1       6.719  -7.424   3.793  0.00  0.00    -0.009 A 
ATOM     33  C   UNL     1       6.925  -6.588   4.874  0.00  0.00    +0.007 A 
ATOM     34  C   UNL     1       8.079  -6.702   5.627  0.00  0.00    +0.000 A 
ATOM     35  C   UNL     1       9.027  -7.653   5.299  0.00  0.00    +0.001 A 
ATOM     36  C   UNL     1       8.822  -8.490   4.219  0.00  0.00    +0.020 A 
ATOM     37  C   UNL     1       7.665  -8.380   3.468  0.00  0.00    +0.046 A 
ATOM     38 CL   UNL     1       7.404  -9.436   2.115  0.00  0.00    -0.083 Cl
ENDBRANCH  31  32
ENDBRANCH  12  31
TORSDOF 8
