REMARK  Name = ZINC36523622
REMARK  10 active torsions:
REMARK  status: ('A' for Active; 'I' for Inactive)
REMARK    1  A    between atoms: C_1  and  N_2
REMARK    2  A    between atoms: N_2  and  C_3
REMARK    3  A    between atoms: C_3  and  C_5
REMARK    4  A    between atoms: C_3  and  C_12
REMARK    5  A    between atoms: C_10  and  O_11
REMARK    6  A    between atoms: N_14  and  C_15
REMARK    7  A    between atoms: C_21  and  C_23
REMARK    8  A    between atoms: C_29  and  O_31
REMARK    9  A    between atoms: O_31  and  C_32
REMARK   10  A    between atoms: C_32  and  C_33
REMARK                            x       y       z     vdW  Elec       q    Type
REMARK                         _______ _______ _______ _____ _____    ______ ____
ROOT
ATOM      1  C   UNL     1      -0.254   1.559   0.264  0.00  0.00    +0.133 C 
ATOM      2  N   UNL     1      -0.096   0.113   0.093  0.00  0.00    -0.287 N 
ATOM      3  C   UNL     1      -0.164  -0.431  -1.137  0.00  0.00    +0.237 C 
ATOM      4  O   UNL     1      -0.034  -1.629  -1.279  0.00  0.00    -0.274 OA
ENDROOT
BRANCH   3   5
ATOM      5  C   UNL     1      -0.402   0.448  -2.338  0.00  0.00    +0.165 C 
ATOM      6  C   UNL     1       0.920   1.122  -2.765  0.00  0.00    +0.033 C 
ATOM      7  C   UNL     1       0.838   1.097  -4.314  0.00  0.00    +0.021 C 
ATOM      8  C   UNL     1       0.120  -0.252  -4.566  0.00  0.00    +0.112 C 
ATOM      9  N   UNL     1      -0.865  -0.367  -3.471  0.00  0.00    -0.256 N 
ATOM     10  C   UNL     1      -1.998  -1.097  -3.502  0.00  0.00    +0.404 C 
ATOM     11  O   UNL     1      -2.734  -1.117  -2.535  0.00  0.00    -0.226 OA
BRANCH  10  12
ATOM     12  O   UNL     1      -2.313  -1.804  -4.603  0.00  0.00    -0.445 OA
BRANCH  12  13
ATOM     13  C   UNL     1      -3.528  -2.555  -4.566  0.00  0.00    +0.269 C 
BRANCH  13  14
ATOM     14  C   UNL     1      -3.713  -3.276  -5.877  0.00  0.00    -0.010 A 
ATOM     15  C   UNL     1      -4.389  -2.661  -6.914  0.00  0.00    +0.007 A 
ATOM     16  C   UNL     1      -4.559  -3.323  -8.116  0.00  0.00    +0.000 A 
ATOM     17  C   UNL     1      -4.052  -4.598  -8.281  0.00  0.00    +0.000 A 
ATOM     18  C   UNL     1      -3.376  -5.213  -7.244  0.00  0.00    +0.000 A 
ATOM     19  C   UNL     1      -3.202  -4.550  -6.043  0.00  0.00    +0.007 A 
ENDBRANCH  13  14
ENDBRANCH  12  13
ENDBRANCH  10  12
ENDBRANCH   3   5
BRANCH   2  20
ATOM     20  C   UNL     1       0.135  -0.742   1.261  0.00  0.00    +0.195 C 
BRANCH  20  21
ATOM     21  C   UNL     1       1.368  -0.274   1.989  0.00  0.00    +0.023 A 
ATOM     22  C   UNL     1       1.247   0.463   3.151  0.00  0.00    +0.009 A 
ATOM     23  C   UNL     1       2.378   0.892   3.820  0.00  0.00    +0.001 A 
ATOM     24  C   UNL     1       3.634   0.585   3.328  0.00  0.00    +0.004 A 
ATOM     25  C   UNL     1       3.760  -0.152   2.167  0.00  0.00    +0.046 A 
ATOM     26  C   UNL     1       2.626  -0.589   1.497  0.00  0.00    +0.122 A 
BRANCH  26  27
ATOM     27  O   UNL     1       2.748  -1.319   0.357  0.00  0.00    -0.506 OA
ATOM     28  H   UNL     1       2.783  -0.787  -0.449  0.00  0.00    +0.292 HD
ENDBRANCH  26  27
ENDBRANCH  20  21
BRANCH  20  29
ATOM     29  C   UNL     1      -1.054  -0.663   2.184  0.00  0.00    +0.238 C 
ATOM     30  O   UNL     1      -2.001   0.037   1.895  0.00  0.00    -0.273 OA
ATOM     31  N   UNL     1      -1.065  -1.372   3.330  0.00  0.00    -0.311 N 
ATOM     32  H   UNL     1      -0.308  -1.933   3.561  0.00  0.00    +0.149 HD
BRANCH  31  33
ATOM     33  C   UNL     1      -2.220  -1.296   4.228  0.00  0.00    +0.073 C 
ATOM     34  C   UNL     1      -2.071  -0.084   5.150  0.00  0.00    +0.022 C 
ATOM     35  C   UNL     1      -3.278  -0.004   6.087  0.00  0.00    +0.002 C 
ATOM     36  C   UNL     1      -3.355  -1.280   6.929  0.00  0.00    +0.000 C 
ATOM     37  C   UNL     1      -3.504  -2.491   6.007  0.00  0.00    +0.002 C 
ATOM     38  C   UNL     1      -2.297  -2.571   5.069  0.00  0.00    +0.022 C 
ENDBRANCH  31  33
ENDBRANCH  20  29
ENDBRANCH   2  20
TORSDOF 9
