REMARK  Name = ZINC65760609
REMARK  9 active torsions:
REMARK  status: ('A' for Active; 'I' for Inactive)
REMARK    1  A    between atoms: C_1  and  C_2
REMARK    2  A    between atoms: C_4  and  C_25
REMARK    3  A    between atoms: N_6  and  C_8
REMARK    4  A    between atoms: C_8  and  C_9
REMARK    5  A    between atoms: C_9  and  C_10
REMARK    6  A    between atoms: C_9  and  N_11
REMARK    7  A    between atoms: C_12  and  C_14
REMARK    8  A    between atoms: C_16  and  S_21
REMARK    9  A    between atoms: S_21  and  N_24
REMARK                            x       y       z     vdW  Elec       q    Type
REMARK                         _______ _______ _______ _____ _____    ______ ____
ROOT
ATOM      1  N   UNL     1       3.187  -0.687   2.042  0.00  0.00    -0.310 N 
ATOM      2  C   UNL     1       4.187  -0.191   1.286  0.00  0.00    +0.246 C 
ATOM      3  O   UNL     1       4.949  -0.945   0.714  0.00  0.00    -0.270 OA
ATOM      4  H   UNL     1       2.579  -0.085   2.499  0.00  0.00    +0.149 HD
ENDROOT
BRANCH   2   5
ATOM      5  C   UNL     1       4.357   1.271   1.154  0.00  0.00    +0.057 A 
ATOM      6  C   UNL     1       3.487   2.141   1.815  0.00  0.00    +0.043 A 
ATOM      7  C   UNL     1       3.651   3.504   1.688  0.00  0.00    +0.106 A 
ATOM      8  C   UNL     1       4.675   4.012   0.907  0.00  0.00    +0.030 A 
ATOM      9  C   UNL     1       5.540   3.158   0.249  0.00  0.00    +0.022 A 
ATOM     10  C   UNL     1       5.392   1.790   0.372  0.00  0.00    +0.053 A 
ATOM     11 CL   UNL     1       6.483   0.718  -0.448  0.00  0.00    -0.083 Cl
BRANCH   7  12
ATOM     12  S   UNL     1       2.555   4.603   2.522  0.00  0.00    +0.056 S 
ATOM     13  O   UNL     1       2.585   5.829   1.804  0.00  0.00    -0.153 OA
ATOM     14  O   UNL     1       1.351   3.882   2.747  0.00  0.00    -0.153 OA
BRANCH  12  15
ATOM     15  N   UNL     1       3.208   4.910   4.012  0.00  0.00    -0.204 NA
ATOM     16  H   UNL     1       4.050   4.500   4.266  0.00  0.00    +0.144 HD
ATOM     17  H   UNL     1       2.750   5.500   4.630  0.00  0.00    +0.144 HD
ENDBRANCH  12  15
ENDBRANCH   7  12
ENDBRANCH   2   5
BRANCH   1  18
ATOM     18  C   UNL     1       3.019  -2.137   2.173  0.00  0.00    +0.054 C 
ATOM     19  C   UNL     1       3.869  -2.646   3.338  0.00  0.00    +0.026 C 
BRANCH  18  20
ATOM     20  C   UNL     1       1.546  -2.457   2.438  0.00  0.00    -0.057 C 
BRANCH  20  26
ATOM     21  C   UNL     1      -3.043  -1.576   0.981  0.00  0.00    +0.005 C 
ATOM     22  C   UNL     1      -1.565  -1.380   0.637  0.00  0.00    -0.031 C 
ATOM     23  C   UNL     1      -1.270  -2.007  -0.728  0.00  0.00    +0.003 C 
ATOM     24  C   UNL     1       0.226  -1.874  -1.027  0.00  0.00    -0.031 C 
ATOM     25  C   UNL     1       1.026  -2.534   0.099  0.00  0.00    -0.076 C 
ATOM     26  N   UNL     1       0.719  -1.873   1.373  0.00  0.00    +0.381 N 
ATOM     27  C   UNL     1      -0.700  -2.058   1.702  0.00  0.00    -0.076 C 
ATOM     28  C   UNL     1       0.599  -0.393  -1.119  0.00  0.00    +0.005 C 
ATOM     29  H   UNL     1       0.920  -0.887   1.297  0.00  0.00    -0.082 HD
ENDBRANCH  20  26
ENDBRANCH  18  20
ENDBRANCH   1  18
TORSDOF 6
