REMARK  Name = ZINC00227182
REMARK  2 active torsions:
REMARK  status: ('A' for Active; 'I' for Inactive)
REMARK    1  A    between atoms: C_6  and  C_16
REMARK    2  A    between atoms: C_7  and  N_9
REMARK                            x       y       z     vdW  Elec       q    Type
REMARK                         _______ _______ _______ _____ _____    ______ ____
ROOT
ATOM      1  C   UNL     1      -0.736   1.583   1.263  0.00  0.00    +0.005 C 
ATOM      2  C   UNL     1      -0.013   1.086   0.008  0.00  0.00    +0.005 C 
ATOM      3  C   UNL     1      -0.761   1.597  -1.231  0.00  0.00    +0.043 C 
ATOM      4  C   UNL     1      -1.035   3.059  -1.048  0.00  0.00    -0.004 A 
ATOM      5  C   UNL     1      -0.956   3.769   0.101  0.00  0.00    -0.018 A 
ATOM      6  C   UNL     1      -1.274   5.182   0.006  0.00  0.00    +0.088 A 
ATOM      7  C   UNL     1      -1.632   5.684  -1.247  0.00  0.00    +0.120 A 
ATOM      8  S   UNL     1      -1.531   4.233  -2.279  0.00  0.00    -0.073 S 
ATOM      9  C   UNL     1      -0.550   3.093   1.407  0.00  0.00    +0.037 C 
ENDROOT
BRANCH   7  10
ATOM     10  N   UNL     1      -1.971   6.955  -1.592  0.00  0.00    -0.232 NA
ATOM     11  C   UNL     1      -2.279   7.235  -2.830  0.00  0.00    +0.185 C 
ATOM     12  N   UNL     1      -2.619   8.512  -3.177  0.00  0.00    -0.321 N 
ATOM     13  C   UNL     1      -2.686   9.660  -2.260  0.00  0.00    +0.106 C 
ATOM     14  C   UNL     1      -3.135  10.882  -3.089  0.00  0.00    +0.020 C 
ATOM     15  C   UNL     1      -3.849  10.232  -4.303  0.00  0.00    +0.020 C 
ATOM     16  C   UNL     1      -2.987   8.965  -4.530  0.00  0.00    +0.106 C 
ENDBRANCH   7  10
BRANCH   6  17
ATOM     17  C   UNL     1      -1.223   6.032   1.158  0.00  0.00    +0.102 C 
ATOM     18  N   UNL     1      -1.182   6.706   2.071  0.00  0.00    -0.191 NA
ENDBRANCH   6  17
TORSDOF 2
