REMARK  Name = ZINC06196145
REMARK  11 active torsions:
REMARK  status: ('A' for Active; 'I' for Inactive)
REMARK    1  A    between atoms: C_1  and  C_2
REMARK    2  A    between atoms: C_2  and  O_3
REMARK    3  A    between atoms: O_3  and  C_4
REMARK    4  A    between atoms: C_6  and  C_19
REMARK    5  A    between atoms: C_9  and  O_10
REMARK    6  A    between atoms: O_10  and  C_11
REMARK    7  A    between atoms: C_11  and  C_12
REMARK    8  A    between atoms: C_32  and  C_38
REMARK    9  A    between atoms: C_33  and  C_34
REMARK   10  A    between atoms: C_34  and  O_36
REMARK   11  A    between atoms: O_36  and  C_37
REMARK                            x       y       z     vdW  Elec       q    Type
REMARK                         _______ _______ _______ _____ _____    ______ ____
ROOT
ATOM      1  C   UNL     1       2.471   6.707   0.021  0.00  0.00    +0.093 C 
ATOM      2  C   UNL     1       1.656   5.437   0.017  0.00  0.00    +0.034 C 
ATOM      3  C   UNL     1       2.230   4.196   0.002  0.00  0.00    +0.047 C 
ATOM      4  C   UNL     1       1.169   3.168   0.008  0.00  0.00    +0.007 A 
ATOM      5  C   UNL     1       1.184   1.784   0.000  0.00  0.00    +0.010 A 
ATOM      6  C   UNL     1      -0.013   1.076   0.008  0.00  0.00    +0.001 A 
ATOM      7  C   UNL     1      -1.217   1.745   0.017  0.00  0.00    +0.001 A 
ATOM      8  C   UNL     1      -1.246   3.136   0.032  0.00  0.00    +0.012 A 
ATOM      9  C   UNL     1      -0.064   3.848   0.024  0.00  0.00    +0.031 A 
ATOM     10  C   UNL     1       0.253   5.306   0.029  0.00  0.00    +0.193 C 
ATOM     11  O   UNL     1      -0.554   6.215   0.042  0.00  0.00    -0.287 OA
ATOM     12  N   UNL     1       3.597   4.024  -0.018  0.00  0.00    -0.317 N 
ATOM     13  C   UNL     1       4.378   5.115  -0.296  0.00  0.00    +0.016 C 
ATOM     14  C   UNL     1       3.904   6.369  -0.294  0.00  0.00    +0.065 C 
ATOM     15  C   UNL     1       5.834   4.896  -0.616  0.00  0.00    +0.061 C 
ATOM     16  H   UNL     1       4.029   3.033   0.184  0.00  0.00    +0.152 HD
ENDROOT
BRANCH   1  19
ATOM     17  C   UNL     1       1.816   9.229   2.757  0.00  0.00    +0.162 A 
ATOM     18  C   UNL     1       1.893   8.636   1.507  0.00  0.00    +0.054 A 
ATOM     19  C   UNL     1       2.393   7.353   1.380  0.00  0.00    -0.031 A 
ATOM     20  C   UNL     1       2.827   6.664   2.498  0.00  0.00    +0.008 A 
ATOM     21  C   UNL     1       2.757   7.252   3.747  0.00  0.00    +0.050 A 
ATOM     22  C   UNL     1       2.252   8.535   3.881  0.00  0.00    +0.162 A 
BRANCH  17  23
ATOM     23  O   UNL     1       1.319  10.489   2.884  0.00  0.00    -0.489 OA
BRANCH  23  25
ATOM     24  C   UNL     1       0.367  12.537   2.026  0.00  0.00    +0.048 C 
ATOM     25  C   UNL     1       0.890  11.140   1.686  0.00  0.00    +0.226 C 
ENDBRANCH  23  25
ENDBRANCH  17  23
BRANCH  22  26
ATOM     26  O   UNL     1       2.182   9.115   5.109  0.00  0.00    -0.484 OA
BRANCH  26  27
ATOM     27  C   UNL     1       2.648   8.343   6.218  0.00  0.00    +0.264 C 
BRANCH  27  28
ATOM     28  C   UNL     1       2.494   9.142   7.487  0.00  0.00    -0.010 A 
ATOM     29  C   UNL     1       3.526   9.953   7.921  0.00  0.00    +0.008 A 
ATOM     30  C   UNL     1       3.383  10.691   9.082  0.00  0.00    +0.020 A 
ATOM     31  C   UNL     1       2.212  10.609   9.813  0.00  0.00    +0.041 A 
ATOM     32  C   UNL     1       1.182   9.793   9.380  0.00  0.00    +0.020 A 
ATOM     33  C   UNL     1       1.323   9.060   8.217  0.00  0.00    +0.008 A 
ATOM     34 CL   UNL     1       2.034  11.531  11.274  0.00  0.00    -0.084 Cl
ENDBRANCH  27  28
ENDBRANCH  26  27
ENDBRANCH  22  26
ENDBRANCH   1  19
BRANCH  14  35
ATOM     35  C   UNL     1       4.792   7.425  -0.605  0.00  0.00    +0.337 C 
ATOM     36  O   UNL     1       5.956   7.184  -0.865  0.00  0.00    -0.245 OA
BRANCH  35  37
ATOM     37  O   UNL     1       4.349   8.699  -0.613  0.00  0.00    -0.465 OA
ATOM     38  C   UNL     1       5.300   9.716  -0.936  0.00  0.00    +0.280 C 
ENDBRANCH  35  37
ENDBRANCH  14  35
TORSDOF 8
