REMARK  Name = ZINC25463515
REMARK  7 active torsions:
REMARK  status: ('A' for Active; 'I' for Inactive)
REMARK    1  A    between atoms: C_1  and  N_2
REMARK    2  A    between atoms: N_5  and  C_8
REMARK    3  A    between atoms: C_8  and  C_9
REMARK    4  A    between atoms: N_19  and  C_20
REMARK    5  A    between atoms: C_20  and  C_21
REMARK    6  A    between atoms: C_23  and  C_26
REMARK    7  A    between atoms: C_29  and  N_32
REMARK                            x       y       z     vdW  Elec       q    Type
REMARK                         _______ _______ _______ _____ _____    ______ ____
ROOT
ATOM      1  C   UNL     1       2.367  -4.437   1.071  0.00  0.00    +0.127 A 
ATOM      2  N   UNL     1       2.919  -3.539   1.830  0.00  0.00    -0.232 NA
ATOM      3  C   UNL     1       3.752  -3.881   2.845  0.00  0.00    +0.078 A 
ATOM      4  C   UNL     1       4.346  -2.917   3.662  0.00  0.00    +0.028 A 
ATOM      5  C   UNL     1       5.185  -3.309   4.680  0.00  0.00    +0.002 A 
ATOM      6  C   UNL     1       5.449  -4.653   4.907  0.00  0.00    +0.001 A 
ATOM      7  C   UNL     1       4.875  -5.623   4.114  0.00  0.00    +0.015 A 
ATOM      8  C   UNL     1       4.023  -5.248   3.078  0.00  0.00    +0.065 A 
ATOM      9  C   UNL     1       3.382  -6.238   2.201  0.00  0.00    +0.262 A 
ATOM     10  O   UNL     1       3.573  -7.431   2.348  0.00  0.00    -0.267 OA
ATOM     11  N   UNL     1       2.566  -5.772   1.227  0.00  0.00    -0.289 N 
ENDROOT
BRANCH   1  12
ATOM     12  C   UNL     1       1.453  -3.974  -0.034  0.00  0.00    +0.158 C 
BRANCH  12  17
ATOM     13  C   UNL     1      -0.018   1.465   0.010  0.00  0.00    -0.096 C 
ATOM     14  N   UNL     1       0.002  -0.004   0.002  0.00  0.00    +0.379 N 
ATOM     15  C   UNL     1       0.688  -0.477  -1.207  0.00  0.00    -0.064 C 
ATOM     16  C   UNL     1       0.693  -2.008  -1.226  0.00  0.00    +0.066 C 
ATOM     17  N   UNL     1       1.378  -2.507  -0.025  0.00  0.00    -0.299 NA
ATOM     18  C   UNL     1       0.717  -2.021   1.194  0.00  0.00    +0.066 C 
ATOM     19  C   UNL     1       0.713  -0.490   1.192  0.00  0.00    -0.064 C 
ATOM     20  H   UNL     1      -0.945  -0.353   0.010  0.00  0.00    -0.082 HD
ENDBRANCH  12  17
ENDBRANCH   1  12
BRANCH  11  21
ATOM     21  C   UNL     1       1.896  -6.715   0.328  0.00  0.00    +0.189 C 
BRANCH  21  22
ATOM     22  C   UNL     1       2.773  -6.976  -0.870  0.00  0.00    +0.099 A 
ATOM     23  N   UNL     1       3.681  -7.905  -1.021  0.00  0.00    -0.242 NA
ATOM     24  C   UNL     1       4.379  -8.011  -2.143  0.00  0.00    +0.078 A 
ATOM     25  C   UNL     1       4.096  -7.101  -3.126  0.00  0.00    +0.075 A 
ATOM     26  S   UNL     1       2.811  -6.148  -2.334  0.00  0.00    -0.078 S 
BRANCH  24  27
ATOM     27  C   UNL     1       5.412  -9.061  -2.323  0.00  0.00    +0.001 A 
ATOM     28  C   UNL     1       6.130  -9.138  -3.515  0.00  0.00    +0.012 A 
ATOM     29  C   UNL     1       7.089 -10.116  -3.678  0.00  0.00    +0.033 A 
ATOM     30  C   UNL     1       7.339 -11.020  -2.660  0.00  0.00    +0.126 A 
ATOM     31  C   UNL     1       6.629 -10.948  -1.475  0.00  0.00    +0.033 A 
ATOM     32  C   UNL     1       5.672  -9.970  -1.299  0.00  0.00    +0.012 A 
BRANCH  30  33
ATOM     33  N   UNL     1       8.369 -12.067  -2.840  0.00  0.00    +0.056 N 
ATOM     34  O   UNL     1       8.991 -12.132  -3.875  0.00  0.00    -0.126 OA
ATOM     35  O   UNL     1       8.589 -12.858  -1.953  0.00  0.00    -0.126 OA
ENDBRANCH  30  33
ENDBRANCH  24  27
ENDBRANCH  21  22
ENDBRANCH  11  21
TORSDOF 6
