REMARK  Name = ZINC40445931
REMARK  7 active torsions:
REMARK  status: ('A' for Active; 'I' for Inactive)
REMARK    1  A    between atoms: C_1  and  C_2
REMARK    2  A    between atoms: C_3  and  C_8
REMARK    3  A    between atoms: C_5  and  C_7
REMARK    4  A    between atoms: C_8  and  C_10
REMARK    5  A    between atoms: C_8  and  N_11
REMARK    6  A    between atoms: N_11  and  C_12
REMARK    7  A    between atoms: C_12  and  C_13
REMARK                            x       y       z     vdW  Elec       q    Type
REMARK                         _______ _______ _______ _____ _____    ______ ____
ROOT
ATOM      1  N   UNL     1       0.978  -0.966  -3.371  0.00  0.00    +0.386 N 
ATOM      2  H   UNL     1       1.883  -0.898  -2.931  0.00  0.00    -0.085 HD
ATOM      3  H   UNL     1       0.700  -1.935  -3.421  0.00  0.00    -0.085 HD
ENDROOT
BRANCH   1   4
ATOM      4  C   UNL     1      -0.008  -0.215  -2.583  0.00  0.00    -0.035 C 
ATOM      5  C   UNL     1      -1.402  -0.420  -3.180  0.00  0.00    -0.008 C 
BRANCH   4   8
ATOM      6  C   UNL     1      -0.018   1.503   0.010  0.00  0.00    +0.066 C 
ATOM      7  C   UNL     1       0.002  -0.004   0.002  0.00  0.00    +0.047 A 
ATOM      8  C   UNL     1       0.006  -0.708  -1.159  0.00  0.00    -0.002 A 
ATOM      9  S   UNL     1       0.032  -2.379  -0.531  0.00  0.00    -0.079 S 
ATOM     10  C   UNL     1       0.036  -2.009   1.111  0.00  0.00    +0.076 A 
ATOM     11  N   UNL     1       0.023  -0.699   1.122  0.00  0.00    -0.249 NA
ATOM     12  C   UNL     1       0.055  -2.955   2.284  0.00  0.00    +0.073 C 
ENDBRANCH   4   8
ENDBRANCH   1   4
BRANCH   1  13
ATOM     13  C   UNL     1       1.049  -0.406  -4.728  0.00  0.00    -0.046 C 
BRANCH  13  14
ATOM     14  C   UNL     1       2.061  -1.177  -5.536  0.00  0.00    -0.064 A 
ATOM     15  C   UNL     1       3.385  -0.781  -5.546  0.00  0.00    +0.003 A 
ATOM     16  C   UNL     1       4.313  -1.488  -6.287  0.00  0.00    +0.015 A 
ATOM     17  C   UNL     1       3.917  -2.593  -7.019  0.00  0.00    +0.018 A 
ATOM     18  C   UNL     1       2.591  -2.989  -7.009  0.00  0.00    +0.015 A 
ATOM     19  C   UNL     1       1.665  -2.285  -6.263  0.00  0.00    +0.003 A 
ATOM     20 BR   UNL     1       5.186  -3.560  -8.034  0.00  0.00    -0.050 Br
ENDBRANCH  13  14
ENDBRANCH   1  13
TORSDOF 4
