REMARK  Name = ZINC61626300
REMARK  6 active torsions:
REMARK  status: ('A' for Active; 'I' for Inactive)
REMARK    1  A    between atoms: C_3  and  C_18
REMARK    2  A    between atoms: C_6  and  C_7
REMARK    3  A    between atoms: C_7  and  N_8
REMARK    4  A    between atoms: N_8  and  C_9
REMARK    5  A    between atoms: C_12  and  C_16
REMARK    6  A    between atoms: C_14  and  N_15
REMARK                            x       y       z     vdW  Elec       q    Type
REMARK                         _______ _______ _______ _____ _____    ______ ____
ROOT
ATOM      1  N   UNL     1      -1.726  -1.018  -1.368  0.00  0.00    -0.338 N 
ATOM      2  H   UNL     1      -1.192  -0.691  -2.108  0.00  0.00    +0.146 HD
ENDROOT
BRANCH   1   3
ATOM      3  C   UNL     1      -2.907  -1.718  -1.615  0.00  0.00    +0.048 A 
ATOM      4  C   UNL     1      -3.674  -2.180  -0.553  0.00  0.00    +0.026 A 
ATOM      5  C   UNL     1      -4.841  -2.873  -0.792  0.00  0.00    +0.021 A 
ATOM      6  C   UNL     1      -5.256  -3.112  -2.104  0.00  0.00    +0.054 A 
ATOM      7  C   UNL     1      -4.486  -2.648  -3.175  0.00  0.00    +0.043 A 
ATOM      8  C   UNL     1      -3.319  -1.949  -2.930  0.00  0.00    +0.047 A 
BRANCH   8   9
ATOM      9  N   UNL     1      -2.547  -1.477  -3.999  0.00  0.00    -0.357 N 
ATOM     10  H   UNL     1      -1.726  -0.989  -3.826  0.00  0.00    +0.142 HD
ATOM     11  H   UNL     1      -2.833  -1.637  -4.911  0.00  0.00    +0.142 HD
ENDBRANCH   8   9
BRANCH   6  12
ATOM     12  C   UNL     1      -6.468  -3.833  -2.353  0.00  0.00    +0.099 C 
ATOM     13  N   UNL     1      -7.430  -4.404  -2.550  0.00  0.00    -0.191 NA
ENDBRANCH   6  12
ENDBRANCH   1   3
BRANCH   1  14
ATOM     14  C   UNL     1      -1.293  -0.775   0.011  0.00  0.00    +0.137 C 
BRANCH  14  20
ATOM     15  C   UNL     1      -0.017   1.378   0.010  0.00  0.00    +0.006 A 
ATOM     16  C   UNL     1       1.171   2.086   0.002  0.00  0.00    +0.013 A 
ATOM     17  C   UNL     1       2.377   1.411  -0.013  0.00  0.00    +0.055 A 
ATOM     18  C   UNL     1       2.396   0.029  -0.020  0.00  0.00    +0.013 A 
ATOM     19  C   UNL     1       1.208  -0.679  -0.012  0.00  0.00    +0.006 A 
ATOM     20  C   UNL     1       0.002  -0.004   0.002  0.00  0.00    -0.030 A 
BRANCH  17  21
ATOM     21  C   UNL     1       3.672   2.182  -0.022  0.00  0.00    +0.417 C 
ATOM     22  F   UNL     1       4.086   2.414   1.294  0.00  0.00    -0.166 F 
ATOM     23  F   UNL     1       4.651   1.442  -0.695  0.00  0.00    -0.166 F 
ATOM     24  F   UNL     1       3.482   3.405  -0.674  0.00  0.00    -0.166 F 
ENDBRANCH  17  21
ENDBRANCH  14  20
ENDBRANCH   1  14
TORSDOF 6
