REMARK  Name = ZINC09189658
REMARK  2 active torsions:
REMARK  status: ('A' for Active; 'I' for Inactive)
REMARK    1  A    between atoms: C_11  and  C_13
REMARK    2  A    between atoms: C_14  and  N_22
REMARK                            x       y       z     vdW  Elec       q    Type
REMARK                         _______ _______ _______ _____ _____    ______ ____
ROOT
ATOM      1  C   UNL     1      -0.017   1.366   0.010  0.00  0.00    +0.002 A 
ATOM      2  C   UNL     1       1.156   2.107   0.002  0.00  0.00    +0.001 A 
ATOM      3  C   UNL     1       2.373   1.450  -0.013  0.00  0.00    +0.017 A 
ATOM      4  C   UNL     1       2.401   0.077  -0.020  0.00  0.00    +0.041 A 
ATOM      5  C   UNL     1       1.227  -0.710  -0.013  0.00  0.00    +0.080 A 
ATOM      6  C   UNL     1       0.002  -0.004   0.002  0.00  0.00    +0.029 A 
ATOM      7  N   UNL     1       1.419  -2.047  -0.022  0.00  0.00    -0.225 NA
ATOM      8  C   UNL     1       2.616  -2.588  -0.037  0.00  0.00    +0.166 A 
ATOM      9  S   UNL     1       3.682  -1.153  -0.039  0.00  0.00    -0.052 S 
ATOM     10  N   UNL     1       2.963  -3.927  -0.047  0.00  0.00    -0.260 N 
ATOM     11  C   UNL     1       4.262  -4.287  -0.061  0.00  0.00    +0.258 C 
ATOM     12  O   UNL     1       5.130  -3.433  -0.065  0.00  0.00    -0.269 OA
ATOM     13  H   UNL     1       2.271  -4.607  -0.043  0.00  0.00    +0.157 HD
ENDROOT
BRANCH  11  14
ATOM     14  C   UNL     1       4.617  -5.658  -0.071  0.00  0.00    +0.097 A 
ATOM     15  C   UNL     1       5.878  -6.213  -0.081  0.00  0.00    +0.053 A 
ATOM     16  C   UNL     1       5.993  -7.664  -0.090  0.00  0.00    +0.029 A 
ATOM     17  C   UNL     1       7.166  -8.458  -0.101  0.00  0.00    +0.014 A 
ATOM     18  C   UNL     1       7.044  -9.828  -0.110  0.00  0.00    +0.020 A 
ATOM     19  C   UNL     1       5.790 -10.420  -0.108  0.00  0.00    +0.112 A 
ATOM     20  N   UNL     1       4.700  -9.678  -0.099  0.00  0.00    -0.248 NA
ATOM     21  C   UNL     1       4.765  -8.364  -0.089  0.00  0.00    +0.111 A 
ATOM     22  S   UNL     1       3.540  -7.078  -0.068  0.00  0.00    -0.062 S 
BRANCH  15  23
ATOM     23  N   UNL     1       7.009  -5.410  -0.081  0.00  0.00    -0.356 N 
ATOM     24  H   UNL     1       6.918  -4.444  -0.075  0.00  0.00    +0.142 HD
ATOM     25  H   UNL     1       7.891  -5.814  -0.088  0.00  0.00    +0.142 HD
ENDBRANCH  15  23
ENDBRANCH  11  14
TORSDOF 2
