REMARK  Name = ZINC59307793
REMARK  5 active torsions:
REMARK  status: ('A' for Active; 'I' for Inactive)
REMARK    1  A    between atoms: C_1  and  N_2
REMARK    2  A    between atoms: N_2  and  C_3
REMARK    3  A    between atoms: N_2  and  C_25
REMARK    4  A    between atoms: C_6  and  N_10
REMARK    5  A    between atoms: C_11  and  C_13
REMARK                            x       y       z     vdW  Elec       q    Type
REMARK                         _______ _______ _______ _____ _____    ______ ____
ROOT
ATOM      1  N   UNL     1       0.084  -2.817   4.812  0.00  0.00    -0.285 N 
ATOM      2  C   UNL     1       1.057  -3.718   5.050  0.00  0.00    +0.225 C 
ATOM      3  O   UNL     1       1.966  -3.853   4.258  0.00  0.00    -0.275 OA
ATOM      4  H   UNL     1      -0.606  -2.661   5.476  0.00  0.00    +0.155 HD
ENDROOT
BRANCH   2   5
ATOM      5  C   UNL     1       1.016  -4.559   6.300  0.00  0.00    +0.116 C 
ATOM      6  C   UNL     1       1.047  -3.649   7.528  0.00  0.00    +0.113 C 
ATOM      7  C   UNL     1       2.414  -3.038   7.678  0.00  0.00    +0.218 C 
ATOM      8  O   UNL     1       2.522  -1.905   8.098  0.00  0.00    -0.275 OA
ATOM      9  N   UNL     1       3.519  -3.733   7.351  0.00  0.00    -0.285 N 
ATOM     10  C   UNL     1       3.415  -5.034   6.848  0.00  0.00    +0.037 A 
ATOM     11  C   UNL     1       2.209  -5.480   6.325  0.00  0.00    -0.014 A 
ATOM     12  C   UNL     1       2.105  -6.764   5.830  0.00  0.00    +0.006 A 
ATOM     13  C   UNL     1       3.202  -7.606   5.855  0.00  0.00    +0.000 A 
ATOM     14  C   UNL     1       4.404  -7.165   6.375  0.00  0.00    +0.002 A 
ATOM     15  C   UNL     1       4.514  -5.881   6.870  0.00  0.00    +0.023 A 
ATOM     16  H   UNL     1       4.394  -3.329   7.465  0.00  0.00    +0.155 HD
ENDBRANCH   2   5
BRANCH   1  20
ATOM     17  C   UNL     1       0.037  -0.693   1.221  0.00  0.00    +0.065 A 
ATOM     18  C   UNL     1      -1.157  -1.071   1.821  0.00  0.00    +0.028 A 
ATOM     19  C   UNL     1      -1.141  -1.774   3.010  0.00  0.00    +0.025 A 
ATOM     20  C   UNL     1       0.069  -2.103   3.606  0.00  0.00    +0.036 A 
ATOM     21  C   UNL     1       1.264  -1.726   3.008  0.00  0.00    +0.063 A 
ATOM     22  C   UNL     1       1.249  -1.028   1.815  0.00  0.00    +0.146 A 
ATOM     23  F   UNL     1       2.412  -0.665   1.229  0.00  0.00    -0.203 F 
BRANCH  17  25
ATOM     24  C   UNL     1      -0.003   1.484   0.031  0.00  0.00    +0.129 C 
ATOM     25  N   UNL     1       0.021   0.019   0.016  0.00  0.00    -0.328 N 
BRANCH  25  26
ATOM     26  C   UNL     1       0.027  -0.700  -1.261  0.00  0.00    +0.073 C 
ATOM     27  C   UNL     1       1.267  -0.302  -2.064  0.00  0.00    +0.022 C 
ATOM     28  C   UNL     1       1.274  -1.053  -3.397  0.00  0.00    +0.002 C 
ATOM     29  C   UNL     1       0.015  -0.695  -4.190  0.00  0.00    +0.000 C 
ATOM     30  C   UNL     1      -1.225  -1.093  -3.387  0.00  0.00    +0.002 C 
ATOM     31  C   UNL     1      -1.231  -0.342  -2.054  0.00  0.00    +0.022 C 
ENDBRANCH  25  26
ENDBRANCH  17  25
ENDBRANCH   1  20
TORSDOF 4
