REMARK  Name = ZINC08860120
REMARK  9 active torsions:
REMARK  status: ('A' for Active; 'I' for Inactive)
REMARK    1  A    between atoms: C_1  and  C_2
REMARK    2  A    between atoms: C_2  and  N_3
REMARK    3  A    between atoms: N_5  and  C_6
REMARK    4  A    between atoms: N_5  and  C_20
REMARK    5  A    between atoms: C_6  and  C_7
REMARK    6  A    between atoms: C_7  and  C_8
REMARK    7  A    between atoms: C_9  and  C_19
REMARK    8  A    between atoms: C_15  and  C_18
REMARK    9  A    between atoms: C_20  and  C_21
REMARK                            x       y       z     vdW  Elec       q    Type
REMARK                         _______ _______ _______ _____ _____    ______ ____
ROOT
ATOM      1  C   UNL     1       1.672  -3.724   2.726  0.00  0.00    +0.112 C 
ENDROOT
BRANCH   1   4
ATOM      2  N   UNL     1       0.711  -0.489   1.189  0.00  0.00    -0.367 N 
ATOM      3  C   UNL     1       0.856  -1.832   1.397  0.00  0.00    +0.142 C 
ATOM      4  N   UNL     1       1.517  -2.284   2.503  0.00  0.00    -0.303 N 
ATOM      5  S   UNL     1       0.229  -2.913   0.304  0.00  0.00    -0.016 SA
ATOM      6  H   UNL     1       1.077   0.142   1.827  0.00  0.00    +0.161 HD
BRANCH   2   8
ATOM      7  C   UNL     1      -0.019   1.526   0.010  0.00  0.00    +0.026 C 
ATOM      8  C   UNL     1       0.002  -0.004   0.002  0.00  0.00    +0.111 C 
ENDBRANCH   2   8
BRANCH   4   9
ATOM      9  C   UNL     1       2.070  -1.330   3.468  0.00  0.00    +0.181 C 
BRANCH   9  10
ATOM     10  C   UNL     1       1.036  -1.024   4.520  0.00  0.00    +0.122 A 
ATOM     11  C   UNL     1       0.871  -1.688   5.678  0.00  0.00    +0.046 A 
ATOM     12  C   UNL     1      -0.204  -1.069   6.356  0.00  0.00    +0.041 A 
ATOM     13  C   UNL     1      -0.632  -0.063   5.572  0.00  0.00    +0.195 A 
ATOM     14  O   UNL     1       0.126  -0.037   4.464  0.00  0.00    -0.466 OA
ENDBRANCH   9  10
ENDBRANCH   4   9
ENDBRANCH   1   4
BRANCH   1  15
ATOM     15  C   UNL     1       2.969  -4.204   2.071  0.00  0.00    +0.056 C 
BRANCH  15  16
ATOM     16  C   UNL     1       3.128  -5.685   2.300  0.00  0.00    -0.018 A 
ATOM     17  C   UNL     1       3.745  -6.271   3.339  0.00  0.00    +0.017 A 
ATOM     18  N   UNL     1       3.692  -7.631   3.206  0.00  0.00    -0.358 N 
ATOM     19  H   UNL     1       4.069  -8.267   3.834  0.00  0.00    +0.166 HD
ATOM     20  C   UNL     1       3.023  -7.964   2.049  0.00  0.00    +0.047 A 
ATOM     21  C   UNL     1       2.636  -6.759   1.434  0.00  0.00    +0.003 A 
ATOM     22  C   UNL     1       1.927  -6.788   0.231  0.00  0.00    +0.013 A 
ATOM     23  C   UNL     1       1.610  -7.988  -0.341  0.00  0.00    -0.050 A 
ATOM     24  C   UNL     1       1.987  -9.179   0.265  0.00  0.00    +0.005 A 
ATOM     25  C   UNL     1       2.695  -9.173   1.447  0.00  0.00    +0.026 A 
ATOM     26  C   UNL     1       0.845  -8.018  -1.639  0.00  0.00    +0.044 C 
ATOM     27  C   UNL     1       4.398  -5.537   4.481  0.00  0.00    +0.063 C 
ENDBRANCH  15  16
ENDBRANCH   1  15
TORSDOF 6
