REMARK  Name = ZINC00919470
REMARK  6 active torsions:
REMARK  status: ('A' for Active; 'I' for Inactive)
REMARK    1  A    between atoms: C_5  and  S_7
REMARK    2  A    between atoms: S_7  and  N_10
REMARK    3  A    between atoms: N_10  and  C_11
REMARK    4  A    between atoms: N_10  and  C_18
REMARK    5  A    between atoms: C_11  and  C_12
REMARK    6  A    between atoms: C_18  and  C_19
REMARK                            x       y       z     vdW  Elec       q    Type
REMARK                         _______ _______ _______ _____ _____    ______ ____
ROOT
ATOM      1  N   UNL     1       2.806   4.215  -1.759  0.00  0.00    -0.168 NA
ENDROOT
BRANCH   1   2
ATOM      2  S   UNL     1       2.473   5.673  -2.468  0.00  0.00    +0.062 S 
ATOM      3  O   UNL     1       2.288   5.418  -3.854  0.00  0.00    -0.153 OA
ATOM      4  O   UNL     1       1.477   6.296  -1.669  0.00  0.00    -0.153 OA
BRANCH   2   9
ATOM      5  C   UNL     1       5.806   7.739  -3.344  0.00  0.00    +0.002 A 
ATOM      6  C   UNL     1       6.200   8.219  -2.108  0.00  0.00    +0.001 A 
ATOM      7  C   UNL     1       5.455   7.921  -0.983  0.00  0.00    +0.017 A 
ATOM      8  C   UNL     1       4.316   7.144  -1.092  0.00  0.00    +0.044 A 
ATOM      9  C   UNL     1       3.923   6.664  -2.328  0.00  0.00    +0.119 A 
ATOM     10  C   UNL     1       4.671   6.958  -3.453  0.00  0.00    +0.029 A 
ATOM     11 BR   UNL     1       3.298   6.736   0.448  0.00  0.00    -0.048 Br
ENDBRANCH   2   9
ENDBRANCH   1   2
BRANCH   1  12
ATOM     12  C   UNL     1       2.260   3.902  -0.436  0.00  0.00    +0.146 C 
BRANCH  12  13
ATOM     13  C   UNL     1       0.761   3.773  -0.530  0.00  0.00    -0.014 A 
ATOM     14  C   UNL     1       0.183   2.575  -0.924  0.00  0.00    +0.008 A 
ATOM     15  C   UNL     1      -1.200   2.503  -0.997  0.00  0.00    +0.020 A 
ATOM     16  C   UNL     1      -1.950   3.620  -0.681  0.00  0.00    +0.111 A 
ATOM     17  N   UNL     1      -1.366   4.740  -0.304  0.00  0.00    -0.263 NA
ATOM     18  C   UNL     1      -0.054   4.846  -0.224  0.00  0.00    +0.115 A 
ENDBRANCH  12  13
ENDBRANCH   1  12
BRANCH   1  19
ATOM     19  C   UNL     1       3.648   3.237  -2.453  0.00  0.00    +0.150 C 
BRANCH  19  20
ATOM     20  C   UNL     1       2.776   2.191  -3.097  0.00  0.00    +0.033 A 
ATOM     21  C   UNL     1       2.387   2.336  -4.390  0.00  0.00    +0.020 A 
ATOM     22  C   UNL     1       1.545   1.300  -4.987  0.00  0.00    +0.003 A 
ATOM     23  C   UNL     1       1.118   1.395  -6.317  0.00  0.00    +0.059 A 
ATOM     24  C   UNL     1       0.320   0.406  -6.853  0.00  0.00    +0.163 A 
ATOM     25  C   UNL     1      -0.061  -0.690  -6.072  0.00  0.00    +0.164 A 
ATOM     26  C   UNL     1       0.356  -0.791  -4.756  0.00  0.00    +0.075 A 
ATOM     27  C   UNL     1       1.159   0.197  -4.202  0.00  0.00    +0.053 A 
ATOM     28  N   UNL     1       1.583   0.113  -2.891  0.00  0.00    -0.322 N 
ATOM     29  H   UNL     1       1.308  -0.671  -2.334  0.00  0.00    +0.169 HD
ATOM     30  C   UNL     1       2.361   1.068  -2.353  0.00  0.00    +0.254 A 
ATOM     31  O   UNL     1       2.718   0.960  -1.192  0.00  0.00    -0.268 OA
ATOM     32  O   UNL     1      -0.845  -1.672  -6.594  0.00  0.00    -0.485 OA
ATOM     33  C   UNL     1      -1.555  -1.359  -7.796  0.00  0.00    +0.270 C 
ATOM     34  C   UNL     1      -0.581  -0.679  -8.768  0.00  0.00    +0.270 C 
ATOM     35  O   UNL     1      -0.090   0.514  -8.147  0.00  0.00    -0.485 OA
ENDBRANCH  19  20
ENDBRANCH   1  19
TORSDOF 6
