REMARK  Name = ZINC04959492
REMARK  7 active torsions:
REMARK  status: ('A' for Active; 'I' for Inactive)
REMARK    1  A    between atoms: C_1  and  O_2
REMARK    2  A    between atoms: O_2  and  C_3
REMARK    3  A    between atoms: C_5  and  C_13
REMARK    4  A    between atoms: C_7  and  O_11
REMARK    5  A    between atoms: C_8  and  O_9
REMARK    6  A    between atoms: O_9  and  C_10
REMARK    7  A    between atoms: O_11  and  C_12
REMARK                            x       y       z     vdW  Elec       q    Type
REMARK                         _______ _______ _______ _____ _____    ______ ____
ROOT
ATOM      1  C   UNL     1      -0.595   2.004   1.354  0.00  0.00    +0.105 C 
ATOM      2  C   UNL     1      -0.499   1.153   0.086  0.00  0.00    +0.029 C 
ATOM      3  C   UNL     1      -0.940  -0.293   0.448  0.00  0.00    +0.033 C 
ATOM      4  C   UNL     1       0.309  -0.904   1.052  0.00  0.00    -0.030 C 
ATOM      5  C   UNL     1       1.374  -0.245   0.670  0.00  0.00    -0.023 C 
ATOM      6  C   UNL     1       0.989   0.903  -0.235  0.00  0.00    +0.049 C 
ATOM      7  C   UNL     1       1.830   2.111   0.061  0.00  0.00    -0.019 A 
ATOM      8  C   UNL     1       3.173   2.080  -0.336  0.00  0.00    +0.006 A 
ATOM      9  C   UNL     1       4.012   3.123  -0.108  0.00  0.00    +0.009 A 
ATOM     10  C   UNL     1       3.536   4.273   0.544  0.00  0.00    -0.016 A 
ATOM     11  C   UNL     1       4.377   5.369   0.802  0.00  0.00    +0.008 A 
ATOM     12  C   UNL     1       3.876   6.466   1.433  0.00  0.00    +0.001 A 
ATOM     13  C   UNL     1       2.541   6.519   1.827  0.00  0.00    +0.001 A 
ATOM     14  C   UNL     1       1.699   5.474   1.595  0.00  0.00    +0.010 A 
ATOM     15  C   UNL     1       2.182   4.326   0.948  0.00  0.00    +0.003 A 
ATOM     16  C   UNL     1       1.329   3.222   0.695  0.00  0.00    +0.039 A 
ATOM     17  N   UNL     1       0.003   3.316   1.102  0.00  0.00    -0.336 N 
ATOM     18  H   UNL     1      -0.087   3.915   1.909  0.00  0.00    +0.147 HD
ENDROOT
BRANCH   1  21
ATOM     19  C   UNL     1       2.105   1.108   3.843  0.00  0.00    +0.165 A 
ATOM     20  C   UNL     1       1.421   1.734   2.812  0.00  0.00    +0.055 A 
ATOM     21  C   UNL     1       0.145   1.321   2.475  0.00  0.00    -0.020 A 
ATOM     22  C   UNL     1      -0.456   0.286   3.168  0.00  0.00    +0.055 A 
ATOM     23  C   UNL     1       0.224  -0.349   4.196  0.00  0.00    +0.165 A 
ATOM     24  C   UNL     1       1.506   0.064   4.538  0.00  0.00    +0.204 A 
BRANCH  19  26
ATOM     25  C   UNL     1       3.911   2.595   3.417  0.00  0.00    +0.277 C 
ATOM     26  O   UNL     1       3.359   1.516   4.174  0.00  0.00    -0.491 OA
ENDBRANCH  19  26
BRANCH  24  27
ATOM     27  O   UNL     1       2.174  -0.552   5.551  0.00  0.00    -0.488 OA
ATOM     28  C   UNL     1       2.003  -0.013   6.863  0.00  0.00    +0.277 C 
ENDBRANCH  24  27
BRANCH  23  29
ATOM     29  O   UNL     1      -0.365  -1.370   4.873  0.00  0.00    -0.491 OA
ATOM     30  C   UNL     1      -1.685  -1.741   4.468  0.00  0.00    +0.277 C 
ENDBRANCH  23  29
ENDBRANCH   1  21
TORSDOF 4
