REMARK  Name = ZINC38558308
REMARK  6 active torsions:
REMARK  status: ('A' for Active; 'I' for Inactive)
REMARK    1  A    between atoms: C_4  and  C_7
REMARK    2  A    between atoms: C_7  and  C_9
REMARK    3  A    between atoms: C_7  and  O_34
REMARK    4  A    between atoms: C_9  and  N_10
REMARK    5  A    between atoms: C_11  and  C_13
REMARK    6  A    between atoms: C_25  and  C_27
REMARK                            x       y       z     vdW  Elec       q    Type
REMARK                         _______ _______ _______ _____ _____    ______ ____
ROOT
ATOM      1  C   UNL     1       7.226  -2.911   2.526  0.00  0.00    +0.126 C 
ATOM      2  C   UNL     1       7.744  -3.407   3.724  0.00  0.00    +0.039 C 
ATOM      3  C   UNL     1       8.922  -4.134   3.623  0.00  0.00    -0.008 C 
ATOM      4  C   UNL     1       9.900  -4.503   4.507  0.00  0.00    +0.004 A 
ATOM      5  C   UNL     1       9.949  -4.500   5.921  0.00  0.00    +0.010 A 
ATOM      6  C   UNL     1      11.121  -4.893   6.497  0.00  0.00    +0.001 A 
ATOM      7  C   UNL     1      12.242  -5.288   5.766  0.00  0.00    +0.002 A 
ATOM      8  C   UNL     1      12.271  -5.342   4.407  0.00  0.00    +0.026 A 
ATOM      9  C   UNL     1      11.080  -4.966   3.724  0.00  0.00    +0.044 A 
ATOM     10  N   UNL     1      10.808  -4.980   2.442  0.00  0.00    -0.372 N 
ATOM     11  C   UNL     1       9.408  -4.658   2.281  0.00  0.00    +0.160 C 
ATOM     12  C   UNL     1       9.007  -3.701   1.215  0.00  0.00    +0.076 C 
ATOM     13  N   UNL     1       7.928  -2.973   1.384  0.00  0.00    -0.244 NA
ATOM     14  H   UNL     1      11.435  -5.171   1.727  0.00  0.00    +0.161 HD
ENDROOT
BRANCH  12  15
ATOM     15  C   UNL     1       9.804  -3.579  -0.013  0.00  0.00    -0.000 A 
ATOM     16  C   UNL     1      10.581  -4.655  -0.458  0.00  0.00    +0.010 A 
ATOM     17  C   UNL     1      11.326  -4.532  -1.611  0.00  0.00    +0.002 A 
ATOM     18  C   UNL     1      11.307  -3.348  -2.329  0.00  0.00    +0.015 A 
ATOM     19  C   UNL     1      10.541  -2.279  -1.897  0.00  0.00    +0.018 A 
ATOM     20  C   UNL     1       9.786  -2.387  -0.747  0.00  0.00    +0.025 A 
ATOM     21 BR   UNL     1      10.525  -0.668  -2.887  0.00  0.00    -0.050 Br
ENDBRANCH  12  15
BRANCH   1  23
ATOM     22  N   UNL     1       5.358  -1.834   1.364  0.00  0.00    -0.307 N 
ATOM     23  C   UNL     1       5.873  -2.312   2.514  0.00  0.00    +0.262 C 
ATOM     24  O   UNL     1       5.227  -2.250   3.541  0.00  0.00    -0.269 OA
ATOM     25  H   UNL     1       5.874  -1.883   0.544  0.00  0.00    +0.149 HD
BRANCH  22  26
ATOM     26  C   UNL     1       4.019  -1.241   1.352  0.00  0.00    +0.140 C 
BRANCH  26  27
ATOM     27  C   UNL     1       3.677  -0.781  -0.067  0.00  0.00    +0.162 C 
BRANCH  27  31
ATOM     28  C   UNL     1      -0.076   1.259  -0.041  0.00  0.00    +0.000 A 
ATOM     29  C   UNL     1       1.103   1.981  -0.052  0.00  0.00    +0.000 A 
ATOM     30  C   UNL     1       2.318   1.321  -0.061  0.00  0.00    +0.006 A 
ATOM     31  C   UNL     1       2.353  -0.061  -0.057  0.00  0.00    -0.018 A 
ATOM     32  C   UNL     1       1.174  -0.783  -0.044  0.00  0.00    +0.006 A 
ATOM     33  C   UNL     1      -0.040  -0.123  -0.037  0.00  0.00    +0.000 A 
ENDBRANCH  27  31
BRANCH  27  34
ATOM     34  O   UNL     1       3.595  -1.918  -0.929  0.00  0.00    -0.386 OA
ATOM     35  H   UNL     1       2.922  -2.562  -0.668  0.00  0.00    +0.210 HD
ENDBRANCH  27  34
ENDBRANCH  26  27
ENDBRANCH  22  26
ENDBRANCH   1  23
TORSDOF 6
