REMARK  Name = ZINC46801616
REMARK  9 active torsions:
REMARK  status: ('A' for Active; 'I' for Inactive)
REMARK    1  A    between atoms: C_1  and  C_2
REMARK    2  A    between atoms: C_2  and  C_3
REMARK    3  A    between atoms: C_2  and  C_4
REMARK    4  A    between atoms: C_2  and  C_5
REMARK    5  A    between atoms: C_11  and  N_13
REMARK    6  A    between atoms: N_13  and  S_14
REMARK    7  A    between atoms: S_14  and  C_17
REMARK    8  A    between atoms: C_21  and  S_23
REMARK    9  A    between atoms: S_23  and  N_26
REMARK                            x       y       z     vdW  Elec       q    Type
REMARK                         _______ _______ _______ _____ _____    ______ ____
ROOT
ATOM      1  S   UNL     1       3.438   2.109  -0.561  0.00  0.00    +0.059 S 
ATOM      2  O   UNL     1       3.255   3.511  -0.698  0.00  0.00    -0.153 OA
ATOM      3  O   UNL     1       3.556   1.476   0.705  0.00  0.00    -0.153 OA
ENDROOT
BRANCH   1   4
ATOM      4  C   UNL     1       4.894   1.700  -1.466  0.00  0.00    +0.107 A 
ATOM      5  C   UNL     1       5.606   0.558  -1.151  0.00  0.00    +0.028 A 
ATOM      6  C   UNL     1       6.748   0.238  -1.861  0.00  0.00    +0.004 A 
ATOM      7  C   UNL     1       7.177   1.059  -2.887  0.00  0.00    +0.028 A 
ATOM      8  C   UNL     1       6.464   2.200  -3.203  0.00  0.00    +0.107 A 
ATOM      9  C   UNL     1       5.319   2.518  -2.496  0.00  0.00    +0.057 A 
BRANCH   8  10
ATOM     10  S   UNL     1       7.011   3.247  -4.511  0.00  0.00    +0.056 S 
ATOM     11  O   UNL     1       6.475   4.537  -4.250  0.00  0.00    -0.153 OA
ATOM     12  O   UNL     1       8.406   3.017  -4.659  0.00  0.00    -0.153 OA
BRANCH  10  13
ATOM     13  N   UNL     1       6.293   2.709  -5.902  0.00  0.00    -0.204 NA
ATOM     14  H   UNL     1       5.696   1.944  -5.875  0.00  0.00    +0.144 HD
ATOM     15  H   UNL     1       6.468   3.158  -6.744  0.00  0.00    +0.144 HD
ENDBRANCH  10  13
ENDBRANCH   8  10
ENDBRANCH   1   4
BRANCH   1  16
ATOM     16  N   UNL     1       2.163   1.387  -1.333  0.00  0.00    -0.187 NA
ATOM     17  H   UNL     1       1.475   1.933  -1.746  0.00  0.00    +0.148 HD
BRANCH  16  23
ATOM     18  C   UNL     1       0.606  -0.499  -1.314  0.00  0.00    +0.013 C 
ATOM     19  C   UNL     1       0.513  -2.025  -1.376  0.00  0.00    +0.005 C 
ATOM     20  C   UNL     1       1.117  -2.519  -2.692  0.00  0.00    +0.000 C 
ATOM     21  C   UNL     1       2.585  -2.094  -2.771  0.00  0.00    +0.002 C 
ATOM     22  C   UNL     1       2.678  -0.568  -2.709  0.00  0.00    +0.020 C 
ATOM     23  C   UNL     1       2.074  -0.074  -1.393  0.00  0.00    +0.080 C 
BRANCH  18  25
ATOM     24  C   UNL     1      -0.054   1.525  -0.005  0.00  0.00    +0.011 C 
ATOM     25  C   UNL     1       0.002  -0.004   0.002  0.00  0.00    -0.033 C 
ATOM     26  C   UNL     1       0.869  -0.477   1.171  0.00  0.00    +0.011 C 
ATOM     27  C   UNL     1      -1.413  -0.565   0.157  0.00  0.00    +0.011 C 
ENDBRANCH  18  25
ENDBRANCH  16  23
ENDBRANCH   1  16
TORSDOF 6
