REMARK  Name = ZINC12381691
REMARK  9 active torsions:
REMARK  status: ('A' for Active; 'I' for Inactive)
REMARK    1  A    between atoms: C_1  and  C_2
REMARK    2  A    between atoms: C_2  and  C_3
REMARK    3  A    between atoms: C_2  and  C_4
REMARK    4  A    between atoms: C_2  and  C_5
REMARK    5  A    between atoms: C_8  and  C_11
REMARK    6  A    between atoms: C_13  and  C_25
REMARK    7  A    between atoms: C_15  and  C_20
REMARK    8  A    between atoms: C_15  and  O_24
REMARK    9  A    between atoms: C_25  and  C_27
REMARK                            x       y       z     vdW  Elec       q    Type
REMARK                         _______ _______ _______ _____ _____    ______ ____
ROOT
ATOM      1  C   UNL     1      -2.870   6.521   0.782  0.00  0.00    +0.120 C 
ATOM      2  C   UNL     1      -1.942   5.793  -0.196  0.00  0.00    +0.145 C 
ATOM      3  C   UNL     1      -2.514   5.939  -1.610  0.00  0.00    +0.243 C 
ATOM      4  N   UNL     1      -2.692   7.360  -1.913  0.00  0.00    -0.264 N 
ATOM      5  C   UNL     1      -2.940   8.254  -0.944  0.00  0.00    +0.302 C 
ATOM      6  O   UNL     1      -3.090   9.420  -1.250  0.00  0.00    -0.253 OA
ATOM      7  N   UNL     1      -3.029   7.911   0.350  0.00  0.00    -0.292 N 
ATOM      8  H   UNL     1      -2.629   7.661  -2.833  0.00  0.00    +0.153 HD
ATOM      9  H   UNL     1      -3.202   8.598   1.013  0.00  0.00    +0.151 HD
ENDROOT
BRANCH   1  13
ATOM     10  C   UNL     1      -1.169   6.432   4.700  0.00  0.00    -0.042 A 
ATOM     11  C   UNL     1      -0.873   7.474   3.841  0.00  0.00    +0.004 A 
ATOM     12  C   UNL     1      -1.423   7.503   2.574  0.00  0.00    +0.006 A 
ATOM     13  C   UNL     1      -2.270   6.490   2.164  0.00  0.00    -0.026 A 
ATOM     14  C   UNL     1      -2.569   5.450   3.024  0.00  0.00    +0.006 A 
ATOM     15  C   UNL     1      -2.015   5.418   4.290  0.00  0.00    +0.004 A 
BRANCH  10  17
ATOM     16  C   UNL     1      -1.001   7.649   6.854  0.00  0.00    +0.015 C 
ATOM     17  C   UNL     1      -0.569   6.400   6.082  0.00  0.00    -0.013 C 
ATOM     18  C   UNL     1      -1.054   5.151   6.820  0.00  0.00    +0.015 C 
ATOM     19  C   UNL     1       0.957   6.370   5.975  0.00  0.00    +0.015 C 
ENDBRANCH  10  17
ENDBRANCH   1  13
BRANCH   3  20
ATOM     20  C   UNL     1      -3.865   5.225  -1.691  0.00  0.00    +0.436 C 
ATOM     21  F   UNL     1      -4.750   5.796  -0.770  0.00  0.00    -0.166 F 
ATOM     22  F   UNL     1      -4.386   5.358  -2.983  0.00  0.00    -0.166 F 
ATOM     23  F   UNL     1      -3.695   3.869  -1.395  0.00  0.00    -0.166 F 
ENDBRANCH   3  20
BRANCH   3  24
ATOM     24  O   UNL     1      -1.610   5.359  -2.553  0.00  0.00    -0.364 OA
ATOM     25  H   UNL     1      -1.909   5.416  -3.471  0.00  0.00    +0.212 HD
ENDBRANCH   3  24
BRANCH   2  26
ATOM     26  C   UNL     1      -0.567   6.407  -0.141  0.00  0.00    +0.179 C 
ATOM     27  O   UNL     1      -0.442   7.604   0.021  0.00  0.00    -0.291 OA
BRANCH  26  28
ATOM     28  C   UNL     1       0.577   5.590  -0.277  0.00  0.00    +0.055 A 
ATOM     29  C   UNL     1       1.920   5.950  -0.256  0.00  0.00    +0.019 A 
ATOM     30  C   UNL     1       2.837   4.945  -0.414  0.00  0.00    +0.008 A 
ATOM     31  C   UNL     1       2.401   3.667  -0.580  0.00  0.00    +0.046 A 
ATOM     32  S   UNL     1       0.676   3.826  -0.528  0.00  0.00    -0.094 S 
ENDBRANCH  26  28
ENDBRANCH   2  26
TORSDOF 6
