REMARK  Name = ZINC38910351
REMARK  6 active torsions:
REMARK  status: ('A' for Active; 'I' for Inactive)
REMARK    1  A    between atoms: C_1  and  N_2
REMARK    2  A    between atoms: C_10  and  C_11
REMARK    3  A    between atoms: C_13  and  C_16
REMARK    4  A    between atoms: N_18  and  C_19
REMARK    5  A    between atoms: C_24  and  S_25
REMARK    6  A    between atoms: S_25  and  C_26
REMARK                            x       y       z     vdW  Elec       q    Type
REMARK                         _______ _______ _______ _____ _____    ______ ____
ROOT
ATOM      1  C   UNL     1      -0.001  -0.314   2.516  0.00  0.00    +0.125 A 
ATOM      2  N   UNL     1       0.035  -1.007   3.642  0.00  0.00    -0.233 NA
ATOM      3  C   UNL     1       0.041  -0.344   4.790  0.00  0.00    +0.134 A 
ATOM      4  C   UNL     1       0.008   1.025   4.769  0.00  0.00    +0.080 A 
ATOM      5  S   UNL     1      -0.021   1.364   3.121  0.00  0.00    -0.073 S 
ENDROOT
BRANCH   1  15
ATOM      6  C   UNL     1      -0.074   1.462   0.012  0.00  0.00    +0.149 C 
ATOM      7  N   UNL     1      -0.048  -0.003   0.004  0.00  0.00    -0.341 N 
ATOM      8  C   UNL     1      -0.045  -0.788  -1.127  0.00  0.00    +0.049 A 
ATOM      9  C   UNL     1      -0.066  -0.499  -2.488  0.00  0.00    +0.026 A 
ATOM     10  C   UNL     1      -0.057  -1.526  -3.407  0.00  0.00    +0.002 A 
ATOM     11  C   UNL     1      -0.029  -2.850  -2.990  0.00  0.00    +0.001 A 
ATOM     12  C   UNL     1      -0.009  -3.158  -1.659  0.00  0.00    +0.010 A 
ATOM     13  C   UNL     1      -0.017  -2.132  -0.709  0.00  0.00    +0.001 A 
ATOM     14  C   UNL     1      -0.001  -2.107   0.752  0.00  0.00    +0.038 A 
ATOM     15  C   UNL     1      -0.015  -0.801   1.126  0.00  0.00    +0.075 A 
ENDBRANCH   1  15
BRANCH   3  16
ATOM     16  C   UNL     1       0.080  -1.070   6.071  0.00  0.00    +0.267 C 
ATOM     17  O   UNL     1       0.084  -0.454   7.120  0.00  0.00    -0.268 OA
ATOM     18  N   UNL     1       0.111  -2.418   6.081  0.00  0.00    -0.279 N 
ATOM     19  H   UNL     1       0.043  -2.911   5.249  0.00  0.00    +0.155 HD
BRANCH  18  20
ATOM     20  C   UNL     1       0.244  -3.106   7.294  0.00  0.00    +0.047 A 
ATOM     21  C   UNL     1      -0.343  -2.604   8.446  0.00  0.00    +0.024 A 
ATOM     22  C   UNL     1      -0.211  -3.285   9.642  0.00  0.00    +0.002 A 
ATOM     23  C   UNL     1       0.505  -4.467   9.694  0.00  0.00    +0.001 A 
ATOM     24  C   UNL     1       1.093  -4.975   8.551  0.00  0.00    +0.016 A 
ATOM     25  C   UNL     1       0.961  -4.302   7.345  0.00  0.00    +0.029 A 
BRANCH  25  26
ATOM     26  S   UNL     1       1.703  -4.950   5.885  0.00  0.00    -0.127 S 
ATOM     27  C   UNL     1       2.505  -6.479   6.442  0.00  0.00    +0.090 C 
ENDBRANCH  25  26
ENDBRANCH  18  20
ENDBRANCH   3  16
TORSDOF 4
