REMARK  Name = ZINC41584759
REMARK  8 active torsions:
REMARK  status: ('A' for Active; 'I' for Inactive)
REMARK    1  A    between atoms: C_1  and  O_2
REMARK    2  A    between atoms: O_2  and  C_3
REMARK    3  A    between atoms: C_6  and  C_11
REMARK    4  A    between atoms: C_7  and  O_9
REMARK    5  A    between atoms: O_9  and  C_10
REMARK    6  A    between atoms: C_18  and  O_39
REMARK    7  A    between atoms: C_19  and  C_22
REMARK    8  A    between atoms: C_22  and  N_23
REMARK                            x       y       z     vdW  Elec       q    Type
REMARK                         _______ _______ _______ _____ _____    ______ ____
ROOT
ATOM      1  C   UNL     1       2.576  -2.509   4.290  0.00  0.00    +0.061 C 
ATOM      2  C   UNL     1       3.226  -1.759   5.220  0.00  0.00    +0.176 C 
ATOM      3  C   UNL     1       4.035  -2.269   6.334  0.00  0.00    +0.231 C 
ATOM      4  O   UNL     1       4.263  -3.433   6.618  0.00  0.00    -0.283 OA
ATOM      5  C   UNL     1       4.509  -1.060   7.032  0.00  0.00    +0.068 A 
ATOM      6  C   UNL     1       5.311  -0.859   8.156  0.00  0.00    +0.019 A 
ATOM      7  C   UNL     1       5.586   0.411   8.578  0.00  0.00    +0.046 A 
ATOM      8  C   UNL     1       5.068   1.504   7.888  0.00  0.00    +0.122 A 
ATOM      9  C   UNL     1       4.271   1.320   6.771  0.00  0.00    +0.020 A 
ATOM     10  C   UNL     1       3.982   0.035   6.328  0.00  0.00    +0.144 A 
ATOM     11  O   UNL     1       3.249  -0.407   5.283  0.00  0.00    -0.451 OA
ENDROOT
BRANCH   1  15
ATOM     12  C   UNL     1       0.736  -0.627   0.970  0.00  0.00    +0.124 A 
ATOM     13  C   UNL     1       1.087   0.119   2.092  0.00  0.00    +0.046 A 
ATOM     14  C   UNL     1       1.680  -0.483   3.164  0.00  0.00    +0.015 A 
ATOM     15  C   UNL     1       1.940  -1.860   3.141  0.00  0.00    +0.020 A 
ATOM     16  C   UNL     1       1.585  -2.617   2.009  0.00  0.00    +0.131 A 
ATOM     17  C   UNL     1       0.980  -1.993   0.932  0.00  0.00    +0.091 A 
BRANCH  12  19
ATOM     18  C   UNL     1      -0.075   1.391   0.014  0.00  0.00    +0.277 C 
ATOM     19  O   UNL     1       0.147  -0.017  -0.089  0.00  0.00    -0.495 OA
ENDBRANCH  12  19
BRANCH  16  20
ATOM     20  O   UNL     1       1.831  -3.951   1.976  0.00  0.00    -0.494 OA
ATOM     21  C   UNL     1       1.444  -4.652   0.793  0.00  0.00    +0.277 C 
ENDBRANCH  16  20
ENDBRANCH   1  15
BRANCH   8  22
ATOM     22  O   UNL     1       5.347   2.762   8.316  0.00  0.00    -0.506 OA
ATOM     23  H   UNL     1       6.146   3.142   7.926  0.00  0.00    +0.292 HD
ENDBRANCH   8  22
BRANCH   9  24
ATOM     24  C   UNL     1       3.718   2.513   6.035  0.00  0.00    -0.036 C 
BRANCH  24  25
ATOM     25  N   UNL     1       4.664   2.925   4.989  0.00  0.00    +0.383 N 
ATOM     26  C   UNL     1       4.069   4.002   4.192  0.00  0.00    -0.073 C 
ATOM     27  C   UNL     1       5.018   4.463   3.095  0.00  0.00    -0.007 C 
ATOM     28  C   UNL     1       6.361   4.900   3.690  0.00  0.00    +0.011 C 
ATOM     29  C   UNL     1       6.913   3.718   4.495  0.00  0.00    +0.020 C 
ATOM     30  C   UNL     1       5.908   3.396   5.614  0.00  0.00    -0.069 C 
ATOM     31  C   UNL     1       7.010   2.508   3.593  0.00  0.00    +0.023 A 
ATOM     32  C   UNL     1       7.968   1.587   3.878  0.00  0.00    +0.022 A 
ATOM     33  C   UNL     1       8.072   0.413   3.124  0.00  0.00    +0.007 A 
ATOM     34  C   UNL     1       7.180   0.197   2.115  0.00  0.00    +0.070 A 
ATOM     35  C   UNL     1       6.201   1.165   1.850  0.00  0.00    +0.251 A 
ATOM     36  O   UNL     1       5.359   0.954   0.992  0.00  0.00    -0.268 OA
ATOM     37  N   UNL     1       6.180   2.332   2.538  0.00  0.00    -0.312 N 
ATOM     38  C   UNL     1       5.266   3.370   2.068  0.00  0.00    +0.126 C 
ATOM     39  H   UNL     1       4.866   2.138   4.391  0.00  0.00    -0.081 HD
ENDBRANCH  24  25
ENDBRANCH   9  24
TORSDOF 6
