REMARK  Name = ZINC23667962
REMARK  13 active torsions:
REMARK  status: ('A' for Active; 'I' for Inactive)
REMARK    1  A    between atoms: C_1  and  C_2
REMARK    2  A    between atoms: C_2  and  C_4
REMARK    3  A    between atoms: C_2  and  N_12
REMARK    4  A    between atoms: N_12  and  C_13
REMARK    5  A    between atoms: N_12  and  C_14
REMARK    6  A    between atoms: C_14  and  C_15
REMARK    7  A    between atoms: N_17  and  C_18
REMARK    8  A    between atoms: C_18  and  C_19
REMARK    9  A    between atoms: C_18  and  C_27
REMARK   10  A    between atoms: C_22  and  O_25
REMARK   11  A    between atoms: O_25  and  C_26
REMARK   12  A    between atoms: C_30  and  O_33
REMARK   13  A    between atoms: O_33  and  C_34
REMARK                            x       y       z     vdW  Elec       q    Type
REMARK                         _______ _______ _______ _____ _____    ______ ____
ROOT
ATOM      1  C   UNL     1       3.195   6.277  -1.364  0.00  0.00    +0.197 C 
ATOM      2  O   UNL     1       3.939   5.655  -2.094  0.00  0.00    -0.278 OA
ATOM      3  N   UNL     1       3.287   7.619  -1.293  0.00  0.00    -0.306 N 
ATOM      4  H   UNL     1       2.613   8.183  -0.632  0.00  0.00    +0.150 HD
ENDROOT
BRANCH   1   5
ATOM      5  C   UNL     1       2.168   5.547  -0.538  0.00  0.00    +0.019 C 
BRANCH   5   6
ATOM      6  N   UNL     1       2.269   4.104  -0.792  0.00  0.00    +0.388 N 
ATOM      7  C   UNL     1       3.550   3.573  -0.306  0.00  0.00    -0.095 C 
ATOM      8  H   UNL     1       2.230   3.949  -1.880  0.00  0.00    -0.081 HD
BRANCH   6  10
ATOM      9  C   UNL     1       1.275   3.398   1.332  0.00  0.00    -0.008 C 
ATOM     10  C   UNL     1       1.139   3.383  -0.192  0.00  0.00    -0.040 C 
BRANCH  10  11
ATOM     11  C   UNL     1       1.135   1.958  -0.682  0.00  0.00    -0.058 A 
ATOM     12  C   UNL     1       1.518   1.673  -1.980  0.00  0.00    +0.005 A 
ATOM     13  C   UNL     1       1.516   0.366  -2.432  0.00  0.00    +0.041 A 
ATOM     14  C   UNL     1       1.129  -0.658  -1.585  0.00  0.00    +0.158 A 
ATOM     15  C   UNL     1       0.746  -0.372  -0.283  0.00  0.00    +0.159 A 
ATOM     16  C   UNL     1       0.749   0.937   0.166  0.00  0.00    +0.043 A 
ATOM     17  F   UNL     1       0.368  -1.370   0.545  0.00  0.00    -0.202 F 
ATOM     18  F   UNL     1       1.126  -1.935  -2.025  0.00  0.00    -0.202 F 
ENDBRANCH  10  11
ENDBRANCH   6  10
ENDBRANCH   5   6
ENDBRANCH   1   5
BRANCH   3  19
ATOM     19  C   UNL     1       4.286   8.328  -2.097  0.00  0.00    +0.133 C 
BRANCH  19  20
ATOM     20  C   UNL     1       3.827   9.744  -2.334  0.00  0.00    -0.023 A 
ATOM     21  C   UNL     1       3.208  10.448  -1.318  0.00  0.00    +0.009 A 
ATOM     22  C   UNL     1       2.791  11.748  -1.531  0.00  0.00    +0.046 A 
ATOM     23  C   UNL     1       2.985  12.343  -2.769  0.00  0.00    +0.120 A 
ATOM     24  C   UNL     1       3.601  11.632  -3.789  0.00  0.00    +0.046 A 
ATOM     25  C   UNL     1       4.021  10.335  -3.569  0.00  0.00    +0.009 A 
BRANCH  23  26
ATOM     26  O   UNL     1       2.571  13.620  -2.983  0.00  0.00    -0.495 OA
ATOM     27  C   UNL     1       1.944  14.290  -1.888  0.00  0.00    +0.277 C 
ENDBRANCH  23  26
ENDBRANCH  19  20
BRANCH  19  28
ATOM     28  C   UNL     1       5.603   8.343  -1.363  0.00  0.00    -0.023 A 
ATOM     29  C   UNL     1       5.629   8.550   0.003  0.00  0.00    +0.009 A 
ATOM     30  C   UNL     1       6.834   8.559   0.679  0.00  0.00    +0.046 A 
ATOM     31  C   UNL     1       8.019   8.371  -0.017  0.00  0.00    +0.120 A 
ATOM     32  C   UNL     1       7.990   8.169  -1.389  0.00  0.00    +0.046 A 
ATOM     33  C   UNL     1       6.782   8.156  -2.059  0.00  0.00    +0.009 A 
BRANCH  31  34
ATOM     34  O   UNL     1       9.206   8.384   0.645  0.00  0.00    -0.495 OA
ATOM     35  C   UNL     1       9.159   8.597   2.057  0.00  0.00    +0.277 C 
ENDBRANCH  31  34
ENDBRANCH  19  28
ENDBRANCH   3  19
TORSDOF 9
