REMARK  Name = ZINC67101010
REMARK  6 active torsions:
REMARK  status: ('A' for Active; 'I' for Inactive)
REMARK    1  A    between atoms: C_1  and  C_2
REMARK    2  A    between atoms: C_4  and  C_27
REMARK    3  A    between atoms: C_6  and  O_25
REMARK    4  A    between atoms: C_7  and  C_8
REMARK    5  A    between atoms: C_8  and  N_9
REMARK    6  A    between atoms: O_25  and  C_26
REMARK                            x       y       z     vdW  Elec       q    Type
REMARK                         _______ _______ _______ _____ _____    ______ ____
ROOT
ATOM      1  N   UNL     1      -1.355   0.209   2.957  0.00  0.00    -0.295 N 
ATOM      2  C   UNL     1      -1.598   0.844   4.121  0.00  0.00    +0.303 C 
ATOM      3  O   UNL     1      -0.675   1.157   4.847  0.00  0.00    -0.253 OA
ATOM      4  N   UNL     1      -2.865   1.130   4.480  0.00  0.00    -0.282 N 
ATOM      5  C   UNL     1      -3.935   0.651   3.652  0.00  0.00    +0.113 C 
ATOM      6  C   UNL     1      -5.104   1.587   3.604  0.00  0.00    +0.007 C 
ATOM      7  C   UNL     1      -4.693   3.035   3.391  0.00  0.00    +0.008 C 
ATOM      8  C   UNL     1      -4.385   3.790   4.668  0.00  0.00    -0.009 C 
ATOM      9  C   UNL     1      -5.507   3.612   5.696  0.00  0.00    +0.007 C 
ATOM     10  C   UNL     1      -5.625   2.113   5.981  0.00  0.00    -0.009 C 
ATOM     11  C   UNL     1      -6.109   1.418   4.708  0.00  0.00    +0.008 C 
ATOM     12  C   UNL     1      -4.309   1.527   6.440  0.00  0.00    +0.026 C 
ATOM     13  C   UNL     1      -3.082   1.905   5.689  0.00  0.00    +0.078 C 
ATOM     14  C   UNL     1      -3.074   3.378   5.320  0.00  0.00    +0.026 C 
ATOM     15  H   UNL     1      -2.093  -0.107   2.414  0.00  0.00    +0.151 HD
ENDROOT
BRANCH   1  16
ATOM     16  C   UNL     1       0.025  -0.001   2.512  0.00  0.00    +0.146 C 
BRANCH  16  23
ATOM     17  C   UNL     1      -0.033   1.487   0.002  0.00  0.00    +0.044 C 
ATOM     18  C   UNL     1      -0.005  -0.020   0.002  0.00  0.00    -0.039 A 
ATOM     19  C   UNL     1      -0.002  -0.730  -1.191  0.00  0.00    +0.027 A 
ATOM     20  C   UNL     1       0.024  -2.110  -1.155  0.00  0.00    +0.042 A 
ATOM     21  N   UNL     1       0.044  -2.757  -0.005  0.00  0.00    -0.218 NA
ATOM     22  C   UNL     1       0.041  -2.116   1.152  0.00  0.00    +0.220 A 
ATOM     23  C   UNL     1       0.022  -0.727   1.191  0.00  0.00    +0.034 A 
ATOM     24  C   UNL     1       0.028  -2.887  -2.446  0.00  0.00    +0.066 C 
BRANCH  22  25
ATOM     25  O   UNL     1       0.063  -2.821   2.311  0.00  0.00    -0.479 OA
ATOM     26  C   UNL     1       0.087  -4.245   2.203  0.00  0.00    +0.279 C 
ENDBRANCH  22  25
ENDBRANCH  16  23
ENDBRANCH   1  16
TORSDOF 3
