REMARK  Name = ZINC23666908
REMARK  6 active torsions:
REMARK  status: ('A' for Active; 'I' for Inactive)
REMARK    1  A    between atoms: C_1  and  C_2
REMARK    2  A    between atoms: C_6  and  C_8
REMARK    3  A    between atoms: C_8  and  C_10
REMARK    4  A    between atoms: C_8  and  N_24
REMARK    5  A    between atoms: C_16  and  C_18
REMARK    6  A    between atoms: C_27  and  C_30
REMARK                            x       y       z     vdW  Elec       q    Type
REMARK                         _______ _______ _______ _____ _____    ______ ____
ROOT
ATOM      1  C   UNL     1      -8.386   0.319   0.039  0.00  0.00    +0.006 C 
ENDROOT
BRANCH   1   2
ATOM      2  C   UNL     1      -6.890   0.144   0.093  0.00  0.00    +0.050 A 
ATOM      3  C   UNL     1      -5.934   1.075   0.187  0.00  0.00    +0.282 A 
ATOM      4  N   UNL     1      -4.608   0.718   0.223  0.00  0.00    -0.169 N 
ATOM      5  C   UNL     1      -4.320  -0.618   0.159  0.00  0.00    +0.200 A 
ATOM      6  S   UNL     1      -5.930  -1.362   0.048  0.00  0.00    -0.050 S 
ATOM      7  N   UNL     1      -3.029  -0.792   0.198  0.00  0.00    -0.197 NA
ATOM      8  C   UNL     1      -2.424   0.400   0.298  0.00  0.00    +0.218 A 
ATOM      9  N   UNL     1      -3.338   1.345   0.313  0.00  0.00    -0.138 NA
ATOM     10  O   UNL     1      -6.279   2.390   0.247  0.00  0.00    -0.265 OA
BRANCH   8  11
ATOM     11  C   UNL     1      -0.964   0.617   0.373  0.00  0.00    +0.173 A 
ATOM     12  C   UNL     1      -0.011  -0.353   0.359  0.00  0.00    +0.053 A 
ATOM     13  C   UNL     1       1.234   0.300   0.443  0.00  0.00    +0.042 A 
ATOM     14  C   UNL     1       0.983   1.622   0.511  0.00  0.00    +0.196 A 
ATOM     15  O   UNL     1      -0.346   1.809   0.472  0.00  0.00    -0.460 OA
ENDBRANCH   8  11
ENDBRANCH   1   2
BRANCH   1  16
ATOM     16  N   UNL     1      -9.023  -0.632   0.960  0.00  0.00    +0.387 N 
ATOM     17  C   UNL     1      -8.476  -0.499   2.316  0.00  0.00    -0.077 C 
ATOM     18  C   UNL     1      -9.055  -1.598   3.211  0.00  0.00    -0.015 C 
ATOM     19  C   UNL     1     -10.581  -1.473   3.241  0.00  0.00    -0.018 C 
ATOM     20  C   UNL     1     -11.121  -1.566   1.812  0.00  0.00    -0.015 C 
ATOM     21  C   UNL     1     -10.483  -0.468   0.958  0.00  0.00    -0.077 C 
ATOM     22  C   UNL     1     -11.170  -2.605   4.085  0.00  0.00    +0.007 C 
ATOM     23  H   UNL     1      -8.800  -1.649   0.606  0.00  0.00    -0.080 HD
ENDBRANCH   1  16
BRANCH   1  29
ATOM     24  C   UNL     1     -10.108   2.040  -4.333  0.00  0.00    +0.044 C 
ATOM     25  C   UNL     1      -9.696   0.886  -3.456  0.00  0.00    -0.050 A 
ATOM     26  C   UNL     1      -9.764  -0.407  -3.938  0.00  0.00    +0.003 A 
ATOM     27  C   UNL     1      -9.386  -1.466  -3.134  0.00  0.00    +0.000 A 
ATOM     28  C   UNL     1      -8.940  -1.231  -1.846  0.00  0.00    +0.002 A 
ATOM     29  C   UNL     1      -8.871   0.063  -1.364  0.00  0.00    -0.056 A 
ATOM     30  C   UNL     1      -9.254   1.121  -2.167  0.00  0.00    +0.005 A 
ENDBRANCH   1  29
TORSDOF 4
