REMARK  Name = ZINC14232434
REMARK  9 active torsions:
REMARK  status: ('A' for Active; 'I' for Inactive)
REMARK    1  A    between atoms: C_1  and  C_2
REMARK    2  A    between atoms: C_5  and  S_8
REMARK    3  A    between atoms: S_8  and  N_11
REMARK    4  A    between atoms: N_11  and  C_12
REMARK    5  A    between atoms: N_11  and  C_13
REMARK    6  A    between atoms: C_13  and  C_14
REMARK    7  A    between atoms: N_16  and  C_17
REMARK    8  A    between atoms: C_18  and  C_25
REMARK    9  A    between atoms: C_20  and  C_24
REMARK                            x       y       z     vdW  Elec       q    Type
REMARK                         _______ _______ _______ _____ _____    ______ ____
ROOT
ATOM      1  C   UNL     1      -0.911   2.530  -1.222  0.00  0.00    +0.205 C 
ENDROOT
BRANCH   1   2
ATOM      2  C   UNL     1       0.451   1.889  -1.155  0.00  0.00    +0.233 C 
ATOM      3  O   UNL     1       0.926   1.370  -2.142  0.00  0.00    -0.274 OA
ATOM      4  N   UNL     1       1.143   1.898   0.001  0.00  0.00    -0.283 N 
ATOM      5  H   UNL     1       0.796   2.376   0.771  0.00  0.00    +0.155 HD
BRANCH   4   6
ATOM      6  C   UNL     1       2.364   1.218   0.092  0.00  0.00    +0.055 A 
ATOM      7  C   UNL     1       3.556   1.897  -0.123  0.00  0.00    -0.028 A 
ATOM      8  C   UNL     1       4.758   1.224  -0.033  0.00  0.00    +0.008 A 
ATOM      9  C   UNL     1       4.777  -0.126   0.271  0.00  0.00    -0.049 A 
ATOM     10  C   UNL     1       3.592  -0.805   0.485  0.00  0.00    +0.025 A 
ATOM     11  C   UNL     1       2.385  -0.136   0.402  0.00  0.00    +0.063 A 
ATOM     12 CL   UNL     1       0.898  -0.988   0.678  0.00  0.00    -0.082 Cl
ATOM     13  C   UNL     1       6.091  -0.857   0.368  0.00  0.00    +0.044 C 
ATOM     14  C   UNL     1       3.538   3.367  -0.454  0.00  0.00    +0.046 C 
ENDBRANCH   4   6
ENDBRANCH   1   2
BRANCH   1  15
ATOM     15  N   UNL     1      -1.449   2.393  -2.578  0.00  0.00    -0.171 NA
ATOM     16  C   UNL     1      -2.159   1.172  -2.965  0.00  0.00    +0.132 C 
BRANCH  15  17
ATOM     17  S   UNL     1      -1.253   3.620  -3.674  0.00  0.00    +0.061 S 
ATOM     18  O   UNL     1      -2.293   3.478  -4.632  0.00  0.00    -0.153 OA
ATOM     19  O   UNL     1      -1.068   4.811  -2.921  0.00  0.00    -0.153 OA
BRANCH  17  24
ATOM     20  C   UNL     1       3.930   2.600  -6.589  0.00  0.00    +0.044 C 
ATOM     21  C   UNL     1       2.635   2.855  -5.861  0.00  0.00    -0.050 A 
ATOM     22  C   UNL     1       1.453   2.331  -6.349  0.00  0.00    +0.005 A 
ATOM     23  C   UNL     1       0.266   2.564  -5.681  0.00  0.00    +0.029 A 
ATOM     24  C   UNL     1       0.261   3.322  -4.525  0.00  0.00    +0.105 A 
ATOM     25  C   UNL     1       1.442   3.850  -4.040  0.00  0.00    +0.029 A 
ATOM     26  C   UNL     1       2.630   3.613  -4.705  0.00  0.00    +0.005 A 
ENDBRANCH  17  24
ENDBRANCH  15  17
ENDBRANCH   1  15
TORSDOF 5
