REMARK  Name = ZINC09184924
REMARK  14 active torsions:
REMARK  status: ('A' for Active; 'I' for Inactive)
REMARK    1  A    between atoms: C_1  and  C_2
REMARK    2  A    between atoms: C_2  and  N_65
REMARK    3  A    between atoms: C_3  and  C_4
REMARK    4  A    between atoms: C_3  and  N_65
REMARK    5  A    between atoms: C_5  and  C_6
REMARK    6  A    between atoms: C_5  and  N_65
REMARK    7  A    between atoms: C_6  and  C_7
REMARK    8  A    between atoms: C_7  and  N_8
REMARK    9  A    between atoms: C_9  and  C_25
REMARK   10  A    between atoms: C_12  and  C_13
REMARK   11  A    between atoms: C_12  and  O_20
REMARK   12  A    between atoms: C_28  and  O_31
REMARK   13  A    between atoms: O_31  and  C_32
REMARK   14  A    between atoms: C_32  and  C_33
REMARK                            x       y       z     vdW  Elec       q    Type
REMARK                         _______ _______ _______ _____ _____    ______ ____
ROOT
ATOM      1  N   UNL     1      -0.838   4.054   0.852  0.00  0.00    -0.284 N 
ATOM      2  C   UNL     1      -1.278   3.119  -0.188  0.00  0.00    +0.144 C 
ATOM      3  C   UNL     1      -1.647   3.952  -1.393  0.00  0.00    +0.071 C 
ATOM      4  C   UNL     1      -2.114   3.492  -2.607  0.00  0.00    +0.133 C 
ATOM      5  C   UNL     1      -1.418   5.288  -1.029  0.00  0.00    +0.249 C 
ATOM      6  O   UNL     1      -1.599   6.263  -1.736  0.00  0.00    -0.282 OA
ATOM      7  C   UNL     1      -0.916   5.307   0.372  0.00  0.00    +0.288 C 
ATOM      8  O   UNL     1      -0.621   6.309   0.992  0.00  0.00    -0.266 OA
ENDROOT
BRANCH   4   9
ATOM      9  C   UNL     1      -2.538   4.449  -3.644  0.00  0.00    +0.017 A 
ATOM     10  C   UNL     1      -3.410   5.494  -3.322  0.00  0.00    +0.013 A 
ATOM     11  C   UNL     1      -3.798   6.388  -4.295  0.00  0.00    +0.021 A 
ATOM     12  C   UNL     1      -3.334   6.249  -5.594  0.00  0.00    +0.041 A 
ATOM     13  C   UNL     1      -2.474   5.213  -5.921  0.00  0.00    +0.021 A 
ATOM     14  C   UNL     1      -2.074   4.314  -4.957  0.00  0.00    +0.013 A 
ATOM     15 CL   UNL     1      -3.833   7.377  -6.815  0.00  0.00    -0.084 Cl
ENDBRANCH   4   9
BRANCH   2  16
ATOM     16  C   UNL     1      -0.158   2.172  -0.538  0.00  0.00    -0.022 A 
ATOM     17  C   UNL     1       1.141   2.640  -0.618  0.00  0.00    +0.009 A 
ATOM     18  C   UNL     1       2.168   1.776  -0.945  0.00  0.00    +0.046 A 
ATOM     19  C   UNL     1       1.896   0.438  -1.192  0.00  0.00    +0.121 A 
ATOM     20  C   UNL     1       0.592  -0.028  -1.111  0.00  0.00    +0.046 A 
ATOM     21  C   UNL     1      -0.432   0.840  -0.784  0.00  0.00    +0.009 A 
BRANCH  19  22
ATOM     22  O   UNL     1       2.905  -0.413  -1.515  0.00  0.00    -0.488 OA
BRANCH  22  23
ATOM     23  C   UNL     1       4.222   0.137  -1.580  0.00  0.00    +0.256 C 
BRANCH  23  24
ATOM     24  C   UNL     1       5.201  -0.948  -1.948  0.00  0.00    +0.006 C 
ATOM     25  C   UNL     1       6.119  -0.722  -2.855  0.00  0.00    +0.007 C 
ENDBRANCH  23  24
ENDBRANCH  22  23
ENDBRANCH  19  22
ENDBRANCH   2  16
BRANCH   4  26
ATOM     26  O   UNL     1      -2.184   2.165  -2.845  0.00  0.00    -0.506 OA
ATOM     27  H   UNL     1      -2.542   2.009  -3.766  0.00  0.00    +0.292 HD
ENDBRANCH   4  26
BRANCH   1  28
ATOM     28  C   UNL     1      -0.386   3.682   2.195  0.00  0.00    +0.107 C 
BRANCH  28  29
ATOM     29  C   UNL     1       1.127   3.453   2.178  0.00  0.00    +0.000 C 
BRANCH  29  30
ATOM     30  C   UNL     1       1.599   3.065   3.581  0.00  0.00    -0.077 C 
BRANCH  30  31
ATOM     31  N   UNL     1       3.057   2.826   3.544  0.00  0.00    +0.379 N 
ATOM     32  H   UNL     1       3.268   2.167   2.787  0.00  0.00    -0.082 HD
BRANCH  31  34
ATOM     33  C   UNL     1       3.442   5.124   4.373  0.00  0.00    -0.017 C 
ATOM     34  C   UNL     1       3.770   4.096   3.288  0.00  0.00    -0.082 C 
ENDBRANCH  31  34
BRANCH  31  35
ATOM     35  C   UNL     1       3.506   2.244   4.827  0.00  0.00    -0.082 C 
ATOM     36  C   UNL     1       4.965   1.805   4.685  0.00  0.00    -0.017 C 
ENDBRANCH  31  35
ENDBRANCH  30  31
ENDBRANCH  29  30
ENDBRANCH  28  29
ENDBRANCH   1  28
TORSDOF 12
