REMARK  Name = ZINC36066183
REMARK  9 active torsions:
REMARK  status: ('A' for Active; 'I' for Inactive)
REMARK    1  A    between atoms: C_1  and  C_2
REMARK    2  A    between atoms: C_2  and  C_3
REMARK    3  A    between atoms: C_3  and  N_4
REMARK    4  A    between atoms: C_5  and  C_29
REMARK    5  A    between atoms: C_13  and  C_19
REMARK    6  A    between atoms: N_21  and  C_22
REMARK    7  A    between atoms: N_31  and  C_32
REMARK    8  A    between atoms: C_37  and  C_42
REMARK    9  A    between atoms: C_39  and  C_41
REMARK                            x       y       z     vdW  Elec       q    Type
REMARK                         _______ _______ _______ _____ _____    ______ ____
ROOT
ATOM      1  N   UNL     1      -1.971  -2.064  -0.393  0.00  0.00    -0.287 N 
ATOM      2  C   UNL     1      -1.889  -3.017  -1.544  0.00  0.00    +0.198 C 
ATOM      3  C   UNL     1      -2.307  -4.307  -0.907  0.00  0.00    +0.127 C 
ATOM      4  C   UNL     1      -3.787  -4.347  -0.575  0.00  0.00    +0.009 C 
ATOM      5  C   UNL     1      -4.002  -5.537  -0.034  0.00  0.00    +0.004 C 
ATOM      6  C   UNL     1      -2.622  -6.204   0.019  0.00  0.00    +0.155 C 
ATOM      7  O   UNL     1      -1.981  -5.644  -1.202  0.00  0.00    -0.358 OA
ATOM      8  C   UNL     1      -1.913  -5.409   1.183  0.00  0.00    +0.123 C 
ATOM      9  C   UNL     1      -1.491  -4.143   0.438  0.00  0.00    +0.128 C 
ATOM     10  C   UNL     1      -1.833  -2.753   0.788  0.00  0.00    +0.223 C 
ATOM     11  O   UNL     1      -1.969  -2.303   1.906  0.00  0.00    -0.275 OA
ENDROOT
BRANCH   8  12
ATOM     12  C   UNL     1      -2.880  -5.106   2.299  0.00  0.00    +0.224 C 
ATOM     13  O   UNL     1      -3.125  -3.956   2.593  0.00  0.00    -0.275 OA
ATOM     14  N   UNL     1      -3.471  -6.114   2.970  0.00  0.00    -0.285 N 
ATOM     15  H   UNL     1      -3.334  -7.032   2.686  0.00  0.00    +0.155 HD
BRANCH  14  16
ATOM     16  C   UNL     1      -4.282  -5.837   4.076  0.00  0.00    +0.035 A 
ATOM     17  C   UNL     1      -5.381  -6.641   4.352  0.00  0.00    +0.023 A 
ATOM     18  C   UNL     1      -6.180  -6.366   5.444  0.00  0.00    +0.003 A 
ATOM     19  C   UNL     1      -5.887  -5.291   6.263  0.00  0.00    +0.020 A 
ATOM     20  C   UNL     1      -4.794  -4.488   5.992  0.00  0.00    +0.043 A 
ATOM     21  C   UNL     1      -3.987  -4.762   4.903  0.00  0.00    +0.043 A 
ATOM     22 CL   UNL     1      -4.431  -3.139   7.022  0.00  0.00    -0.083 Cl
ENDBRANCH  14  16
ENDBRANCH   8  12
BRANCH   2  23
ATOM     23  C   UNL     1      -2.845  -2.622  -2.640  0.00  0.00    +0.237 C 
ATOM     24  O   UNL     1      -3.767  -1.873  -2.399  0.00  0.00    -0.274 OA
ATOM     25  N   UNL     1      -2.675  -3.102  -3.888  0.00  0.00    -0.311 N 
ATOM     26  H   UNL     1      -1.937  -3.701  -4.081  0.00  0.00    +0.149 HD
BRANCH  25  27
ATOM     27  C   UNL     1      -3.604  -2.717  -4.953  0.00  0.00    +0.076 C 
ATOM     28  C   UNL     1      -4.824  -3.640  -4.923  0.00  0.00    +0.022 C 
ATOM     29  C   UNL     1      -5.795  -3.238  -6.036  0.00  0.00    +0.002 C 
ATOM     30  C   UNL     1      -5.095  -3.361  -7.391  0.00  0.00    +0.003 C 
ATOM     31  C   UNL     1      -3.875  -2.439  -7.421  0.00  0.00    -0.009 C 
ATOM     32  C   UNL     1      -2.905  -2.840  -6.309  0.00  0.00    +0.009 C 
ATOM     33  C   UNL     1      -2.455  -4.287  -6.521  0.00  0.00    +0.009 C 
ATOM     34  C   UNL     1      -3.176  -2.562  -8.777  0.00  0.00    +0.008 C 
ENDBRANCH  25  27
ENDBRANCH   2  23
BRANCH   1  35
ATOM     35  C   UNL     1      -2.162  -0.616  -0.508  0.00  0.00    +0.108 C 
BRANCH  35  37
ATOM     36  C   UNL     1      -0.999   1.584  -0.728  0.00  0.00    +0.005 C 
ATOM     37  C   UNL     1      -0.799   0.072  -0.607  0.00  0.00    +0.016 C 
ENDBRANCH  35  37
ENDBRANCH   1  35
TORSDOF 6
