REMARK  Name = ZINC58321176
REMARK  7 active torsions:
REMARK  status: ('A' for Active; 'I' for Inactive)
REMARK    1  A    between atoms: C_1  and  C_2
REMARK    2  A    between atoms: C_7  and  N_12
REMARK    3  A    between atoms: C_9  and  C_11
REMARK    4  A    between atoms: C_13  and  C_15
REMARK    5  A    between atoms: C_15  and  N_16
REMARK    6  A    between atoms: C_19  and  C_23
REMARK    7  A    between atoms: C_19  and  C_24
REMARK                            x       y       z     vdW  Elec       q    Type
REMARK                         _______ _______ _______ _____ _____    ______ ____
ROOT
ATOM      1  N   UNL     1       1.094   0.561   7.203  0.00  0.00    -0.215 N 
ATOM      2  C   UNL     1       1.838   1.643   7.506  0.00  0.00    +0.254 C 
ATOM      3  O   UNL     1       2.820   2.044   6.918  0.00  0.00    -0.272 OA
ATOM      4  C   UNL     1       1.193   2.254   8.734  0.00  0.00    +0.168 C 
ATOM      5  N   UNL     1       0.053   1.362   9.005  0.00  0.00    -0.279 N 
ATOM      6  C   UNL     1       0.075   0.408   8.057  0.00  0.00    +0.310 C 
ATOM      7  O   UNL     1      -0.737  -0.493   7.985  0.00  0.00    -0.252 OA
ATOM      8  C   UNL     1       2.170   2.253   9.912  0.00  0.00    +0.050 C 
ATOM      9  H   UNL     1      -0.591   1.447   9.726  0.00  0.00    +0.152 HD
ENDROOT
BRANCH   4  10
ATOM     10  C   UNL     1       0.714   3.652   8.441  0.00  0.00    +0.137 A 
ATOM     11  C   UNL     1      -0.334   4.263   9.023  0.00  0.00    +0.047 A 
ATOM     12  C   UNL     1      -0.423   5.554   8.454  0.00  0.00    +0.041 A 
ATOM     13  C   UNL     1       0.575   5.655   7.558  0.00  0.00    +0.195 A 
ATOM     14  O   UNL     1       1.264   4.502   7.558  0.00  0.00    -0.465 OA
ENDBRANCH   4  10
BRANCH   1  15
ATOM     15  C   UNL     1       1.363  -0.333   6.074  0.00  0.00    +0.213 C 
BRANCH  15  17
ATOM     16  N   UNL     1       0.735  -0.503   3.687  0.00  0.00    -0.311 N 
ATOM     17  C   UNL     1       0.634   0.166   4.853  0.00  0.00    +0.231 C 
ATOM     18  O   UNL     1      -0.044   1.170   4.919  0.00  0.00    -0.274 OA
ATOM     19  H   UNL     1       1.276  -1.306   3.634  0.00  0.00    +0.149 HD
BRANCH  16  25
ATOM     20  C   UNL     1      -0.019   1.526   0.010  0.00  0.00    +0.008 C 
ATOM     21  C   UNL     1       0.002  -0.004   0.002  0.00  0.00    -0.009 C 
ATOM     22  C   UNL     1      -1.433  -0.534   0.013  0.00  0.00    +0.003 C 
ATOM     23  C   UNL     1      -2.149  -0.040   1.272  0.00  0.00    +0.002 C 
ATOM     24  C   UNL     1      -1.409  -0.547   2.511  0.00  0.00    +0.022 C 
ATOM     25  C   UNL     1       0.026  -0.018   2.500  0.00  0.00    +0.076 C 
ATOM     26  C   UNL     1       0.742  -0.511   1.242  0.00  0.00    +0.009 C 
ATOM     27  C   UNL     1       2.178   0.019   1.231  0.00  0.00    +0.009 C 
ENDBRANCH  16  25
ENDBRANCH  15  17
ENDBRANCH   1  15
TORSDOF 4
