REMARK  Name = ZINC02187784
REMARK  8 active torsions:
REMARK  status: ('A' for Active; 'I' for Inactive)
REMARK    1  A    between atoms: C_1  and  C_2
REMARK    2  A    between atoms: C_2  and  C_37
REMARK    3  A    between atoms: C_6  and  C_25
REMARK    4  A    between atoms: C_8  and  C_23
REMARK    5  A    between atoms: C_9  and  N_22
REMARK    6  A    between atoms: N_10  and  C_11
REMARK    7  A    between atoms: C_13  and  C_18
REMARK    8  A    between atoms: C_29  and  N_31
REMARK                            x       y       z     vdW  Elec       q    Type
REMARK                         _______ _______ _______ _____ _____    ______ ____
ROOT
ATOM      1  C   UNL     1      -0.846   8.113  -3.123  0.00  0.00    +0.011 C 
ATOM      2  C   UNL     1      -1.487   6.817  -3.624  0.00  0.00    -0.023 C 
ATOM      3  C   UNL     1      -2.572   6.368  -2.647  0.00  0.00    +0.058 C 
ATOM      4  C   UNL     1      -1.956   6.096  -1.296  0.00  0.00    +0.025 C 
ATOM      5  C   UNL     1      -0.688   5.648  -1.187  0.00  0.00    +0.025 C 
ATOM      6  C   UNL     1      -0.081   5.357   0.162  0.00  0.00    +0.097 C 
ATOM      7  C   UNL     1      -0.857   6.023   1.260  0.00  0.00    +0.077 C 
ATOM      8  C   UNL     1      -2.125   6.464   1.055  0.00  0.00    +0.107 C 
ATOM      9  N   UNL     1      -2.718   6.311  -0.178  0.00  0.00    -0.259 N 
ATOM     10  C   UNL     1       0.105   5.440  -2.329  0.00  0.00    +0.162 C 
ATOM     11  O   UNL     1       1.241   5.029  -2.198  0.00  0.00    -0.292 OA
ATOM     12  C   UNL     1      -0.425   5.716  -3.709  0.00  0.00    +0.086 C 
ATOM     13  C   UNL     1      -2.099   7.048  -5.007  0.00  0.00    +0.011 C 
ENDROOT
BRANCH   9  14
ATOM     14  C   UNL     1      -4.112   6.377  -0.290  0.00  0.00    +0.058 A 
ATOM     15  C   UNL     1      -4.869   5.213  -0.250  0.00  0.00    +0.037 A 
ATOM     16  C   UNL     1      -6.245   5.281  -0.355  0.00  0.00    +0.057 A 
ATOM     17  C   UNL     1      -6.868   6.505  -0.512  0.00  0.00    +0.014 A 
ATOM     18  C   UNL     1      -6.118   7.666  -0.558  0.00  0.00    +0.022 A 
ATOM     19  C   UNL     1      -4.742   7.606  -0.448  0.00  0.00    +0.063 A 
ATOM     20 CL   UNL     1      -3.800   9.063  -0.505  0.00  0.00    -0.082 Cl
BRANCH  16  21
ATOM     21  C   UNL     1      -7.067   4.019  -0.306  0.00  0.00    +0.417 C 
ATOM     22  F   UNL     1      -8.422   4.339  -0.438  0.00  0.00    -0.166 F 
ATOM     23  F   UNL     1      -6.684   3.172  -1.351  0.00  0.00    -0.166 F 
ATOM     24  F   UNL     1      -6.857   3.373   0.918  0.00  0.00    -0.166 F 
ENDBRANCH  16  21
ENDBRANCH   9  14
BRANCH   6  25
ATOM     25  C   UNL     1      -0.079   3.867   0.392  0.00  0.00    -0.033 A 
ATOM     26  C   UNL     1      -1.268   3.162   0.367  0.00  0.00    +0.005 A 
ATOM     27  C   UNL     1      -1.265   1.796   0.572  0.00  0.00    +0.003 A 
ATOM     28  C   UNL     1      -0.074   1.135   0.813  0.00  0.00    +0.033 A 
ATOM     29  C   UNL     1       1.114   1.840   0.838  0.00  0.00    +0.126 A 
ATOM     30  C   UNL     1       1.112   3.206   0.627  0.00  0.00    +0.037 A 
BRANCH  29  31
ATOM     31  N   UNL     1       2.389   1.132   1.090  0.00  0.00    +0.056 N 
ATOM     32  O   UNL     1       2.391  -0.072   1.275  0.00  0.00    -0.126 OA
ATOM     33  O   UNL     1       3.437   1.753   1.112  0.00  0.00    -0.126 OA
ENDBRANCH  29  31
ENDBRANCH   6  25
BRANCH   8  34
ATOM     34  N   UNL     1      -2.817   7.064   2.080  0.00  0.00    -0.345 N 
ATOM     35  H   UNL     1      -2.399   7.172   2.949  0.00  0.00    +0.144 HD
ATOM     36  H   UNL     1      -3.722   7.379   1.934  0.00  0.00    +0.144 HD
ENDBRANCH   8  34
BRANCH   7  37
ATOM     37  C   UNL     1      -0.251   6.196   2.546  0.00  0.00    +0.099 C 
ATOM     38  N   UNL     1       0.230   6.333   3.566  0.00  0.00    -0.191 NA
ENDBRANCH   7  37
TORSDOF 6
