REMARK  Name = ZINC08601077
REMARK  5 active torsions:
REMARK  status: ('A' for Active; 'I' for Inactive)
REMARK    1  A    between atoms: C_1  and  C_2
REMARK    2  A    between atoms: C_8  and  C_10
REMARK    3  A    between atoms: C_10  and  S_11
REMARK    4  A    between atoms: S_11  and  C_12
REMARK    5  A    between atoms: N_26  and  C_27
REMARK                            x       y       z     vdW  Elec       q    Type
REMARK                         _______ _______ _______ _____ _____    ______ ____
ROOT
ATOM      1  C   UNL     1      -6.268  -5.421   0.001  0.00  0.00    +0.177 A 
ATOM      2  N   UNL     1      -5.592  -6.548  -0.003  0.00  0.00    -0.221 NA
ATOM      3  C   UNL     1      -6.223  -7.734  -0.006  0.00  0.00    +0.104 A 
ATOM      4  C   UNL     1      -5.760  -9.129  -0.011  0.00  0.00    +0.026 A 
ATOM      5  C   UNL     1      -4.496  -9.721  -0.014  0.00  0.00    +0.012 A 
ATOM      6  C   UNL     1      -4.383 -11.083  -0.019  0.00  0.00    +0.001 A 
ATOM      7  C   UNL     1      -5.517 -11.883  -0.020  0.00  0.00    +0.002 A 
ATOM      8  C   UNL     1      -6.773 -11.319  -0.018  0.00  0.00    +0.026 A 
ATOM      9  C   UNL     1      -6.912  -9.933  -0.013  0.00  0.00    +0.049 A 
ATOM     10  N   UNL     1      -8.016  -9.107  -0.009  0.00  0.00    -0.349 N 
ATOM     11  H   UNL     1      -8.937  -9.411  -0.009  0.00  0.00    +0.166 HD
ATOM     12  C   UNL     1      -7.616  -7.780  -0.005  0.00  0.00    +0.132 A 
ATOM     13  C   UNL     1      -8.329  -6.563  -0.001  0.00  0.00    +0.283 A 
ATOM     14  O   UNL     1      -9.549  -6.556   0.001  0.00  0.00    -0.265 OA
ATOM     15  N   UNL     1      -7.634  -5.406   0.008  0.00  0.00    -0.251 N 
ENDROOT
BRANCH  15  16
ATOM     16  C   UNL     1      -8.317  -4.182   0.018  0.00  0.00    +0.087 A 
ATOM     17  C   UNL     1      -8.667  -3.571  -1.179  0.00  0.00    +0.029 A 
ATOM     18  C   UNL     1      -9.340  -2.365  -1.166  0.00  0.00    +0.002 A 
ATOM     19  C   UNL     1      -9.666  -1.765   0.036  0.00  0.00    +0.003 A 
ATOM     20  C   UNL     1      -9.320  -2.369   1.231  0.00  0.00    +0.040 A 
ATOM     21  C   UNL     1      -8.651  -3.580   1.226  0.00  0.00    +0.147 A 
ATOM     22  F   UNL     1      -8.318  -4.174   2.392  0.00  0.00    -0.203 F 
ENDBRANCH  15  16
BRANCH   1  23
ATOM     23  S   UNL     1      -5.390  -3.893   0.006  0.00  0.00    -0.078 S 
BRANCH  23  24
ATOM     24  C   UNL     1      -3.646  -4.389  -0.006  0.00  0.00    +0.173 C 
BRANCH  24  32
ATOM     25  C   UNL     1      -0.018   1.503   0.010  0.00  0.00    +0.089 C 
ATOM     26  C   UNL     1       0.002  -0.004   0.002  0.00  0.00    +0.136 A 
ATOM     27  C   UNL     1      -1.076  -0.808   0.003  0.00  0.00    +0.091 A 
ATOM     28  C   UNL     1      -0.625  -2.147  -0.007  0.00  0.00    +0.168 A 
ATOM     29  N   UNL     1       0.683  -2.130  -0.013  0.00  0.00    -0.063 NA
ATOM     30  O   UNL     1       1.100  -0.776  -0.013  0.00  0.00    -0.358 OA
ATOM     31  N   UNL     1      -1.432  -3.285  -0.010  0.00  0.00    -0.267 N 
ATOM     32  C   UNL     1      -2.774  -3.159  -0.003  0.00  0.00    +0.229 C 
ATOM     33  O   UNL     1      -3.280  -2.057   0.006  0.00  0.00    -0.275 OA
ATOM     34  H   UNL     1      -1.027  -4.166  -0.017  0.00  0.00    +0.156 HD
ENDBRANCH  24  32
ENDBRANCH  23  24
ENDBRANCH   1  23
TORSDOF 4
