REMARK  Name = ZINC10216090
REMARK  4 active torsions:
REMARK  status: ('A' for Active; 'I' for Inactive)
REMARK    1  A    between atoms: C_1  and  O_2
REMARK    2  A    between atoms: O_2  and  C_3
REMARK    3  A    between atoms: C_10  and  C_23
REMARK    4  A    between atoms: C_16  and  C_18
REMARK                            x       y       z     vdW  Elec       q    Type
REMARK                         _______ _______ _______ _____ _____    ______ ____
ROOT
ATOM      1  C   UNL     1       1.687  -4.380  -2.916  0.00  0.00    +0.162 A 
ATOM      2  C   UNL     1       2.254  -5.587  -3.277  0.00  0.00    +0.049 A 
ATOM      3  C   UNL     1       3.039  -6.282  -2.375  0.00  0.00    +0.004 A 
ATOM      4  C   UNL     1       3.246  -5.768  -1.110  0.00  0.00    +0.009 A 
ATOM      5  C   UNL     1       2.676  -4.563  -0.740  0.00  0.00    +0.020 A 
ATOM      6  C   UNL     1       1.901  -3.848  -1.639  0.00  0.00    +0.170 A 
ATOM      7  O   UNL     1       1.350  -2.635  -1.369  0.00  0.00    -0.461 OA
ATOM      8  C   UNL     1       1.303  -2.153  -0.021  0.00  0.00    +0.312 C 
ATOM      9  N   UNL     1       2.545  -2.601   0.622  0.00  0.00    -0.205 N 
ATOM     10  C   UNL     1       2.905  -4.037   0.653  0.00  0.00    +0.136 C 
ATOM     11  C   UNL     1       4.396  -4.005   1.017  0.00  0.00    +0.087 C 
ATOM     12  C   UNL     1       4.631  -2.568   1.436  0.00  0.00    +0.075 C 
ATOM     13  N   UNL     1       3.564  -1.871   1.205  0.00  0.00    -0.184 NA
ENDROOT
BRANCH   8  14
ATOM     14  C   UNL     1       1.230  -0.647  -0.013  0.00  0.00    +0.031 A 
ATOM     15  C   UNL     1       0.002  -0.004   0.002  0.00  0.00    +0.012 A 
ATOM     16  C   UNL     1      -0.017   1.382   0.010  0.00  0.00    +0.020 A 
ATOM     17  C   UNL     1       1.181   2.072   0.002  0.00  0.00    +0.111 A 
ATOM     18  N   UNL     1       2.331   1.427  -0.013  0.00  0.00    -0.263 NA
ATOM     19  C   UNL     1       2.387   0.109  -0.020  0.00  0.00    +0.119 A 
ENDBRANCH   8  14
BRANCH  12  20
ATOM     20  C   UNL     1       5.875  -2.047   2.015  0.00  0.00    +0.035 A 
ATOM     21  C   UNL     1       6.177  -0.759   2.419  0.00  0.00    +0.017 A 
ATOM     22  C   UNL     1       7.427  -0.513   2.941  0.00  0.00    +0.008 A 
ATOM     23  C   UNL     1       8.320  -1.531   3.034  0.00  0.00    +0.046 A 
ATOM     24  S   UNL     1       7.397  -2.909   2.375  0.00  0.00    -0.095 S 
ENDBRANCH  12  20
BRANCH   1  26
ATOM     25  C   UNL     1       0.735  -4.299  -5.094  0.00  0.00    +0.277 C 
ATOM     26  O   UNL     1       0.915  -3.703  -3.808  0.00  0.00    -0.491 OA
ENDBRANCH   1  26
TORSDOF 3
