REMARK  Name = ZINC15861347
REMARK  6 active torsions:
REMARK  status: ('A' for Active; 'I' for Inactive)
REMARK    1  A    between atoms: C_1  and  C_2
REMARK    2  A    between atoms: C_5  and  C_26
REMARK    3  A    between atoms: C_6  and  N_8
REMARK    4  A    between atoms: C_15  and  C_25
REMARK    5  A    between atoms: C_22  and  O_23
REMARK    6  A    between atoms: O_23  and  C_24
REMARK                            x       y       z     vdW  Elec       q    Type
REMARK                         _______ _______ _______ _____ _____    ______ ____
ROOT
ATOM      1  N   UNL     1       1.553  -0.612  -1.688  0.00  0.00    -0.244 N 
ATOM      2  C   UNL     1       2.360   0.336  -2.190  0.00  0.00    +0.141 C 
ATOM      3  S   UNL     1       2.747   0.291  -3.857  0.00  0.00    -0.018 S 
ATOM      4  N   UNL     1       2.875   1.318  -1.432  0.00  0.00    -0.319 N 
ATOM      5  C   UNL     1       2.496   1.421  -0.013  0.00  0.00    +0.111 C 
ATOM      6  C   UNL     1       2.365  -0.009   0.537  0.00  0.00    +0.096 C 
ATOM      7  C   UNL     1       1.247  -0.693  -0.263  0.00  0.00    +0.183 C 
ATOM      8  O   UNL     1       0.013  -0.042   0.029  0.00  0.00    -0.464 OA
ATOM      9  C   UNL     1      -0.020   1.316   0.054  0.00  0.00    +0.170 A 
ATOM     10  C   UNL     1       1.134   2.077   0.043  0.00  0.00    +0.018 A 
ATOM     11  C   UNL     1       1.057   3.458   0.080  0.00  0.00    +0.009 A 
ATOM     12  C   UNL     1      -0.173   4.086   0.121  0.00  0.00    +0.004 A 
ATOM     13  C   UNL     1      -1.333   3.334   0.127  0.00  0.00    +0.049 A 
ATOM     14  C   UNL     1      -1.262   1.952   0.098  0.00  0.00    +0.162 A 
ATOM     15  C   UNL     1       1.158  -2.162   0.155  0.00  0.00    +0.079 C 
ATOM     16  H   UNL     1       3.495   1.956  -1.817  0.00  0.00    +0.148 HD
ENDROOT
BRANCH   1  22
ATOM     17  C   UNL     1       1.673  -5.066  -3.764  0.00  0.00    +0.044 C 
ATOM     18  C   UNL     1       1.025  -3.718  -3.583  0.00  0.00    -0.049 A 
ATOM     19  C   UNL     1      -0.130  -3.407  -4.277  0.00  0.00    +0.004 A 
ATOM     20  C   UNL     1      -0.728  -2.171  -4.114  0.00  0.00    +0.005 A 
ATOM     21  C   UNL     1      -0.172  -1.242  -3.256  0.00  0.00    -0.029 A 
ATOM     22  C   UNL     1       0.988  -1.551  -2.557  0.00  0.00    +0.042 A 
ATOM     23  C   UNL     1       1.588  -2.792  -2.728  0.00  0.00    +0.027 A 
ATOM     24  C   UNL     1      -0.823   0.105  -3.079  0.00  0.00    +0.045 C 
ENDBRANCH   1  22
BRANCH  14  25
ATOM     25  O   UNL     1      -2.403   1.213   0.109  0.00  0.00    -0.491 OA
ATOM     26  C   UNL     1      -3.639   1.928   0.155  0.00  0.00    +0.277 C 
ENDBRANCH  14  25
TORSDOF 2
