REMARK  Name = ZINC16590001
REMARK  11 active torsions:
REMARK  status: ('A' for Active; 'I' for Inactive)
REMARK    1  A    between atoms: C_1  and  C_2
REMARK    2  A    between atoms: C_2  and  C_3
REMARK    3  A    between atoms: C_3  and  N_61
REMARK    4  A    between atoms: C_4  and  C_5
REMARK    5  A    between atoms: C_4  and  N_61
REMARK    6  A    between atoms: N_7  and  C_8
REMARK    7  A    between atoms: C_13  and  C_14
REMARK    8  A    between atoms: C_15  and  C_16
REMARK    9  A    between atoms: C_15  and  N_61
REMARK   10  A    between atoms: C_19  and  C_29
REMARK   11  A    between atoms: C_22  and  C_24
REMARK                            x       y       z     vdW  Elec       q    Type
REMARK                         _______ _______ _______ _____ _____    ______ ____
ROOT
ATOM      1  C   UNL     1      -0.675   4.832   2.901  0.00  0.00    +0.021 C 
ENDROOT
BRANCH   1   2
ATOM      2  C   UNL     1      -1.167   3.493   2.415  0.00  0.00    +0.219 C 
ATOM      3  O   UNL     1      -0.922   2.489   3.052  0.00  0.00    -0.276 OA
ATOM      4  N   UNL     1      -1.878   3.409   1.274  0.00  0.00    -0.184 N 
ATOM      5  C   UNL     1      -2.416   2.171   0.689  0.00  0.00    +0.172 C 
ATOM      6  C   UNL     1      -3.129   2.654  -0.590  0.00  0.00    +0.090 C 
ATOM      7  C   UNL     1      -2.910   4.149  -0.587  0.00  0.00    +0.075 C 
ATOM      8  N   UNL     1      -2.224   4.482   0.455  0.00  0.00    -0.180 NA
BRANCH   7   9
ATOM      9  C   UNL     1      -3.400   5.079  -1.610  0.00  0.00    +0.035 A 
ATOM     10  C   UNL     1      -3.252   6.453  -1.684  0.00  0.00    +0.017 A 
ATOM     11  C   UNL     1      -3.806   7.113  -2.756  0.00  0.00    +0.008 A 
ATOM     12  C   UNL     1      -4.484   6.404  -3.696  0.00  0.00    +0.046 A 
ATOM     13  S   UNL     1      -4.351   4.734  -3.082  0.00  0.00    -0.095 S 
ENDBRANCH   7   9
BRANCH   5  14
ATOM     14  C   UNL     1      -1.300   1.218   0.346  0.00  0.00    +0.128 A 
ATOM     15  C   UNL     1      -1.360  -0.123   0.421  0.00  0.00    +0.046 A 
ATOM     16  C   UNL     1      -0.102  -0.614   0.004  0.00  0.00    +0.041 A 
ATOM     17  C   UNL     1       0.653   0.457  -0.300  0.00  0.00    +0.195 A 
ATOM     18  O   UNL     1      -0.078   1.564  -0.091  0.00  0.00    -0.466 OA
ENDBRANCH   5  14
ENDBRANCH   1   2
BRANCH   1  19
ATOM     19  N   UNL     1       0.052   4.640   4.174  0.00  0.00    +0.391 N 
ATOM     20  H   UNL     1      -0.541   4.103   4.819  0.00  0.00    -0.080 HD
BRANCH  19  21
ATOM     21  C   UNL     1       1.302   3.889   3.934  0.00  0.00    -0.078 C 
BRANCH  21  23
ATOM     22  C   UNL     1       3.427   3.780   2.625  0.00  0.00    +0.002 C 
ATOM     23  C   UNL     1       2.166   4.604   2.894  0.00  0.00    -0.022 C 
ENDBRANCH  21  23
ENDBRANCH  19  21
BRANCH  19  24
ATOM     24  C   UNL     1       0.359   5.951   4.783  0.00  0.00    +0.020 C 
BRANCH  24  25
ATOM     25  C   UNL     1       0.749   5.737   6.223  0.00  0.00    +0.201 C 
ATOM     26  O   UNL     1       0.685   4.628   6.710  0.00  0.00    -0.278 OA
ATOM     27  N   UNL     1       1.170   6.777   6.969  0.00  0.00    -0.287 N 
ATOM     28  H   UNL     1       1.151   7.675   6.603  0.00  0.00    +0.155 HD
BRANCH  27  29
ATOM     29  C   UNL     1       1.634   6.561   8.271  0.00  0.00    +0.036 A 
ATOM     30  C   UNL     1       1.161   5.484   9.009  0.00  0.00    +0.023 A 
ATOM     31  C   UNL     1       1.625   5.270  10.292  0.00  0.00    +0.002 A 
ATOM     32  C   UNL     1       2.551   6.135  10.847  0.00  0.00    +0.000 A 
ATOM     33  C   UNL     1       3.019   7.212  10.117  0.00  0.00    +0.005 A 
ATOM     34  C   UNL     1       2.563   7.428   8.831  0.00  0.00    -0.029 A 
ATOM     35  C   UNL     1       3.075   8.602   8.036  0.00  0.00    +0.045 C 
ENDBRANCH  27  29
ENDBRANCH  24  25
ENDBRANCH  19  24
ENDBRANCH   1  19
TORSDOF 9
