REMARK  Name = ZINC51546337
REMARK  8 active torsions:
REMARK  status: ('A' for Active; 'I' for Inactive)
REMARK    1  A    between atoms: C_1  and  C_2
REMARK    2  A    between atoms: C_2  and  C_3
REMARK    3  A    between atoms: C_2  and  C_4
REMARK    4  A    between atoms: C_8  and  O_10
REMARK    5  A    between atoms: O_10  and  C_11
REMARK    6  A    between atoms: C_12  and  C_18
REMARK    7  A    between atoms: C_18  and  N_19
REMARK    8  A    between atoms: N_19  and  C_20
REMARK                            x       y       z     vdW  Elec       q    Type
REMARK                         _______ _______ _______ _____ _____    ______ ____
ROOT
ATOM      1  C   UNL     1      -4.850  -3.123  -1.923  0.00  0.00    +0.222 A 
ATOM      2  C   UNL     1      -5.297  -4.019  -2.886  0.00  0.00    -0.001 A 
ATOM      3  C   UNL     1      -6.568  -4.554  -2.770  0.00  0.00    +0.023 A 
ATOM      4  C   UNL     1      -7.351  -4.171  -1.688  0.00  0.00    +0.036 A 
ATOM      5  C   UNL     1      -6.842  -3.275  -0.769  0.00  0.00    +0.130 A 
ATOM      6  N   UNL     1      -5.624  -2.786  -0.905  0.00  0.00    -0.220 NA
ATOM      7 BR   UNL     1      -9.096  -4.869  -1.478  0.00  0.00    -0.049 Br
ENDROOT
BRANCH   1   8
ATOM      8  O   UNL     1      -3.606  -2.591  -2.026  0.00  0.00    -0.438 OA
BRANCH   8  13
ATOM      9  C   UNL     1      -2.284  -1.572   1.207  0.00  0.00    -0.041 A 
ATOM     10  C   UNL     1      -2.263  -0.198   1.054  0.00  0.00    +0.004 A 
ATOM     11  C   UNL     1      -2.691   0.375  -0.129  0.00  0.00    +0.004 A 
ATOM     12  C   UNL     1      -3.141  -0.424  -1.162  0.00  0.00    +0.046 A 
ATOM     13  C   UNL     1      -3.163  -1.803  -1.011  0.00  0.00    +0.131 A 
ATOM     14  C   UNL     1      -2.728  -2.376   0.175  0.00  0.00    +0.050 A 
BRANCH   9  16
ATOM     15  C   UNL     1      -0.356  -1.810   2.749  0.00  0.00    +0.012 C 
ATOM     16  C   UNL     1      -1.816  -2.193   2.498  0.00  0.00    +0.013 C 
ATOM     17  C   UNL     1      -2.683  -1.685   3.652  0.00  0.00    +0.012 C 
ENDBRANCH   9  16
ENDBRANCH   8  13
ENDBRANCH   1   8
BRANCH   2  18
ATOM     18  C   UNL     1      -4.409  -4.403  -4.042  0.00  0.00    -0.042 C 
BRANCH  18  19
ATOM     19  N   UNL     1      -3.445  -5.420  -3.601  0.00  0.00    +0.380 N 
ATOM     20  C   UNL     1      -2.580  -5.795  -4.728  0.00  0.00    -0.100 C 
ATOM     21  H   UNL     1      -2.880  -5.046  -2.853  0.00  0.00    -0.086 HD
ATOM     22  H   UNL     1      -3.941  -6.235  -3.273  0.00  0.00    -0.086 HD
ENDBRANCH  18  19
ENDBRANCH   2  18
TORSDOF 5
