REMARK  Name = ZINC12904902
REMARK  11 active torsions:
REMARK  status: ('A' for Active; 'I' for Inactive)
REMARK    1  A    between atoms: C_1  and  C_2
REMARK    2  A    between atoms: C_15  and  C_17
REMARK    3  A    between atoms: C_17  and  N_18
REMARK    4  A    between atoms: N_18  and  C_19
REMARK    5  A    between atoms: C_20  and  C_22
REMARK    6  A    between atoms: C_22  and  O_23
REMARK    7  A    between atoms: O_23  and  C_24
REMARK    8  A    between atoms: C_27  and  C_30
REMARK    9  A    between atoms: C_30  and  C_31
REMARK   10  A    between atoms: C_30  and  C_32
REMARK   11  A    between atoms: C_30  and  C_33
REMARK                            x       y       z     vdW  Elec       q    Type
REMARK                         _______ _______ _______ _____ _____    ______ ____
ROOT
ATOM      1  C   UNL     1       0.382   3.528  -2.281  0.00  0.00    +0.203 C 
ENDROOT
BRANCH   1  15
ATOM      2  C   UNL     1       0.447   4.069   2.317  0.00  0.00    +0.029 C 
ATOM      3  C   UNL     1       1.591   4.138   1.304  0.00  0.00    +0.087 C 
ATOM      4  C   UNL     1       2.821   3.433   1.877  0.00  0.00    +0.118 C 
ATOM      5  C   UNL     1       3.808   3.138   0.779  0.00  0.00    +0.219 C 
ATOM      6  O   UNL     1       4.808   3.814   0.669  0.00  0.00    -0.275 OA
ATOM      7  N   UNL     1       3.585   2.124  -0.086  0.00  0.00    -0.284 N 
ATOM      8  C   UNL     1       2.390   1.397  -0.034  0.00  0.00    +0.055 A 
ATOM      9  C   UNL     1       2.400   0.012  -0.036  0.00  0.00    +0.025 A 
ATOM     10  C   UNL     1       1.206  -0.685  -0.015  0.00  0.00    +0.002 A 
ATOM     11  C   UNL     1       0.002  -0.004   0.002  0.00  0.00    +0.002 A 
ATOM     12  C   UNL     1      -0.017   1.379   0.010  0.00  0.00    +0.025 A 
ATOM     13  C   UNL     1       1.175   2.084   0.002  0.00  0.00    +0.058 A 
ATOM     14  N   UNL     1       1.177   3.484   0.061  0.00  0.00    -0.265 N 
ATOM     15  C   UNL     1       0.805   4.215  -1.008  0.00  0.00    +0.237 C 
ATOM     16  O   UNL     1       0.810   5.427  -0.946  0.00  0.00    -0.274 OA
ATOM     17  H   UNL     1       4.257   1.899  -0.747  0.00  0.00    +0.155 HD
ENDBRANCH   1  15
BRANCH   1  18
ATOM     18  N   UNL     1       0.028   4.535  -3.285  0.00  0.00    -0.293 N 
ATOM     19  C   UNL     1      -1.350   5.022  -3.379  0.00  0.00    +0.132 C 
ATOM     20  C   UNL     1       0.970   5.013  -4.122  0.00  0.00    +0.253 C 
ATOM     21  O   UNL     1       2.111   4.609  -4.044  0.00  0.00    -0.272 OA
BRANCH  20  22
ATOM     22  C   UNL     1       0.606   6.048  -5.154  0.00  0.00    +0.324 C 
BRANCH  22  23
ATOM     23  O   UNL     1       1.767   6.392  -5.914  0.00  0.00    -0.483 OA
BRANCH  23  24
ATOM     24  C   UNL     1       1.610   7.320  -6.894  0.00  0.00    +0.121 A 
ATOM     25  C   UNL     1       0.363   7.884  -7.124  0.00  0.00    +0.046 A 
ATOM     26  C   UNL     1       0.207   8.831  -8.118  0.00  0.00    +0.008 A 
ATOM     27  C   UNL     1       1.290   9.209  -8.890  0.00  0.00    -0.042 A 
ATOM     28  C   UNL     1       2.533   8.645  -8.666  0.00  0.00    +0.008 A 
ATOM     29  C   UNL     1       2.695   7.702  -7.670  0.00  0.00    +0.046 A 
BRANCH  27  30
ATOM     30  C   UNL     1       1.116  10.239  -9.977  0.00  0.00    -0.013 C 
ATOM     31  C   UNL     1       1.492   9.623 -11.326  0.00  0.00    +0.015 C 
ATOM     32  C   UNL     1      -0.342  10.699 -10.014  0.00  0.00    +0.015 C 
ATOM     33  C   UNL     1       2.022  11.438  -9.693  0.00  0.00    +0.015 C 
ENDBRANCH  27  30
ENDBRANCH  23  24
ENDBRANCH  22  23
ENDBRANCH  20  22
ENDBRANCH   1  18
TORSDOF 6
