REMARK  Name = ZINC10811755
REMARK  5 active torsions:
REMARK  status: ('A' for Active; 'I' for Inactive)
REMARK    1  A    between atoms: C_5  and  S_6
REMARK    2  A    between atoms: S_6  and  N_9
REMARK    3  A    between atoms: C_14  and  C_16
REMARK    4  A    between atoms: N_18  and  C_19
REMARK    5  A    between atoms: C_20  and  C_29
REMARK                            x       y       z     vdW  Elec       q    Type
REMARK                         _______ _______ _______ _____ _____    ______ ____
ROOT
ATOM      1  C   UNL     1       0.310   3.801  -1.249  0.00  0.00    +0.236 C 
ATOM      2  O   UNL     1       0.976   3.158  -0.465  0.00  0.00    -0.274 OA
ATOM      3  N   UNL     1       0.662   5.065  -1.555  0.00  0.00    -0.278 N 
ATOM      4  H   UNL     1       0.129   5.579  -2.181  0.00  0.00    +0.155 HD
ENDROOT
BRANCH   3   5
ATOM      5  C   UNL     1       1.788   5.632  -0.974  0.00  0.00    +0.090 A 
ATOM      6  C   UNL     1       2.310   6.901  -1.165  0.00  0.00    +0.084 A 
ATOM      7  C   UNL     1       3.511   7.259  -0.423  0.00  0.00    -0.018 A 
ATOM      8  C   UNL     1       4.001   6.284   0.372  0.00  0.00    -0.004 A 
ATOM      9  S   UNL     1       2.888   4.921   0.160  0.00  0.00    -0.077 S 
ATOM     10  C   UNL     1       5.224   6.333   1.234  0.00  0.00    +0.043 C 
ATOM     11  C   UNL     1       5.204   7.621   2.067  0.00  0.00    +0.005 C 
ATOM     12  C   UNL     1       5.899   8.722   1.271  0.00  0.00    +0.001 C 
ATOM     13  C   UNL     1       5.653   8.525  -0.223  0.00  0.00    +0.005 C 
ATOM     14  C   UNL     1       4.165   8.631  -0.537  0.00  0.00    +0.037 C 
BRANCH   6  15
ATOM     15  C   UNL     1       1.686   7.830  -2.058  0.00  0.00    +0.102 C 
ATOM     16  N   UNL     1       1.192   8.568  -2.766  0.00  0.00    -0.191 NA
ENDBRANCH   6  15
ENDBRANCH   3   5
BRANCH   1  22
ATOM     17  N   UNL     1      -1.873   2.814  -0.832  0.00  0.00    -0.164 NA
ATOM     18  C   UNL     1      -3.076   2.059  -1.212  0.00  0.00    +0.110 C 
ATOM     19  C   UNL     1      -2.657   0.817  -1.995  0.00  0.00    +0.017 C 
ATOM     20  C   UNL     1      -1.777   1.233  -3.176  0.00  0.00    +0.003 C 
ATOM     21  C   UNL     1      -0.515   1.925  -2.655  0.00  0.00    +0.030 C 
ATOM     22  C   UNL     1      -0.913   3.186  -1.880  0.00  0.00    +0.166 C 
BRANCH  17  23
ATOM     23  S   UNL     1      -1.602   3.230   0.748  0.00  0.00    +0.068 S 
ATOM     24  O   UNL     1      -0.749   4.366   0.727  0.00  0.00    -0.152 OA
ATOM     25  O   UNL     1      -2.871   3.242   1.388  0.00  0.00    -0.152 OA
BRANCH  23  30
ATOM     26  C   UNL     1       0.655   1.835   1.700  0.00  0.00    +0.038 A 
ATOM     27  C   UNL     1       1.165   0.700   2.302  0.00  0.00    +0.030 A 
ATOM     28  C   UNL     1       0.314  -0.300   2.645  0.00  0.00    +0.080 A 
ATOM     29  S   UNL     1      -1.260   0.358   2.121  0.00  0.00    -0.057 S 
ATOM     30  C   UNL     1      -0.680   1.920   1.481  0.00  0.00    +0.144 A 
ATOM     31 CL   UNL     1       0.666  -1.824   3.398  0.00  0.00    -0.076 Cl
ENDBRANCH  23  30
ENDBRANCH  17  23
ENDBRANCH   1  22
TORSDOF 5
