REMARK  Name = ZINC40007119
REMARK  10 active torsions:
REMARK  status: ('A' for Active; 'I' for Inactive)
REMARK    1  A    between atoms: C_3  and  C_17
REMARK    2  A    between atoms: C_5  and  O_7
REMARK    3  A    between atoms: O_7  and  C_8
REMARK    4  A    between atoms: C_8  and  C_9
REMARK    5  A    between atoms: C_18  and  C_19
REMARK    6  A    between atoms: C_18  and  C_21
REMARK    7  A    between atoms: N_23  and  C_24
REMARK    8  A    between atoms: C_24  and  C_25
REMARK    9  A    between atoms: C_25  and  C_26
REMARK   10  A    between atoms: C_26  and  N_27
REMARK                            x       y       z     vdW  Elec       q    Type
REMARK                         _______ _______ _______ _____ _____    ______ ____
ROOT
ATOM      1  C   UNL     1       3.650   2.161  -0.022  0.00  0.00    +0.032 C 
ATOM      2  C   UNL     1       3.632   3.523  -0.118  0.00  0.00    +0.114 C 
ENDROOT
BRANCH   1   5
ATOM      3  C   UNL     1       1.014  -0.505  -0.052  0.00  0.00    +0.004 A 
ATOM      4  C   UNL     1       2.181   0.177  -0.322  0.00  0.00    +0.008 A 
ATOM      5  C   UNL     1       2.409   1.429   0.262  0.00  0.00    -0.020 A 
ATOM      6  C   UNL     1       1.449   1.980   1.119  0.00  0.00    +0.053 A 
ATOM      7  C   UNL     1       0.283   1.283   1.381  0.00  0.00    +0.122 A 
ATOM      8  C   UNL     1       0.068   0.041   0.796  0.00  0.00    +0.046 A 
BRANCH   7   9
ATOM      9  O   UNL     1      -0.652   1.813   2.213  0.00  0.00    -0.487 OA
BRANCH   9  10
ATOM     10  C   UNL     1      -1.832   1.039   2.439  0.00  0.00    +0.266 C 
BRANCH  10  11
ATOM     11  C   UNL     1      -2.747   1.780   3.379  0.00  0.00    +0.008 A 
ATOM     12  C   UNL     1      -2.377   3.019   3.869  0.00  0.00    +0.010 A 
ATOM     13  C   UNL     1      -3.216   3.700   4.731  0.00  0.00    +0.020 A 
ATOM     14  C   UNL     1      -4.426   3.142   5.105  0.00  0.00    +0.042 A 
ATOM     15  C   UNL     1      -4.796   1.903   4.615  0.00  0.00    +0.040 A 
ATOM     16  C   UNL     1      -3.959   1.224   3.748  0.00  0.00    +0.049 A 
ATOM     17 CL   UNL     1      -4.426  -0.328   3.127  0.00  0.00    -0.083 Cl
ATOM     18 CL   UNL     1      -5.478   3.998   6.188  0.00  0.00    -0.083 Cl
ENDBRANCH  10  11
ENDBRANCH   9  10
ENDBRANCH   7   9
ENDBRANCH   1   5
BRANCH   2  19
ATOM     19  C   UNL     1       4.896   4.269  -0.237  0.00  0.00    +0.254 C 
ATOM     20  O   UNL     1       5.956   3.672  -0.250  0.00  0.00    -0.269 OA
ATOM     21  N   UNL     1       4.879   5.613  -0.332  0.00  0.00    -0.311 N 
ATOM     22  H   UNL     1       4.034   6.090  -0.322  0.00  0.00    +0.149 HD
BRANCH  21  23
ATOM     23  C   UNL     1       6.137   6.355  -0.451  0.00  0.00    +0.106 C 
BRANCH  23  24
ATOM     24  C   UNL     1       5.839   7.853  -0.542  0.00  0.00    +0.040 C 
BRANCH  24  25
ATOM     25  C   UNL     1       7.152   8.628  -0.666  0.00  0.00    +0.124 C 
BRANCH  25  26
ATOM     26  N   UNL     1       6.866  10.062  -0.753  0.00  0.00    -0.338 N 
ATOM     27  C   UNL     1       6.644  10.778  -1.899  0.00  0.00    +0.104 A 
ATOM     28  C   UNL     1       6.422  12.053  -1.525  0.00  0.00    +0.101 A 
ATOM     29  N   UNL     1       6.506  12.114  -0.188  0.00  0.00    -0.352 N 
ATOM     30  C   UNL     1       6.767  10.924   0.282  0.00  0.00    +0.173 A 
ATOM     31  H   UNL     1       6.388  12.914   0.347  0.00  0.00    +0.166 HD
ENDBRANCH  25  26
ENDBRANCH  24  25
ENDBRANCH  23  24
ENDBRANCH  21  23
ENDBRANCH   2  19
BRANCH   2  32
ATOM     32  C   UNL     1       2.385   4.226  -0.102  0.00  0.00    +0.104 C 
ATOM     33  N   UNL     1       1.395   4.784  -0.090  0.00  0.00    -0.191 NA
ENDBRANCH   2  32
TORSDOF 10
