REMARK  Name = ZINC57003928
REMARK  9 active torsions:
REMARK  status: ('A' for Active; 'I' for Inactive)
REMARK    1  A    between atoms: C_1  and  C_2
REMARK    2  A    between atoms: C_2  and  N_3
REMARK    3  A    between atoms: N_3  and  C_4
REMARK    4  A    between atoms: N_3  and  C_6
REMARK    5  A    between atoms: C_4  and  C_5
REMARK    6  A    between atoms: C_9  and  N_13
REMARK    7  A    between atoms: C_10  and  C_12
REMARK    8  A    between atoms: C_14  and  C_16
REMARK    9  A    between atoms: C_16  and  C_17
REMARK                            x       y       z     vdW  Elec       q    Type
REMARK                         _______ _______ _______ _____ _____    ______ ____
ROOT
ATOM      1  N   UNL     1       1.686  -6.134   0.589  0.00  0.00    -0.285 N 
ATOM      2  C   UNL     1       0.755  -7.042   0.940  0.00  0.00    +0.223 C 
ATOM      3  O   UNL     1      -0.340  -6.675   1.311  0.00  0.00    -0.275 OA
ATOM      4  H   UNL     1       2.538  -6.427   0.228  0.00  0.00    +0.155 HD
ENDROOT
BRANCH   1   8
ATOM      5  C   UNL     1       0.909  -2.067   1.051  0.00  0.00    +0.014 A 
ATOM      6  C   UNL     1      -0.137  -2.954   0.876  0.00  0.00    +0.023 A 
ATOM      7  C   UNL     1       0.117  -4.302   0.722  0.00  0.00    +0.025 A 
ATOM      8  C   UNL     1       1.425  -4.768   0.744  0.00  0.00    +0.036 A 
ATOM      9  C   UNL     1       2.474  -3.875   0.920  0.00  0.00    -0.028 A 
ATOM     10  C   UNL     1       2.213  -2.526   1.068  0.00  0.00    +0.026 A 
ATOM     11  C   UNL     1       3.895  -4.375   0.944  0.00  0.00    +0.046 C 
BRANCH   5  12
ATOM     12  N   UNL     1       0.649  -0.702   1.207  0.00  0.00    -0.394 NA
ATOM     13  H   UNL     1       1.519  -0.204   1.318  0.00  0.00    +0.126 HD
BRANCH  12  15
ATOM     14  C   UNL     1       0.863  -0.309  -1.201  0.00  0.00    +0.022 C 
ATOM     15  C   UNL     1      -0.054  -0.200   0.019  0.00  0.00    +0.081 C 
ENDBRANCH  12  15
BRANCH  12  16
ATOM     16  C   UNL     1      -0.189  -0.496   2.396  0.00  0.00    +0.081 C 
ATOM     17  C   UNL     1       0.588  -0.913   3.646  0.00  0.00    +0.022 C 
ENDBRANCH  12  16
ENDBRANCH   5  12
ENDBRANCH   1   8
BRANCH   2  18
ATOM     18  C   UNL     1       1.073  -8.513   0.872  0.00  0.00    +0.152 C 
BRANCH  18  19
ATOM     19  C   UNL     1      -0.128  -9.308   1.313  0.00  0.00    +0.059 A 
ATOM     20  C   UNL     1      -0.665 -10.274   0.529  0.00  0.00    +0.072 A 
ATOM     21  S   UNL     1      -2.011 -10.832   1.561  0.00  0.00    -0.060 S 
ATOM     22  C   UNL     1      -1.753  -9.794   2.861  0.00  0.00    +0.164 A 
ATOM     23  N   UNL     1      -0.701  -9.098   2.485  0.00  0.00    -0.229 NA
ATOM     24  N   UNL     1      -2.472  -9.699   4.044  0.00  0.00    -0.279 N 
ATOM     25  C   UNL     1      -3.494 -10.605   4.312  0.00  0.00    +0.124 A 
ATOM     26  C   UNL     1      -4.284 -10.437   5.446  0.00  0.00    +0.045 A 
ATOM     27  C   UNL     1      -5.296 -11.345   5.700  0.00  0.00    +0.025 A 
ATOM     28  C   UNL     1      -5.486 -12.393   4.809  0.00  0.00    +0.059 A 
ATOM     29  C   UNL     1      -4.665 -12.498   3.703  0.00  0.00    +0.132 A 
ATOM     30  N   UNL     1      -3.710 -11.614   3.483  0.00  0.00    -0.239 NA
ATOM     31 CL   UNL     1      -6.743 -13.560   5.082  0.00  0.00    -0.082 Cl
ATOM     32  H   UNL     1      -2.262  -9.002   4.685  0.00  0.00    +0.155 HD
ENDBRANCH  18  19
ENDBRANCH   2  18
TORSDOF 6
