REMARK  Name = ZINC09533252
REMARK  6 active torsions:
REMARK  status: ('A' for Active; 'I' for Inactive)
REMARK    1  A    between atoms: C_1  and  C_2
REMARK    2  A    between atoms: N_13  and  C_24
REMARK    3  A    between atoms: C_14  and  S_16
REMARK    4  A    between atoms: S_16  and  C_17
REMARK    5  A    between atoms: C_17  and  C_18
REMARK    6  A    between atoms: C_24  and  C_25
REMARK                            x       y       z     vdW  Elec       q    Type
REMARK                         _______ _______ _______ _____ _____    ______ ____
ROOT
ATOM      1  C   UNL     1       6.729   0.238  -0.151  0.00  0.00    +0.008 C 
ATOM      2  C   UNL     1       5.274   0.624  -0.425  0.00  0.00    -0.009 C 
ATOM      3  C   UNL     1       4.342  -0.253   0.416  0.00  0.00    +0.008 C 
ATOM      4  C   UNL     1       2.893  -0.049  -0.028  0.00  0.00    +0.037 C 
ATOM      5  C   UNL     1       2.581   1.445  -0.016  0.00  0.00    -0.023 A 
ATOM      6  C   UNL     1       3.574   2.357  -0.020  0.00  0.00    -0.004 A 
ATOM      7  S   UNL     1       2.756   3.929  -0.002  0.00  0.00    -0.073 S 
ATOM      8  C   UNL     1       1.076   3.356   0.010  0.00  0.00    +0.117 A 
ATOM      9  C   UNL     1       1.209   1.957   0.001  0.00  0.00    +0.076 A 
ATOM     10  C   UNL     1      -0.015   1.215   0.009  0.00  0.00    +0.264 A 
ATOM     11  O   UNL     1       0.002  -0.004   0.002  0.00  0.00    -0.267 OA
ATOM     12  N   UNL     1      -1.184   1.881   0.018  0.00  0.00    -0.280 N 
ATOM     13  C   UNL     1      -1.221   3.245   0.031  0.00  0.00    +0.173 A 
ATOM     14  N   UNL     1      -0.110   3.953   0.024  0.00  0.00    -0.216 NA
ATOM     15  C   UNL     1       5.049   2.093  -0.037  0.00  0.00    +0.046 C 
ENDROOT
BRANCH  13  16
ATOM     16  S   UNL     1      -2.777   4.072   0.050  0.00  0.00    -0.078 S 
BRANCH  16  17
ATOM     17  C   UNL     1      -2.219   5.794   0.054  0.00  0.00    +0.173 C 
BRANCH  17  18
ATOM     18  C   UNL     1      -3.415   6.710   0.071  0.00  0.00    +0.231 C 
ATOM     19  O   UNL     1      -4.535   6.245   0.079  0.00  0.00    -0.274 OA
ATOM     20  N   UNL     1      -3.240   8.046   0.077  0.00  0.00    -0.240 N 
ATOM     21  C   UNL     1      -4.311   8.866   0.091  0.00  0.00    +0.303 C 
ATOM     22  O   UNL     1      -5.433   8.399   0.099  0.00  0.00    -0.253 OA
ATOM     23  N   UNL     1      -4.136  10.202   0.098  0.00  0.00    -0.313 N 
ATOM     24  H   UNL     1      -2.345   8.418   0.071  0.00  0.00    +0.159 HD
ATOM     25  H   UNL     1      -3.240  10.574   0.091  0.00  0.00    +0.146 HD
ATOM     26  H   UNL     1      -4.906  10.792   0.108  0.00  0.00    +0.146 HD
ENDBRANCH  17  18
ENDBRANCH  16  17
ENDBRANCH  13  16
BRANCH  12  27
ATOM     27  C   UNL     1      -2.440   1.128   0.020  0.00  0.00    +0.201 C 
BRANCH  27  28
ATOM     28  C   UNL     1      -2.864   0.862   1.441  0.00  0.00    +0.125 A 
ATOM     29  C   UNL     1      -3.642   1.661   2.193  0.00  0.00    +0.046 A 
ATOM     30  C   UNL     1      -3.786   1.029   3.449  0.00  0.00    +0.041 A 
ATOM     31  C   UNL     1      -3.081  -0.115   3.393  0.00  0.00    +0.195 A 
ATOM     32  O   UNL     1      -2.524  -0.211   2.174  0.00  0.00    -0.466 OA
ENDBRANCH  27  28
ENDBRANCH  12  27
TORSDOF 5
