REMARK  Name = ZINC57316412
REMARK  7 active torsions:
REMARK  status: ('A' for Active; 'I' for Inactive)
REMARK    1  A    between atoms: C_3  and  C_10
REMARK    2  A    between atoms: C_5  and  N_7
REMARK    3  A    between atoms: N_12  and  C_13
REMARK    4  A    between atoms: C_13  and  N_15
REMARK    5  A    between atoms: N_15  and  C_16
REMARK    6  A    between atoms: C_16  and  C_17
REMARK    7  A    between atoms: C_20  and  C_22
REMARK                            x       y       z     vdW  Elec       q    Type
REMARK                         _______ _______ _______ _____ _____    ______ ____
ROOT
ATOM      1  C   UNL     1       4.801   4.194  -0.023  0.00  0.00    +0.137 C 
ATOM      2  S   UNL     1       6.293   3.354  -0.041  0.00  0.00    -0.018 S 
ENDROOT
BRANCH   1   5
ATOM      3  C   UNL     1       3.656   2.160  -0.022  0.00  0.00    +0.250 C 
ATOM      4  O   UNL     1       4.715   1.564  -0.035  0.00  0.00    -0.270 OA
ATOM      5  N   UNL     1       3.642   3.507  -0.015  0.00  0.00    -0.264 N 
ATOM      6  H   UNL     1       2.796   3.983  -0.004  0.00  0.00    +0.157 HD
BRANCH   3   9
ATOM      7  C   UNL     1      -0.017   1.379   0.010  0.00  0.00    +0.003 A 
ATOM      8  C   UNL     1       1.167   2.088   0.002  0.00  0.00    +0.013 A 
ATOM      9  C   UNL     1       2.385   1.407  -0.013  0.00  0.00    +0.039 A 
ATOM     10  C   UNL     1       2.397   0.011  -0.021  0.00  0.00    +0.045 A 
ATOM     11  C   UNL     1       1.206  -0.686  -0.013  0.00  0.00    +0.127 A 
ATOM     12  C   UNL     1       0.002  -0.004   0.002  0.00  0.00    +0.033 A 
BRANCH  11  13
ATOM     13  N   UNL     1       1.217  -2.166  -0.021  0.00  0.00    +0.056 N 
ATOM     14  O   UNL     1       2.268  -2.763  -0.035  0.00  0.00    -0.126 OA
ATOM     15  O   UNL     1       0.174  -2.778  -0.015  0.00  0.00    -0.126 OA
ENDBRANCH  11  13
ENDBRANCH   3   9
ENDBRANCH   1   5
BRANCH   1  16
ATOM     16  N   UNL     1       4.787   5.542  -0.016  0.00  0.00    -0.319 N 
ATOM     17  H   UNL     1       3.941   6.017  -0.005  0.00  0.00    +0.148 HD
BRANCH  16  18
ATOM     18  C   UNL     1       6.047   6.288  -0.024  0.00  0.00    +0.177 C 
BRANCH  18  19
ATOM     19  C   UNL     1       5.756   7.767  -0.014  0.00  0.00    +0.123 A 
ATOM     20  C   UNL     1       5.620   8.533   1.086  0.00  0.00    +0.047 A 
ATOM     21  C   UNL     1       5.355   9.845   0.645  0.00  0.00    +0.050 A 
ATOM     22  C   UNL     1       5.344   9.806  -0.714  0.00  0.00    +0.135 A 
ATOM     23  O   UNL     1       5.594   8.540  -1.100  0.00  0.00    -0.458 OA
BRANCH  22  24
ATOM     24  C   UNL     1       5.105  10.955  -1.612  0.00  0.00    +0.017 A 
ATOM     25  C   UNL     1       4.867  12.224  -1.080  0.00  0.00    +0.012 A 
ATOM     26  C   UNL     1       4.645  13.292  -1.923  0.00  0.00    +0.016 A 
ATOM     27  C   UNL     1       4.656  13.109  -3.295  0.00  0.00    +0.018 A 
ATOM     28  C   UNL     1       4.891  11.853  -3.830  0.00  0.00    +0.016 A 
ATOM     29  C   UNL     1       5.120  10.778  -2.997  0.00  0.00    +0.012 A 
ATOM     30 BR   UNL     1       4.349  14.579  -4.445  0.00  0.00    -0.050 Br
ENDBRANCH  22  24
ENDBRANCH  18  19
ENDBRANCH  16  18
ENDBRANCH   1  16
TORSDOF 7
