REMARK  Name = ZINC38605095
REMARK  8 active torsions:
REMARK  status: ('A' for Active; 'I' for Inactive)
REMARK    1  A    between atoms: C_1  and  C_2
REMARK    2  A    between atoms: C_2  and  C_3
REMARK    3  A    between atoms: C_3  and  C_5
REMARK    4  A    between atoms: C_3  and  N_6
REMARK    5  A    between atoms: C_10  and  C_11
REMARK    6  A    between atoms: C_14  and  C_16
REMARK    7  A    between atoms: C_23  and  C_29
REMARK    8  A    between atoms: C_24  and  C_27
REMARK                            x       y       z     vdW  Elec       q    Type
REMARK                         _______ _______ _______ _____ _____    ______ ____
ROOT
ATOM      1  N   UNL     1      -0.214   0.286  -2.354  0.00  0.00    -0.231 N 
ATOM      2  C   UNL     1       0.436   0.616  -3.484  0.00  0.00    +0.254 C 
ATOM      3  O   UNL     1       1.611   0.325  -3.612  0.00  0.00    -0.270 OA
ATOM      4  C   UNL     1      -0.263   1.323  -4.564  0.00  0.00    +0.045 C 
ATOM      5  C   UNL     1       0.415   1.666  -5.742  0.00  0.00    +0.059 C 
ATOM      6  C   UNL     1      -1.623   1.653  -4.402  0.00  0.00    -0.016 C 
ATOM      7  C   UNL     1      -2.261   1.297  -3.221  0.00  0.00    +0.117 C 
ATOM      8  C   UNL     1      -1.513   0.588  -2.182  0.00  0.00    +0.264 C 
ATOM      9  O   UNL     1      -2.073   0.270  -1.148  0.00  0.00    -0.269 OA
ATOM     10  C   UNL     1      -2.371   2.380  -5.490  0.00  0.00    +0.046 C 
ENDROOT
BRANCH   5  11
ATOM     11  C   UNL     1      -0.304   1.920  -6.912  0.00  0.00    +0.129 A 
ATOM     12  C   UNL     1      -0.066   2.961  -7.808  0.00  0.00    +0.050 A 
ATOM     13  C   UNL     1      -1.009   2.839  -8.822  0.00  0.00    +0.050 A 
ATOM     14  C   UNL     1      -1.790   1.739  -8.522  0.00  0.00    +0.136 A 
ATOM     15  O   UNL     1      -1.347   1.198  -7.375  0.00  0.00    -0.455 OA
BRANCH  14  16
ATOM     16  C   UNL     1      -2.917   1.239  -9.330  0.00  0.00    +0.017 A 
ATOM     17  C   UNL     1      -3.273   1.887 -10.516  0.00  0.00    +0.012 A 
ATOM     18  C   UNL     1      -4.328   1.414 -11.267  0.00  0.00    +0.016 A 
ATOM     19  C   UNL     1      -5.035   0.299 -10.848  0.00  0.00    +0.018 A 
ATOM     20  C   UNL     1      -4.688  -0.349  -9.674  0.00  0.00    +0.016 A 
ATOM     21  C   UNL     1      -3.632   0.110  -8.916  0.00  0.00    +0.012 A 
ATOM     22 BR   UNL     1      -6.482  -0.342 -11.884  0.00  0.00    -0.050 Br
ENDBRANCH  14  16
ENDBRANCH   5  11
BRANCH   1  23
ATOM     23  C   UNL     1       0.505  -0.420  -1.291  0.00  0.00    +0.081 C 
ATOM     24  C   UNL     1      -0.166  -1.770  -1.032  0.00  0.00    +0.028 C 
BRANCH  23  26
ATOM     25  C   UNL     1       1.256   1.716  -0.234  0.00  0.00    +0.006 C 
ATOM     26  C   UNL     1       0.477   0.418  -0.011  0.00  0.00    +0.019 C 
ENDBRANCH  23  26
ENDBRANCH   1  23
BRANCH   7  27
ATOM     27  C   UNL     1      -3.643   1.617  -3.023  0.00  0.00    +0.105 C 
ATOM     28  N   UNL     1      -4.739   1.871  -2.866  0.00  0.00    -0.191 NA
ENDBRANCH   7  27
TORSDOF 5
