REMARK  Name = ZINC13132212
REMARK  4 active torsions:
REMARK  status: ('A' for Active; 'I' for Inactive)
REMARK    1  A    between atoms: C_1  and  O_2
REMARK    2  A    between atoms: O_2  and  C_3
REMARK    3  A    between atoms: C_7  and  C_9
REMARK    4  A    between atoms: C_12  and  C_21
REMARK                            x       y       z     vdW  Elec       q    Type
REMARK                         _______ _______ _______ _____ _____    ______ ____
ROOT
ATOM      1  C   UNL     1       1.389  -4.130   2.211  0.00  0.00    +0.106 C 
ATOM      2  C   UNL     1       0.317  -4.655   3.173  0.00  0.00    +0.058 C 
ATOM      3  C   UNL     1       0.515  -4.031   4.560  0.00  0.00    +0.143 C 
ATOM      4  N   UNL     1       1.920  -4.169   4.944  0.00  0.00    -0.224 N 
ATOM      5  C   UNL     1       2.929  -4.411   4.073  0.00  0.00    +0.216 A 
ATOM      6  N   UNL     1       4.044  -4.478   4.750  0.00  0.00    -0.180 NA
ATOM      7  C   UNL     1       3.788  -4.282   6.052  0.00  0.00    +0.233 A 
ATOM      8  N   UNL     1       2.498  -4.089   6.211  0.00  0.00    -0.132 NA
ATOM      9  N   UNL     1       4.739  -4.283   7.074  0.00  0.00    -0.326 N 
ATOM     10  N   UNL     1       2.715  -4.548   2.704  0.00  0.00    -0.307 N 
ATOM     11  H   UNL     1       5.675  -4.435   6.865  0.00  0.00    +0.145 HD
ATOM     12  H   UNL     1       4.465  -4.133   7.992  0.00  0.00    +0.145 HD
ATOM     13  H   UNL     1       3.396  -4.898   2.108  0.00  0.00    +0.149 HD
ENDROOT
BRANCH   3  14
ATOM     14  C   UNL     1      -0.358  -4.740   5.563  0.00  0.00    -0.022 A 
ATOM     15  C   UNL     1      -0.192  -6.095   5.787  0.00  0.00    +0.006 A 
ATOM     16  C   UNL     1      -0.993  -6.746   6.707  0.00  0.00    +0.001 A 
ATOM     17  C   UNL     1      -1.958  -6.043   7.403  0.00  0.00    +0.015 A 
ATOM     18  C   UNL     1      -2.124  -4.689   7.179  0.00  0.00    +0.018 A 
ATOM     19  C   UNL     1      -1.319  -4.036   6.262  0.00  0.00    +0.021 A 
ATOM     20 BR   UNL     1      -3.446  -3.728   8.131  0.00  0.00    -0.050 Br
ENDBRANCH   3  14
BRANCH   1  25
ATOM     21  C   UNL     1       0.626  -0.618   1.042  0.00  0.00    +0.120 A 
ATOM     22  C   UNL     1       1.202   0.139   2.051  0.00  0.00    +0.045 A 
ATOM     23  C   UNL     1       1.835  -0.488   3.107  0.00  0.00    +0.004 A 
ATOM     24  C   UNL     1       1.895  -1.869   3.158  0.00  0.00    +0.006 A 
ATOM     25  C   UNL     1       1.321  -2.625   2.153  0.00  0.00    -0.024 A 
ATOM     26  C   UNL     1       0.682  -2.003   1.097  0.00  0.00    +0.051 A 
BRANCH  21  28
ATOM     27  C   UNL     1      -0.017   1.425   0.010  0.00  0.00    +0.277 C 
ATOM     28  O   UNL     1       0.002  -0.004   0.002  0.00  0.00    -0.495 OA
ENDBRANCH  21  28
ENDBRANCH   1  25
TORSDOF 3
