REMARK  Name = ZINC01048914
REMARK  4 active torsions:
REMARK  status: ('A' for Active; 'I' for Inactive)
REMARK    1  A    between atoms: C_2  and  C_23
REMARK    2  A    between atoms: C_4  and  S_11
REMARK    3  A    between atoms: C_6  and  C_7
REMARK    4  A    between atoms: S_11  and  N_14
REMARK                            x       y       z     vdW  Elec       q    Type
REMARK                         _______ _______ _______ _____ _____    ______ ____
ROOT
ATOM      1  S   UNL     1       3.427   2.373   0.457  0.00  0.00    +0.074 S 
ATOM      2  O   UNL     1       3.101   3.703   0.835  0.00  0.00    -0.150 OA
ATOM      3  O   UNL     1       4.245   1.532   1.258  0.00  0.00    -0.150 OA
ENDROOT
BRANCH   1   4
ATOM      4  N   UNL     1       4.158   2.469  -1.027  0.00  0.00    -0.189 N 
ATOM      5  C   UNL     1       3.577   3.204  -2.033  0.00  0.00    +0.173 C 
ATOM      6  H   UNL     1       1.881   4.220  -2.524  0.00  0.00    +0.158 HD
ATOM      7  N   UNL     1       4.233   3.369  -3.230  0.00  0.00    -0.302 N 
ATOM      8  C   UNL     1       5.490   2.658  -3.470  0.00  0.00    +0.118 C 
ATOM      9  C   UNL     1       5.286   1.639  -4.603  0.00  0.00    +0.088 C 
ATOM     10  S   UNL     1       4.702   2.523  -6.080  0.00  0.00    -0.158 S 
ATOM     11  C   UNL     1       3.251   3.433  -5.470  0.00  0.00    +0.088 C 
ATOM     12  C   UNL     1       3.668   4.258  -4.247  0.00  0.00    +0.118 C 
ATOM     13  H   UNL     1       4.995   2.006  -1.186  0.00  0.00    +0.176 HD
ATOM     14  N   UNL     1       2.388   3.734  -1.784  0.00  0.00    -0.374 N 
ATOM     15  H   UNL     1       1.978   3.656  -0.846  0.00  0.00    +0.158 HD
ENDBRANCH   1   4
BRANCH   1  19
ATOM     16  C   UNL     1      -0.497   0.193  -0.122  0.00  0.00    +0.024 A 
ATOM     17  C   UNL     1      -0.448   1.569  -0.237  0.00  0.00    +0.057 A 
ATOM     18  C   UNL     1       0.750   2.236  -0.059  0.00  0.00    +0.041 A 
ATOM     19  C   UNL     1       1.900   1.524   0.231  0.00  0.00    +0.110 A 
ATOM     20  C   UNL     1       1.850   0.148   0.346  0.00  0.00    +0.041 A 
ATOM     21  C   UNL     1       0.652  -0.518   0.170  0.00  0.00    +0.057 A 
BRANCH  21  22
ATOM     22  C   UNL     1       0.598  -2.019   0.295  0.00  0.00    +0.417 C 
ATOM     23  F   UNL     1      -0.712  -2.458   0.075  0.00  0.00    -0.166 F 
ATOM     24  F   UNL     1       1.449  -2.597  -0.653  0.00  0.00    -0.166 F 
ATOM     25  F   UNL     1       1.007  -2.395   1.579  0.00  0.00    -0.166 F 
ENDBRANCH  21  22
BRANCH  17  26
ATOM     26  C   UNL     1      -1.700   2.344  -0.561  0.00  0.00    +0.417 C 
ATOM     27  F   UNL     1      -2.773   1.458  -0.700  0.00  0.00    -0.166 F 
ATOM     28  F   UNL     1      -1.970   3.247   0.472  0.00  0.00    -0.166 F 
ATOM     29  F   UNL     1      -1.517   3.046  -1.757  0.00  0.00    -0.166 F 
ENDBRANCH  17  26
ENDBRANCH   1  19
TORSDOF 4
