REMARK  Name = ZINC36034339
REMARK  9 active torsions:
REMARK  status: ('A' for Active; 'I' for Inactive)
REMARK    1  A    between atoms: C_1  and  C_2
REMARK    2  A    between atoms: C_2  and  C_3
REMARK    3  A    between atoms: C_3  and  C_4
REMARK    4  A    between atoms: C_4  and  C_36
REMARK    5  A    between atoms: C_9  and  C_12
REMARK    6  A    between atoms: C_15  and  O_19
REMARK    7  A    between atoms: C_17  and  O_18
REMARK    8  A    between atoms: O_19  and  C_20
REMARK    9  A    between atoms: N_23  and  C_26
REMARK                            x       y       z     vdW  Elec       q    Type
REMARK                         _______ _______ _______ _____ _____    ______ ____
ROOT
ATOM      1  C   UNL     1       0.687  -1.965   1.154  0.00  0.00    +0.048 C 
ATOM      2  C   UNL     1       1.313  -2.607   2.410  0.00  0.00    +0.086 C 
ATOM      3  C   UNL     1       0.108  -2.935   3.332  0.00  0.00    +0.077 C 
ATOM      4  C   UNL     1      -1.131  -2.447   2.553  0.00  0.00    -0.023 C 
ATOM      5  N   UNL     1      -0.707  -2.478   1.123  0.00  0.00    +0.396 N 
ATOM      6  C   UNL     1       0.114  -4.447   3.389  0.00  0.00    +0.229 C 
ATOM      7  O   UNL     1      -0.674  -5.127   4.010  0.00  0.00    -0.275 OA
ATOM      8  N   UNL     1       1.123  -4.915   2.646  0.00  0.00    -0.209 N 
ATOM      9  C   UNL     1       1.876  -3.962   2.048  0.00  0.00    +0.229 C 
ATOM     10  O   UNL     1       2.839  -4.154   1.338  0.00  0.00    -0.275 OA
ATOM     11  H   UNL     1      -1.294  -1.871   0.572  0.00  0.00    -0.083 HD
ATOM     12  H   UNL     1      -0.728  -3.419   0.759  0.00  0.00    -0.083 HD
ENDROOT
BRANCH   8  13
ATOM     13  C   UNL     1       1.387  -6.282   2.503  0.00  0.00    +0.052 A 
ATOM     14  C   UNL     1       0.807  -6.998   1.480  0.00  0.00    +0.024 A 
ATOM     15  C   UNL     1       1.063  -8.358   1.329  0.00  0.00    +0.002 A 
ATOM     16  C   UNL     1       1.892  -9.017   2.185  0.00  0.00    +0.008 A 
ATOM     17  C   UNL     1       2.503  -8.322   3.242  0.00  0.00    -0.016 A 
ATOM     18  C   UNL     1       2.254  -6.937   3.403  0.00  0.00    +0.004 A 
ATOM     19  C   UNL     1       2.870  -6.243   4.457  0.00  0.00    +0.010 A 
ATOM     20  C   UNL     1       3.702  -6.907   5.306  0.00  0.00    +0.001 A 
ATOM     21  C   UNL     1       3.951  -8.269   5.146  0.00  0.00    +0.001 A 
ATOM     22  C   UNL     1       3.363  -8.976   4.142  0.00  0.00    +0.008 A 
ENDBRANCH   8  13
BRANCH   4  23
ATOM     23  C   UNL     1      -2.289  -3.389   2.764  0.00  0.00    -0.019 A 
ATOM     24  C   UNL     1      -2.527  -4.404   1.857  0.00  0.00    +0.009 A 
ATOM     25  C   UNL     1      -3.588  -5.269   2.048  0.00  0.00    +0.046 A 
ATOM     26  C   UNL     1      -4.416  -5.120   3.151  0.00  0.00    +0.124 A 
ATOM     27  C   UNL     1      -4.179  -4.102   4.062  0.00  0.00    +0.091 A 
ATOM     28  C   UNL     1      -3.111  -3.239   3.872  0.00  0.00    +0.122 A 
BRANCH  28  29
ATOM     29  O   UNL     1      -2.872  -2.244   4.766  0.00  0.00    -0.506 OA
ATOM     30  H   UNL     1      -3.327  -1.415   4.564  0.00  0.00    +0.292 HD
ENDBRANCH  28  29
BRANCH  26  31
ATOM     31  O   UNL     1      -5.459  -5.970   3.338  0.00  0.00    -0.495 OA
ATOM     32  C   UNL     1      -5.644  -6.995   2.359  0.00  0.00    +0.277 C 
ENDBRANCH  26  31
ENDBRANCH   4  23
BRANCH   1  33
ATOM     33  C   UNL     1       1.432  -2.393  -0.084  0.00  0.00    +0.346 C 
ATOM     34  O   UNL     1       2.611  -2.113  -0.213  0.00  0.00    -0.248 OA
ATOM     35  O   UNL     1       0.855  -3.021  -0.956  0.00  0.00    -0.248 OA
ENDBRANCH   1  33
BRANCH   1  36
ATOM     36  C   UNL     1       0.691  -0.440   1.276  0.00  0.00    -0.001 C 
BRANCH  36  38
ATOM     37  C   UNL     1      -0.110   1.691   0.247  0.00  0.00    +0.004 C 
ATOM     38  C   UNL     1      -0.114   0.166   0.125  0.00  0.00    -0.004 C 
ENDBRANCH  36  38
ENDBRANCH   1  36
TORSDOF 7
