REMARK  Name = ZINC38018652
REMARK  4 active torsions:
REMARK  status: ('A' for Active; 'I' for Inactive)
REMARK    1  A    between atoms: C_9  and  C_11
REMARK    2  A    between atoms: C_11  and  N_12
REMARK    3  A    between atoms: N_12  and  C_13
REMARK    4  A    between atoms: C_13  and  C_14
REMARK                            x       y       z     vdW  Elec       q    Type
REMARK                         _______ _______ _______ _____ _____    ______ ____
ROOT
ATOM      1  C   UNL     1       5.025  -2.559  -0.059  0.00  0.00    -0.026 C 
ENDROOT
BRANCH   1  10
ATOM      2  C   UNL     1      -0.016   1.357   0.009  0.00  0.00    +0.001 A 
ATOM      3  C   UNL     1       1.170   2.088   0.002  0.00  0.00    +0.002 A 
ATOM      4  C   UNL     1       2.379   1.465  -0.013  0.00  0.00    +0.028 A 
ATOM      5  C   UNL     1       2.440   0.060  -0.021  0.00  0.00    +0.071 A 
ATOM      6  C   UNL     1       1.232  -0.681  -0.013  0.00  0.00    +0.000 A 
ATOM      7  C   UNL     1       0.002  -0.004   0.002  0.00  0.00    +0.010 A 
ATOM      8  C   UNL     1       1.295  -2.087  -0.021  0.00  0.00    +0.012 A 
ATOM      9  C   UNL     1       2.527  -2.677  -0.036  0.00  0.00    +0.022 A 
ATOM     10  C   UNL     1       3.675  -1.889  -0.043  0.00  0.00    +0.025 A 
ATOM     11  N   UNL     1       3.613  -0.580  -0.035  0.00  0.00    -0.254 NA
ENDBRANCH   1  10
BRANCH   1  12
ATOM     12  N   UNL     1       5.504  -2.662  -1.444  0.00  0.00    +0.386 N 
ATOM     13  H   UNL     1       4.851  -3.208  -1.986  0.00  0.00    -0.085 HD
ATOM     14  H   UNL     1       5.583  -1.738  -1.842  0.00  0.00    -0.085 HD
BRANCH  12  15
ATOM     15  C   UNL     1       6.820  -3.315  -1.460  0.00  0.00    -0.039 C 
BRANCH  15  16
ATOM     16  C   UNL     1       7.312  -3.421  -2.880  0.00  0.00    -0.026 A 
ATOM     17  C   UNL     1       8.062  -2.544  -3.591  0.00  0.00    +0.010 A 
ATOM     18  C   UNL     1       8.399  -2.853  -4.895  0.00  0.00    +0.023 A 
ATOM     19  C   UNL     1       7.968  -4.024  -5.426  0.00  0.00    +0.055 A 
ATOM     20  S   UNL     1       7.063  -4.737  -4.061  0.00  0.00    -0.088 S 
ATOM     21 BR   UNL     1       8.256  -4.725  -7.158  0.00  0.00    -0.043 Br
ENDBRANCH  15  16
ENDBRANCH  12  15
ENDBRANCH   1  12
TORSDOF 4
