REMARK  Name = ZINC09408724
REMARK  5 active torsions:
REMARK  status: ('A' for Active; 'I' for Inactive)
REMARK    1  A    between atoms: C_3  and  N_8
REMARK    2  A    between atoms: C_13  and  N_57
REMARK    3  A    between atoms: C_19  and  N_21
REMARK    4  A    between atoms: N_21  and  S_22
REMARK    5  A    between atoms: S_22  and  C_25
REMARK                            x       y       z     vdW  Elec       q    Type
REMARK                         _______ _______ _______ _____ _____    ______ ____
ROOT
ATOM      1  C   UNL     1      -0.753   1.593  -1.232  0.00  0.00    -0.050 C 
ATOM      2  C   UNL     1      -0.013   1.086   0.008  0.00  0.00    -0.014 C 
ATOM      3  C   UNL     1      -0.729   1.579   1.267  0.00  0.00    -0.001 C 
ATOM      4  C   UNL     1      -2.164   1.050   1.278  0.00  0.00    +0.001 C 
ATOM      5  C   UNL     1      -2.904   1.556   0.038  0.00  0.00    +0.019 C 
ATOM      6  C   UNL     1      -2.188   1.063  -1.221  0.00  0.00    +0.063 C 
ENDROOT
BRANCH   1  12
ATOM      7  N   UNL     1       1.994  -0.218  -3.882  0.00  0.00    -0.333 N 
ATOM      8  C   UNL     1       1.929   1.250  -3.854  0.00  0.00    +0.086 C 
ATOM      9  C   UNL     1       1.279   1.704  -2.545  0.00  0.00    -0.059 C 
ATOM     10  C   UNL     1      -0.001  -0.349  -2.468  0.00  0.00    -0.059 C 
ATOM     11  C   UNL     1       0.650  -0.803  -3.777  0.00  0.00    +0.086 C 
ATOM     12  N   UNL     1      -0.079   1.127  -2.463  0.00  0.00    +0.385 N 
ATOM     13  H   UNL     1      -0.623   1.435  -3.277  0.00  0.00    -0.081 HD
BRANCH   7  16
ATOM     14  C   UNL     1       3.778  -0.204  -7.095  0.00  0.00    +0.003 A 
ATOM     15  C   UNL     1       3.128   0.244  -5.961  0.00  0.00    +0.023 A 
ATOM     16  C   UNL     1       2.647  -0.669  -5.031  0.00  0.00    +0.031 A 
ATOM     17  C   UNL     1       2.814  -2.030  -5.249  0.00  0.00    +0.043 A 
ATOM     18  C   UNL     1       3.461  -2.473  -6.387  0.00  0.00    +0.043 A 
ATOM     19  C   UNL     1       3.942  -1.560  -7.309  0.00  0.00    +0.020 A 
ATOM     20 CL   UNL     1       3.669  -4.174  -6.661  0.00  0.00    -0.083 Cl
ENDBRANCH   7  16
ENDBRANCH   1  12
BRANCH   6  21
ATOM     21  N   UNL     1      -2.897   1.548  -2.408  0.00  0.00    -0.188 NA
ATOM     22  H   UNL     1      -2.706   2.432  -2.758  0.00  0.00    +0.148 HD
BRANCH  21  23
ATOM     23  S   UNL     1      -4.023   0.588  -3.150  0.00  0.00    +0.059 S 
ATOM     24  O   UNL     1      -4.544   1.339  -4.238  0.00  0.00    -0.153 OA
ATOM     25  O   UNL     1      -3.418  -0.686  -3.325  0.00  0.00    -0.153 OA
BRANCH  23  26
ATOM     26  C   UNL     1      -5.348   0.363  -2.011  0.00  0.00    +0.105 A 
ATOM     27  C   UNL     1      -5.330  -0.702  -1.130  0.00  0.00    +0.030 A 
ATOM     28  C   UNL     1      -6.367  -0.875  -0.233  0.00  0.00    +0.022 A 
ATOM     29  C   UNL     1      -7.429   0.011  -0.225  0.00  0.00    +0.041 A 
ATOM     30  C   UNL     1      -7.450   1.073  -1.111  0.00  0.00    +0.022 A 
ATOM     31  C   UNL     1      -6.410   1.249  -2.004  0.00  0.00    +0.030 A 
ATOM     32 CL   UNL     1      -8.735  -0.210   0.898  0.00  0.00    -0.084 Cl
ENDBRANCH  23  26
ENDBRANCH  21  23
ENDBRANCH   6  21
TORSDOF 5
