REMARK  Name = ZINC35694370
REMARK  14 active torsions:
REMARK  status: ('A' for Active; 'I' for Inactive)
REMARK    1  A    between atoms: C_1  and  C_2
REMARK    2  A    between atoms: C_2  and  O_3
REMARK    3  A    between atoms: O_3  and  C_4
REMARK    4  A    between atoms: C_4  and  C_6
REMARK    5  A    between atoms: N_11  and  C_13
REMARK    6  A    between atoms: C_15  and  C_16
REMARK    7  A    between atoms: C_21  and  C_39
REMARK    8  A    between atoms: C_22  and  C_34
REMARK    9  A    between atoms: C_23  and  C_26
REMARK   10  A    between atoms: C_31  and  O_32
REMARK   11  A    between atoms: O_32  and  C_33
REMARK   12  A    between atoms: C_34  and  O_36
REMARK   13  A    between atoms: O_36  and  C_37
REMARK   14  A    between atoms: C_37  and  C_38
REMARK                            x       y       z     vdW  Elec       q    Type
REMARK                         _______ _______ _______ _____ _____    ______ ____
ROOT
ATOM      1  C   UNL     1      -8.439  -1.586   1.456  0.00  0.00    +0.048 C 
ATOM      2  C   UNL     1      -9.699  -2.071   1.508  0.00  0.00    +0.072 C 
ATOM      3  S   UNL     1     -10.656  -0.588   1.747  0.00  0.00    -0.060 S 
ATOM      4  C   UNL     1      -9.402   0.528   1.763  0.00  0.00    +0.166 C 
ATOM      5  N   UNL     1      -9.401   1.837   1.904  0.00  0.00    -0.230 NA
ATOM      6  C   UNL     1      -8.318   2.597   1.897  0.00  0.00    +0.053 C 
ATOM      7  C   UNL     1      -7.068   2.031   1.732  0.00  0.00    +0.083 C 
ATOM      8  C   UNL     1      -6.989   0.530   1.564  0.00  0.00    +0.153 C 
ATOM      9  N   UNL     1      -8.272  -0.222   1.595  0.00  0.00    -0.267 N 
ATOM     10  C   UNL     1      -8.448   4.088   2.068  0.00  0.00    +0.066 C 
ENDROOT
BRANCH   8  11
ATOM     11  C   UNL     1      -6.311   0.246   0.249  0.00  0.00    +0.020 A 
ATOM     12  C   UNL     1      -5.009  -0.215   0.228  0.00  0.00    +0.009 A 
ATOM     13  C   UNL     1      -4.386  -0.476  -0.979  0.00  0.00    +0.001 A 
ATOM     14  C   UNL     1      -5.065  -0.277  -2.167  0.00  0.00    +0.004 A 
ATOM     15  C   UNL     1      -6.367   0.183  -2.151  0.00  0.00    +0.046 A 
ATOM     16  C   UNL     1      -6.996   0.440  -0.942  0.00  0.00    +0.125 A 
BRANCH  16  17
ATOM     17  O   UNL     1      -8.279   0.888  -0.923  0.00  0.00    -0.495 OA
ATOM     18  C   UNL     1      -8.957   0.965  -2.179  0.00  0.00    +0.277 C 
ENDBRANCH  16  17
ENDBRANCH   8  11
BRANCH   1  21
ATOM     19  C   UNL     1      -7.460  -3.814   1.274  0.00  0.00    +0.241 C 
ATOM     20  O   UNL     1      -8.710  -4.334   1.339  0.00  0.00    -0.271 OA
ATOM     21  C   UNL     1      -7.287  -2.478   1.265  0.00  0.00    +0.091 C 
BRANCH  19  26
ATOM     22  C   UNL     1      -5.987  -7.048   1.512  0.00  0.00    +0.115 C 
ATOM     23  C   UNL     1      -4.588  -6.703   2.030  0.00  0.00    +0.018 C 
ATOM     24  C   UNL     1      -4.637  -5.373   2.786  0.00  0.00    +0.020 C 
ATOM     25  C   UNL     1      -5.086  -4.263   1.831  0.00  0.00    +0.108 C 
ATOM     26  N   UNL     1      -6.362  -4.655   1.217  0.00  0.00    -0.297 N 
ATOM     27  C   UNL     1      -6.452  -5.957   0.542  0.00  0.00    +0.122 C 
BRANCH  22  28
ATOM     28  C   UNL     1      -5.944  -8.373   0.795  0.00  0.00    +0.312 C 
ATOM     29  O   UNL     1      -4.886  -8.924   0.606  0.00  0.00    -0.250 OA
BRANCH  28  30
ATOM     30  O   UNL     1      -7.083  -8.942   0.367  0.00  0.00    -0.465 OA
BRANCH  30  32
ATOM     31  C   UNL     1      -8.359 -10.685  -0.714  0.00  0.00    +0.048 C 
ATOM     32  C   UNL     1      -6.968 -10.198  -0.304  0.00  0.00    +0.229 C 
ENDBRANCH  30  32
ENDBRANCH  28  30
ENDBRANCH  22  28
ENDBRANCH  19  26
ENDBRANCH   1  21
BRANCH   7  33
ATOM     33  C   UNL     1      -5.912   2.821   1.722  0.00  0.00    +0.339 C 
ATOM     34  O   UNL     1      -5.989   4.017   1.946  0.00  0.00    -0.245 OA
BRANCH  33  35
ATOM     35  O   UNL     1      -4.711   2.259   1.463  0.00  0.00    -0.462 OA
BRANCH  35  36
ATOM     36  C   UNL     1      -3.562   3.100   1.579  0.00  0.00    +0.229 C 
ATOM     37  C   UNL     1      -2.317   2.329   1.134  0.00  0.00    +0.048 C 
ENDBRANCH  35  36
ENDBRANCH  33  35
ENDBRANCH   7  33
TORSDOF 10
