REMARK  Name = ZINC64185798
REMARK  9 active torsions:
REMARK  status: ('A' for Active; 'I' for Inactive)
REMARK    1  A    between atoms: C_1  and  C_2
REMARK    2  A    between atoms: C_5  and  C_36
REMARK    3  A    between atoms: N_8  and  C_10
REMARK    4  A    between atoms: C_10  and  C_11
REMARK    5  A    between atoms: C_13  and  N_17
REMARK    6  A    between atoms: C_18  and  C_20
REMARK    7  A    between atoms: C_20  and  C_21
REMARK    8  A    between atoms: C_21  and  C_22
REMARK    9  A    between atoms: C_23  and  C_35
REMARK                            x       y       z     vdW  Elec       q    Type
REMARK                         _______ _______ _______ _____ _____    ______ ____
ROOT
ATOM      1  N   UNL     1       5.436  -1.798  -0.334  0.00  0.00    -0.285 N 
ATOM      2  C   UNL     1       6.456  -1.115  -0.891  0.00  0.00    +0.215 C 
ATOM      3  O   UNL     1       7.024  -0.251  -0.257  0.00  0.00    -0.276 OA
ATOM      4  H   UNL     1       4.981  -2.489  -0.841  0.00  0.00    +0.152 HD
ENDROOT
BRANCH   1   7
ATOM      5  C   UNL     1       3.498  -2.737   2.382  0.00  0.00    +0.040 C 
ATOM      6  N   UNL     1       3.689  -2.082   1.327  0.00  0.00    -0.258 NA
ATOM      7  C   UNL     1       5.014  -1.497   1.036  0.00  0.00    +0.251 C 
ATOM      8  S   UNL     1       6.061  -2.390   2.269  0.00  0.00    -0.109 S 
ATOM      9  C   UNL     1       4.657  -2.911   3.354  0.00  0.00    +0.124 C 
BRANCH   5  10
ATOM     10  C   UNL     1       2.147  -3.333   2.683  0.00  0.00    +0.135 C 
BRANCH  10  16
ATOM     11  C   UNL     1      -0.176   0.235   0.220  0.00  0.00    +0.009 C 
ATOM     12  C   UNL     1       0.110  -1.267   0.282  0.00  0.00    +0.000 C 
ATOM     13  C   UNL     1      -1.211  -2.036   0.376  0.00  0.00    +0.009 C 
ATOM     14  C   UNL     1      -0.913  -3.533   0.498  0.00  0.00    +0.000 C 
ATOM     15  C   UNL     1      -0.032  -3.774   1.726  0.00  0.00    +0.088 C 
ATOM     16  N   UNL     1       1.219  -3.018   1.589  0.00  0.00    -0.296 NA
ATOM     17  C   UNL     1       0.962  -1.574   1.516  0.00  0.00    +0.088 C 
ATOM     18  C   UNL     1      -2.226  -4.304   0.651  0.00  0.00    +0.009 C 
ENDBRANCH  10  16
ENDBRANCH   5  10
ENDBRANCH   1   7
BRANCH   2  19
ATOM     19  C   UNL     1       6.890  -1.425  -2.300  0.00  0.00    +0.101 C 
BRANCH  19  20
ATOM     20  C   UNL     1       8.057  -0.514  -2.686  0.00  0.00    +0.051 C 
BRANCH  20  21
ATOM     21  C   UNL     1       8.491  -0.823  -4.096  0.00  0.00    +0.038 A 
ATOM     22  C   UNL     1       8.007  -0.098  -5.146  0.00  0.00    +0.050 A 
ATOM     23  N   UNL     1       8.397  -0.379  -6.387  0.00  0.00    -0.221 NA
ATOM     24  C   UNL     1       9.249  -1.353  -6.635  0.00  0.00    +0.199 A 
ATOM     25  N   UNL     1       9.764  -2.110  -5.628  0.00  0.00    -0.295 N 
ATOM     26  C   UNL     1       9.405  -1.861  -4.351  0.00  0.00    +0.256 A 
ATOM     27  O   UNL     1       9.862  -2.526  -3.435  0.00  0.00    -0.267 OA
ATOM     28  N   UNL     1       9.623  -1.608  -7.927  0.00  0.00    -0.297 N 
ATOM     29  C   UNL     1      10.470  -2.765  -8.256  0.00  0.00    +0.136 C 
ATOM     30  C   UNL     1       9.806  -3.542  -9.398  0.00  0.00    +0.179 C 
ATOM     31  O   UNL     1       9.513  -2.644 -10.471  0.00  0.00    -0.377 OA
ATOM     32  C   UNL     1       8.586  -1.610 -10.132  0.00  0.00    +0.179 C 
ATOM     33  C   UNL     1       9.183  -0.737  -9.028  0.00  0.00    +0.136 C 
ATOM     34  C   UNL     1       7.031   1.023  -4.899  0.00  0.00    +0.066 C 
ATOM     35  H   UNL     1      10.390  -2.824  -5.827  0.00  0.00    +0.172 HD
ENDBRANCH  20  21
ENDBRANCH  19  20
ENDBRANCH   2  19
TORSDOF 6
