REMARK  Name = ZINC39606364
REMARK  7 active torsions:
REMARK  status: ('A' for Active; 'I' for Inactive)
REMARK    1  A    between atoms: C_1  and  C_2
REMARK    2  A    between atoms: C_2  and  C_3
REMARK    3  A    between atoms: C_3  and  C_5
REMARK    4  A    between atoms: C_3  and  C_6
REMARK    5  A    between atoms: C_6  and  N_7
REMARK    6  A    between atoms: C_8  and  C_10
REMARK    7  A    between atoms: C_21  and  C_23
REMARK                            x       y       z     vdW  Elec       q    Type
REMARK                         _______ _______ _______ _____ _____    ______ ____
ROOT
ATOM      1  C   UNL     1      -3.856  -4.540   0.378  0.00  0.00    +0.100 C 
ATOM      2  C   UNL     1      -4.841  -4.002  -0.683  0.00  0.00    +0.121 C 
ATOM      3  N   UNL     1      -5.013  -5.123  -1.637  0.00  0.00    -0.296 N 
ATOM      4  C   UNL     1      -5.057  -6.332  -0.781  0.00  0.00    +0.115 C 
ATOM      5  C   UNL     1      -4.003  -6.070   0.314  0.00  0.00    -0.004 C 
ATOM      6  C   UNL     1      -2.674  -6.712  -0.070  0.00  0.00    -0.010 C 
ATOM      7  C   UNL     1      -2.830  -8.236  -0.073  0.00  0.00    -0.082 C 
ATOM      8  N   UNL     1      -3.249  -8.688   1.260  0.00  0.00    +0.379 N 
ATOM      9  C   UNL     1      -4.571  -8.139   1.583  0.00  0.00    -0.082 C 
ATOM     10  C   UNL     1      -4.488  -6.612   1.655  0.00  0.00    -0.010 C 
ATOM     11  C   UNL     1      -5.109  -5.058  -2.980  0.00  0.00    +0.249 C 
ATOM     12  O   UNL     1      -5.343  -6.063  -3.622  0.00  0.00    -0.270 OA
ATOM     13  H   UNL     1      -3.292  -9.696   1.273  0.00  0.00    -0.086 HD
ATOM     14  H   UNL     1      -2.579  -8.374   1.946  0.00  0.00    -0.086 HD
ENDROOT
BRANCH  11  15
ATOM     15  C   UNL     1      -4.930  -3.765  -3.671  0.00  0.00    +0.073 A 
ATOM     16  C   UNL     1      -5.372  -2.583  -3.074  0.00  0.00    +0.036 A 
ATOM     17  C   UNL     1      -5.201  -1.379  -3.725  0.00  0.00    +0.042 A 
ATOM     18  C   UNL     1      -4.592  -1.339  -4.969  0.00  0.00    +0.023 A 
ATOM     19  C   UNL     1      -4.151  -2.504  -5.567  0.00  0.00    +0.040 A 
ATOM     20  C   UNL     1      -4.311  -3.718  -4.924  0.00  0.00    +0.136 A 
ATOM     21  F   UNL     1      -3.874  -4.856  -5.507  0.00  0.00    -0.205 F 
ATOM     22 CL   UNL     1      -5.752   0.092  -2.985  0.00  0.00    -0.084 Cl
ENDBRANCH  11  15
BRANCH   1  24
ATOM     23  N   UNL     1      -1.531  -3.990   1.019  0.00  0.00    -0.315 N 
ATOM     24  C   UNL     1      -2.445  -4.134   0.039  0.00  0.00    +0.218 C 
ATOM     25  O   UNL     1      -2.132  -3.936  -1.116  0.00  0.00    -0.275 OA
ATOM     26  H   UNL     1      -1.781  -4.148   1.942  0.00  0.00    +0.149 HD
BRANCH  23  27
ATOM     27  C   UNL     1      -0.160  -3.595   0.689  0.00  0.00    +0.107 C 
BRANCH  27  28
ATOM     28  C   UNL     1       0.668  -3.504   1.972  0.00  0.00    +0.003 C 
ATOM     29  C   UNL     1       0.123  -2.378   2.852  0.00  0.00    +0.009 C 
BRANCH  28  31
ATOM     30  C   UNL     1       2.977  -3.247   2.891  0.00  0.00    +0.004 C 
ATOM     31  C   UNL     1       2.128  -3.214   1.619  0.00  0.00    +0.001 C 
ENDBRANCH  28  31
ENDBRANCH  27  28
ENDBRANCH  23  27
ENDBRANCH   1  24
TORSDOF 5
