REMARK  Name = ZINC22066385
REMARK  16 active torsions:
REMARK  status: ('A' for Active; 'I' for Inactive)
REMARK    1  A    between atoms: C_1  and  C_2
REMARK    2  A    between atoms: C_3  and  C_10
REMARK    3  A    between atoms: C_4  and  C_8
REMARK    4  A    between atoms: C_4  and  C_9
REMARK    5  A    between atoms: C_11  and  C_12
REMARK    6  A    between atoms: C_12  and  C_39
REMARK    7  A    between atoms: C_13  and  C_14
REMARK    8  A    between atoms: C_15  and  C_16
REMARK    9  A    between atoms: C_16  and  C_38
REMARK   10  A    between atoms: C_17  and  C_18
REMARK   11  A    between atoms: C_18  and  O_20
REMARK   12  A    between atoms: O_20  and  C_21
REMARK   13  A    between atoms: C_23  and  O_37
REMARK   14  A    between atoms: C_25  and  O_36
REMARK   15  A    between atoms: C_27  and  O_35
REMARK   16  A    between atoms: C_29  and  C_32
REMARK                            x       y       z     vdW  Elec       q    Type
REMARK                         _______ _______ _______ _____ _____    ______ ____
ROOT
ATOM      1  C   UNL     1       3.821  10.193  -0.416  0.00  0.00    -0.044 C 
ATOM      2  C   UNL     1       4.896  10.995  -0.660  0.00  0.00    +0.095 C 
ATOM      3  C   UNL     1       2.437  10.787  -0.352  0.00  0.00    +0.044 C 
ENDROOT
BRANCH   1   5
ATOM      4  C   UNL     1       2.918   7.995  -0.101  0.00  0.00    +0.001 C 
ATOM      5  C   UNL     1       4.002   8.815  -0.224  0.00  0.00    +0.003 C 
BRANCH   4   7
ATOM      6  C   UNL     1       2.016   5.797   0.213  0.00  0.00    -0.050 C 
ATOM      7  C   UNL     1       3.099   6.617   0.090  0.00  0.00    +0.003 C 
ATOM      8  C   UNL     1       0.624   6.371   0.143  0.00  0.00    +0.044 C 
BRANCH   6  10
ATOM      9  C   UNL     1       1.119   3.599   0.528  0.00  0.00    +0.004 C 
ATOM     10  C   UNL     1       2.198   4.415   0.406  0.00  0.00    +0.003 C 
BRANCH   9  13
ATOM     11  C   UNL     1       2.650   2.728   2.579  0.00  0.00    +0.039 C 
ATOM     12  C   UNL     1       2.049   1.734   1.618  0.00  0.00    -0.069 C 
ATOM     13  C   UNL     1       1.299   2.196   0.631  0.00  0.00    -0.043 C 
ATOM     14  C   UNL     1       0.629   1.319  -0.387  0.00  0.00    -0.010 C 
ATOM     15  C   UNL     1       1.263  -0.073  -0.381  0.00  0.00    +0.011 C 
ATOM     16  C   UNL     1       1.321  -0.577   1.067  0.00  0.00    +0.005 C 
ATOM     17  C   UNL     1       2.330   0.277   1.838  0.00  0.00    +0.031 C 
ATOM     18  C   UNL     1       0.786   1.942  -1.775  0.00  0.00    +0.016 C 
ATOM     19  C   UNL     1      -0.858   1.200  -0.049  0.00  0.00    +0.016 C 
ENDBRANCH   9  13
ENDBRANCH   6  10
ENDBRANCH   4   7
ENDBRANCH   1   5
BRANCH   2  20
ATOM     20  C   UNL     1       6.159  10.422  -0.917  0.00  0.00    +0.334 C 
ATOM     21  O   UNL     1       6.265   9.216  -1.048  0.00  0.00    -0.246 OA
BRANCH  20  22
ATOM     22  O   UNL     1       7.250  11.211  -1.018  0.00  0.00    -0.429 OA
BRANCH  22  23
ATOM     23  C   UNL     1       8.497  10.563  -1.279  0.00  0.00    +0.343 C 
ATOM     24  C   UNL     1       9.588  11.618  -1.481  0.00  0.00    +0.214 C 
ATOM     25  C   UNL     1       9.747  12.431  -0.192  0.00  0.00    +0.180 C 
ATOM     26  C   UNL     1      10.067  11.477   0.963  0.00  0.00    +0.186 C 
ATOM     27  C   UNL     1       8.958  10.428   1.071  0.00  0.00    +0.266 C 
ATOM     28  O   UNL     1       8.842   9.730  -0.171  0.00  0.00    -0.322 OA
BRANCH  27  29
ATOM     29  C   UNL     1       9.295   9.450   2.167  0.00  0.00    +0.387 C 
ATOM     30  O   UNL     1       9.512   8.292   1.899  0.00  0.00    -0.243 OA
ATOM     31  O   UNL     1       9.355   9.866   3.442  0.00  0.00    -0.243 OA
ENDBRANCH  27  29
BRANCH  26  32
ATOM     32  O   UNL     1      10.146  12.215   2.184  0.00  0.00    -0.386 OA
ATOM     33  H   UNL     1      10.370  11.696   3.127  0.00  0.00    +0.210 HD
ENDBRANCH  26  32
BRANCH  25  34
ATOM     34  O   UNL     1      10.812  13.370  -0.346  0.00  0.00    -0.386 OA
ATOM     35  H   UNL     1      11.075  14.045   0.482  0.00  0.00    +0.210 HD
ENDBRANCH  25  34
BRANCH  24  36
ATOM     36  O   UNL     1      10.824  10.973  -1.795  0.00  0.00    -0.383 OA
ATOM     37  H   UNL     1      11.728  11.573  -1.975  0.00  0.00    +0.210 HD
ENDBRANCH  24  36
ENDBRANCH  22  23
ENDBRANCH  20  22
ENDBRANCH   2  20
TORSDOF 11
