REMARK  Name = ZINC18347770
REMARK  9 active torsions:
REMARK  status: ('A' for Active; 'I' for Inactive)
REMARK    1  A    between atoms: C_1  and  N_2
REMARK    2  A    between atoms: N_2  and  C_3
REMARK    3  A    between atoms: N_2  and  S_9
REMARK    4  A    between atoms: S_9  and  C_12
REMARK    5  A    between atoms: C_15  and  C_18
REMARK    6  A    between atoms: C_18  and  O_20
REMARK    7  A    between atoms: O_20  and  C_21
REMARK    8  A    between atoms: C_21  and  C_22
REMARK    9  A    between atoms: C_30  and  N_32
REMARK                            x       y       z     vdW  Elec       q    Type
REMARK                         _______ _______ _______ _____ _____    ______ ____
ROOT
ATOM      1  C   UNL     1      -0.022   1.758   0.012  0.00  0.00    +0.106 A 
ATOM      2  C   UNL     1      -1.231   2.430   0.021  0.00  0.00    +0.029 A 
ATOM      3  C   UNL     1      -1.257   3.809   0.035  0.00  0.00    +0.017 A 
ATOM      4  C   UNL     1      -0.059   4.527   0.027  0.00  0.00    +0.059 A 
ATOM      5  C   UNL     1       1.157   3.842   0.012  0.00  0.00    +0.017 A 
ATOM      6  C   UNL     1       1.169   2.463   0.004  0.00  0.00    +0.029 A 
ENDROOT
BRANCH   1   7
ATOM      7  S   UNL     1       0.002  -0.004   0.002  0.00  0.00    +0.061 S 
ATOM      8  O   UNL     1      -1.243  -0.424  -0.539  0.00  0.00    -0.153 OA
ATOM      9  O   UNL     1       1.248  -0.390  -0.563  0.00  0.00    -0.153 OA
BRANCH   7  11
ATOM     10  C   UNL     1      -1.235  -0.740   2.292  0.00  0.00    +0.132 C 
ATOM     11  N   UNL     1       0.024  -0.502   1.581  0.00  0.00    -0.177 NA
BRANCH  11  12
ATOM     12  C   UNL     1       1.302  -0.705   2.268  0.00  0.00    +0.080 C 
ATOM     13  C   UNL     1       1.407  -2.160   2.730  0.00  0.00    +0.020 C 
ATOM     14  C   UNL     1       2.742  -2.372   3.447  0.00  0.00    +0.002 C 
ATOM     15  C   UNL     1       2.822  -1.444   4.661  0.00  0.00    +0.000 C 
ATOM     16  C   UNL     1       2.717   0.011   4.199  0.00  0.00    +0.002 C 
ATOM     17  C   UNL     1       1.382   0.223   3.482  0.00  0.00    +0.020 C 
ENDBRANCH  11  12
ENDBRANCH   7  11
ENDBRANCH   1   7
BRANCH   4  18
ATOM     18  C   UNL     1      -0.079   6.004   0.035  0.00  0.00    +0.340 C 
ATOM     19  O   UNL     1       0.964   6.625   0.029  0.00  0.00    -0.245 OA
BRANCH  18  20
ATOM     20  O   UNL     1      -1.255   6.662   0.050  0.00  0.00    -0.453 OA
BRANCH  20  21
ATOM     21  C   UNL     1      -1.199   8.112   0.058  0.00  0.00    +0.308 C 
BRANCH  21  22
ATOM     22  C   UNL     1      -2.599   8.669   0.074  0.00  0.00    +0.169 A 
ATOM     23  N   UNL     1      -3.170   8.895   1.233  0.00  0.00    -0.228 NA
ATOM     24  C   UNL     1      -4.415   9.390   1.294  0.00  0.00    +0.076 A 
ATOM     25  C   UNL     1      -5.055   9.643   2.514  0.00  0.00    +0.028 A 
ATOM     26  C   UNL     1      -6.321  10.147   2.518  0.00  0.00    +0.002 A 
ATOM     27  C   UNL     1      -6.991  10.415   1.327  0.00  0.00    +0.001 A 
ATOM     28  C   UNL     1      -6.397  10.181   0.122  0.00  0.00    +0.013 A 
ATOM     29  C   UNL     1      -5.097   9.663   0.083  0.00  0.00    +0.040 A 
ATOM     30  C   UNL     1      -4.428   9.399  -1.137  0.00  0.00    +0.128 A 
ATOM     31  N   UNL     1      -3.195   8.914  -1.082  0.00  0.00    -0.214 NA
BRANCH  30  32
ATOM     32  N   UNL     1      -5.040   9.644  -2.347  0.00  0.00    -0.343 N 
ATOM     33  H   UNL     1      -4.506   9.433  -3.286  0.00  0.00    +0.144 HD
ATOM     34  H   UNL     1      -6.062  10.050  -2.375  0.00  0.00    +0.144 HD
ENDBRANCH  30  32
ENDBRANCH  21  22
ENDBRANCH  20  21
ENDBRANCH  18  20
ENDBRANCH   4  18
TORSDOF 8
