REMARK  Name = ZINC40737438
REMARK  13 active torsions:
REMARK  status: ('A' for Active; 'I' for Inactive)
REMARK    1  A    between atoms: C_1  and  C_2
REMARK    2  A    between atoms: C_2  and  O_3
REMARK    3  A    between atoms: O_3  and  C_4
REMARK    4  A    between atoms: C_6  and  C_20
REMARK    5  A    between atoms: C_9  and  O_10
REMARK    6  A    between atoms: O_10  and  C_11
REMARK    7  A    between atoms: C_11  and  C_12
REMARK    8  A    between atoms: C_20  and  N_21
REMARK    9  A    between atoms: N_21  and  C_22
REMARK   10  A    between atoms: C_22  and  C_23
REMARK   11  A    between atoms: C_23  and  S_24
REMARK   12  A    between atoms: S_24  and  C_25
REMARK   13  A    between atoms: N_29  and  C_30
REMARK                            x       y       z     vdW  Elec       q    Type
REMARK                         _______ _______ _______ _____ _____    ______ ____
ROOT
ATOM      1  C   UNL     1      -1.498  -1.849   0.006  0.00  0.00    +0.162 A 
ATOM      2  C   UNL     1      -0.389  -2.680  -0.003  0.00  0.00    +0.051 A 
ATOM      3  C   UNL     1      -0.553  -4.052  -0.008  0.00  0.00    -0.061 A 
ATOM      4  C   UNL     1      -1.823  -4.600  -0.005  0.00  0.00    +0.005 A 
ATOM      5  C   UNL     1      -2.934  -3.777   0.004  0.00  0.00    +0.049 A 
ATOM      6  C   UNL     1      -2.776  -2.400   0.016  0.00  0.00    +0.162 A 
ENDROOT
BRANCH   1   7
ATOM      7  O   UNL     1      -1.339  -0.499   0.012  0.00  0.00    -0.489 OA
BRANCH   7   9
ATOM      8  C   UNL     1      -0.019   1.526   0.010  0.00  0.00    +0.048 C 
ATOM      9  C   UNL     1       0.002  -0.004   0.002  0.00  0.00    +0.226 C 
ENDBRANCH   7   9
ENDBRANCH   1   7
BRANCH   6  10
ATOM     10  O   UNL     1      -3.868  -1.589   0.030  0.00  0.00    -0.484 OA
BRANCH  10  11
ATOM     11  C   UNL     1      -5.148  -2.225   0.039  0.00  0.00    +0.269 C 
BRANCH  11  12
ATOM     12  C   UNL     1      -6.229  -1.175   0.055  0.00  0.00    +0.043 A 
ATOM     13  C   UNL     1      -6.711  -0.695   1.261  0.00  0.00    +0.131 A 
ATOM     14  C   UNL     1      -7.705   0.269   1.274  0.00  0.00    +0.039 A 
ATOM     15  C   UNL     1      -8.215   0.751   0.084  0.00  0.00    +0.004 A 
ATOM     16  C   UNL     1      -7.734   0.272  -1.120  0.00  0.00    +0.020 A 
ATOM     17  C   UNL     1      -6.737  -0.687  -1.135  0.00  0.00    +0.050 A 
ATOM     18 CL   UNL     1      -6.129  -1.283  -2.648  0.00  0.00    -0.083 Cl
ATOM     19  F   UNL     1      -6.212  -1.167   2.424  0.00  0.00    -0.205 F 
ENDBRANCH  11  12
ENDBRANCH  10  11
ENDBRANCH   6  10
BRANCH   3  20
ATOM     20  C   UNL     1       0.654  -4.954  -0.018  0.00  0.00    -0.047 C 
BRANCH  20  21
ATOM     21  N   UNL     1       1.053  -5.253   1.363  0.00  0.00    +0.382 N 
ATOM     22  H   UNL     1       1.279  -4.394   1.842  0.00  0.00    -0.085 HD
ATOM     23  H   UNL     1       0.293  -5.714   1.841  0.00  0.00    -0.085 HD
BRANCH  21  24
ATOM     24  C   UNL     1       2.230  -6.132   1.354  0.00  0.00    -0.071 C 
BRANCH  24  25
ATOM     25  C   UNL     1       2.646  -6.444   2.793  0.00  0.00    +0.058 C 
BRANCH  25  26
ATOM     26  S   UNL     1       4.099  -7.529   2.781  0.00  0.00    -0.086 S 
BRANCH  26  27
ATOM     27  C   UNL     1       4.449  -7.792   4.487  0.00  0.00    +0.214 A 
ATOM     28  N   UNL     1       3.780  -7.300   5.508  0.00  0.00    -0.101 NA
ATOM     29  N   UNL     1       4.301  -7.688   6.616  0.00  0.00    -0.022 NA
ATOM     30  N   UNL     1       5.322  -8.442   6.394  0.00  0.00    -0.038 NA
ATOM     31  N   UNL     1       5.457  -8.544   4.998  0.00  0.00    -0.187 N 
BRANCH  31  32
ATOM     32  C   UNL     1       6.425  -9.267   4.286  0.00  0.00    +0.070 A 
ATOM     33  C   UNL     1       6.095  -9.873   3.082  0.00  0.00    +0.028 A 
ATOM     34  C   UNL     1       7.051 -10.584   2.383  0.00  0.00    +0.002 A 
ATOM     35  C   UNL     1       8.336 -10.692   2.882  0.00  0.00    +0.000 A 
ATOM     36  C   UNL     1       8.668 -10.089   4.081  0.00  0.00    +0.002 A 
ATOM     37  C   UNL     1       7.718  -9.372   4.782  0.00  0.00    +0.028 A 
ENDBRANCH  31  32
ENDBRANCH  26  27
ENDBRANCH  25  26
ENDBRANCH  24  25
ENDBRANCH  21  24
ENDBRANCH  20  21
ENDBRANCH   3  20
TORSDOF 12
