REMARK  Name = ZINC05785675
REMARK  2 active torsions:
REMARK  status: ('A' for Active; 'I' for Inactive)
REMARK    1  A    between atoms: C_4  and  N_7
REMARK    2  A    between atoms: C_13  and  C_14
REMARK                            x       y       z     vdW  Elec       q    Type
REMARK                         _______ _______ _______ _____ _____    ______ ____
ROOT
ATOM      1  N   UNL     1       4.184   0.091   1.052  0.00  0.00    -0.226 NA
ATOM      2  C   UNL     1       4.244  -1.100   1.604  0.00  0.00    +0.166 C 
ATOM      3  N   UNL     1       3.353  -1.686   2.476  0.00  0.00    -0.260 N 
ATOM      4  C   UNL     1       3.567  -2.905   2.942  0.00  0.00    +0.256 C 
ATOM      5  O   UNL     1       2.790  -3.438   3.712  0.00  0.00    -0.269 OA
ATOM      6  C   UNL     1       4.793  -3.590   2.484  0.00  0.00    +0.078 C 
ATOM      7  C   UNL     1       5.255  -4.827   2.796  0.00  0.00    +0.028 C 
ATOM      8  S   UNL     1       5.498  -2.356   1.401  0.00  0.00    -0.049 S 
ATOM      9  H   UNL     1       2.560  -1.200   2.751  0.00  0.00    +0.157 HD
ENDROOT
BRANCH   7  10
ATOM     10  C   UNL     1       6.592  -5.245   2.351  0.00  0.00    -0.023 A 
ATOM     11  C   UNL     1       7.519  -4.290   1.917  0.00  0.00    +0.011 A 
ATOM     12  C   UNL     1       8.771  -4.689   1.501  0.00  0.00    +0.040 A 
ATOM     13  C   UNL     1       9.113  -6.033   1.510  0.00  0.00    +0.137 A 
ATOM     14  C   UNL     1       8.199  -6.985   1.939  0.00  0.00    +0.054 A 
ATOM     15  C   UNL     1       6.945  -6.599   2.364  0.00  0.00    +0.026 A 
ATOM     16 BR   UNL     1       8.676  -8.815   1.946  0.00  0.00    -0.047 Br
ATOM     17  F   UNL     1      10.341  -6.417   1.100  0.00  0.00    -0.204 F 
ENDBRANCH   7  10
BRANCH   1  21
ATOM     18  C   UNL     1       1.007   2.604   1.896  0.00  0.00    +0.000 A 
ATOM     19  C   UNL     1       2.298   3.102   1.898  0.00  0.00    +0.002 A 
ATOM     20  C   UNL     1       3.362   2.270   1.618  0.00  0.00    +0.028 A 
ATOM     21  C   UNL     1       3.134   0.922   1.331  0.00  0.00    +0.067 A 
ATOM     22  C   UNL     1       1.827   0.426   1.330  0.00  0.00    +0.028 A 
ATOM     23  C   UNL     1       0.773   1.270   1.612  0.00  0.00    +0.002 A 
ENDBRANCH   1  21
TORSDOF 2
