REMARK  Name = ZINC35173637
REMARK  12 active torsions:
REMARK  status: ('A' for Active; 'I' for Inactive)
REMARK    1  A    between atoms: C_1  and  C_2
REMARK    2  A    between atoms: C_2  and  O_3
REMARK    3  A    between atoms: O_3  and  C_4
REMARK    4  A    between atoms: C_4  and  C_6
REMARK    5  A    between atoms: C_12  and  C_14
REMARK    6  A    between atoms: C_14  and  C_15
REMARK    7  A    between atoms: C_15  and  C_16
REMARK    8  A    between atoms: C_16  and  S_17
REMARK    9  A    between atoms: S_17  and  C_18
REMARK   10  A    between atoms: C_21  and  C_29
REMARK   11  A    between atoms: N_22  and  C_23
REMARK   12  A    between atoms: C_32  and  N_35
REMARK                            x       y       z     vdW  Elec       q    Type
REMARK                         _______ _______ _______ _____ _____    ______ ____
ROOT
ATOM      1  C   UNL     1      -6.871 -11.072   3.746  0.00  0.00    +0.196 A 
ATOM      2  N   UNL     1      -6.188 -11.595   2.752  0.00  0.00    -0.122 NA
ATOM      3  N   UNL     1      -6.244 -12.877   2.803  0.00  0.00    -0.128 NA
ATOM      4  C   UNL     1      -6.966 -13.255   3.832  0.00  0.00    +0.169 A 
ATOM      5  N   UNL     1      -7.386 -12.110   4.473  0.00  0.00    -0.270 N 
ENDROOT
BRANCH   5   6
ATOM      6  C   UNL     1      -8.177 -12.027   5.627  0.00  0.00    +0.051 A 
ATOM      7  C   UNL     1      -7.692 -12.499   6.839  0.00  0.00    +0.026 A 
ATOM      8  C   UNL     1      -8.475 -12.415   7.974  0.00  0.00    +0.002 A 
ATOM      9  C   UNL     1      -9.740 -11.861   7.905  0.00  0.00    +0.000 A 
ATOM     10  C   UNL     1     -10.225 -11.389   6.699  0.00  0.00    +0.002 A 
ATOM     11  C   UNL     1      -9.445 -11.466   5.561  0.00  0.00    +0.026 A 
ENDBRANCH   5   6
BRANCH   4  12
ATOM     12  C   UNL     1      -7.266 -14.646   4.232  0.00  0.00    +0.020 A 
ATOM     13  C   UNL     1      -8.291 -14.909   5.142  0.00  0.00    +0.014 A 
ATOM     14  C   UNL     1      -8.566 -16.209   5.511  0.00  0.00    +0.033 A 
ATOM     15  C   UNL     1      -7.828 -17.253   4.980  0.00  0.00    +0.126 A 
ATOM     16  C   UNL     1      -6.810 -17.000   4.077  0.00  0.00    +0.033 A 
ATOM     17  C   UNL     1      -6.529 -15.704   3.696  0.00  0.00    +0.014 A 
BRANCH  15  18
ATOM     18  N   UNL     1      -8.129 -18.646   5.380  0.00  0.00    +0.056 N 
ATOM     19  O   UNL     1      -9.017 -18.870   6.169  0.00  0.00    -0.126 OA
ATOM     20  O   UNL     1      -7.486 -19.560   4.918  0.00  0.00    -0.126 OA
ENDBRANCH  15  18
ENDBRANCH   4  12
BRANCH   1  21
ATOM     21  S   UNL     1      -7.078  -9.355   4.084  0.00  0.00    -0.086 S 
BRANCH  21  22
ATOM     22  C   UNL     1      -6.154  -8.533   2.757  0.00  0.00    +0.078 C 
BRANCH  22  23
ATOM     23  C   UNL     1      -6.252  -7.016   2.932  0.00  0.00    +0.020 C 
BRANCH  23  24
ATOM     24  C   UNL     1      -5.473  -6.322   1.813  0.00  0.00    +0.097 C 
BRANCH  24  31
ATOM     25  C   UNL     1      -2.881  -2.427   0.017  0.00  0.00    +0.101 C 
ATOM     26  C   UNL     1      -3.623  -1.970   1.275  0.00  0.00    +0.033 C 
ATOM     27  C   UNL     1      -5.041  -2.549   1.265  0.00  0.00    +0.108 C 
ATOM     28  N   UNL     1      -4.956  -4.007   1.110  0.00  0.00    -0.301 N 
ATOM     29  C   UNL     1      -4.189  -4.554  -0.017  0.00  0.00    +0.108 C 
ATOM     30  C   UNL     1      -2.780  -3.954   0.007  0.00  0.00    +0.033 C 
ATOM     31  C   UNL     1      -5.570  -4.828   1.985  0.00  0.00    +0.216 C 
ATOM     32  O   UNL     1      -6.200  -4.364   2.912  0.00  0.00    -0.276 OA
BRANCH  25  33
ATOM     33  C   UNL     1      -1.496  -1.832   0.006  0.00  0.00    +0.310 C 
ATOM     34  O   UNL     1      -0.528  -2.555  -0.007  0.00  0.00    -0.251 OA
BRANCH  33  35
ATOM     35  O   UNL     1      -1.339  -0.499   0.012  0.00  0.00    -0.465 OA
BRANCH  35  37
ATOM     36  C   UNL     1      -0.019   1.526   0.010  0.00  0.00    +0.048 C 
ATOM     37  C   UNL     1       0.002  -0.004   0.002  0.00  0.00    +0.229 C 
ENDBRANCH  35  37
ENDBRANCH  33  35
ENDBRANCH  25  33
ENDBRANCH  24  31
ENDBRANCH  23  24
ENDBRANCH  22  23
ENDBRANCH  21  22
ENDBRANCH   1  21
TORSDOF 11
