REMARK  Name = ZINC63699057
REMARK  3 active torsions:
REMARK  status: ('A' for Active; 'I' for Inactive)
REMARK    1  A    between atoms: C_1  and  C_2
REMARK    2  A    between atoms: C_4  and  C_23
REMARK    3  A    between atoms: N_12  and  C_14
REMARK                            x       y       z     vdW  Elec       q    Type
REMARK                         _______ _______ _______ _____ _____    ______ ____
ROOT
ATOM      1  C   UNL     1      -0.125   1.545   0.670  0.00  0.00    +0.062 C 
ATOM      2  C   UNL     1      -0.068   0.040   0.627  0.00  0.00    +0.019 C 
ATOM      3  C   UNL     1      -1.101  -0.730   0.442  0.00  0.00    -0.008 C 
ATOM      4  C   UNL     1      -2.526  -0.406   0.066  0.00  0.00    +0.060 C 
ATOM      5  C   UNL     1      -2.776  -1.085  -1.290  0.00  0.00    +0.108 C 
ATOM      6  C   UNL     1      -2.103  -2.416  -1.378  0.00  0.00    +0.215 C 
ATOM      7  O   UNL     1      -2.526  -3.175  -2.223  0.00  0.00    -0.276 OA
ATOM      8  N   UNL     1      -1.090  -2.866  -0.635  0.00  0.00    -0.295 N 
ATOM      9  C   UNL     1      -0.619  -2.168   0.553  0.00  0.00    +0.194 C 
ATOM     10  N   UNL     1       0.841  -2.041   0.620  0.00  0.00    -0.164 NA
ATOM     11  N   UNL     1       1.093  -0.703   0.774  0.00  0.00    -0.277 N 
ATOM     12  H   UNL     1      -0.651  -3.691  -0.897  0.00  0.00    +0.151 HD
ATOM     13  H   UNL     1       1.967  -0.327   0.963  0.00  0.00    +0.166 HD
ENDROOT
BRANCH  10  14
ATOM     14  C   UNL     1       1.386  -2.816   1.743  0.00  0.00    +0.270 C 
ATOM     15  N   UNL     1       1.091  -4.243   1.560  0.00  0.00    -0.350 N 
ATOM     16  C   UNL     1       0.364  -4.624   2.571  0.00  0.00    +0.061 A 
ATOM     17  C   UNL     1      -0.231  -5.915   2.942  0.00  0.00    +0.027 A 
ATOM     18  C   UNL     1      -0.953  -6.012   4.076  0.00  0.00    +0.002 A 
ATOM     19  C   UNL     1      -1.168  -4.919   4.935  0.00  0.00    +0.002 A 
ATOM     20  C   UNL     1      -0.668  -3.692   4.688  0.00  0.00    +0.027 A 
ATOM     21  C   UNL     1       0.137  -3.467   3.479  0.00  0.00    +0.061 A 
ATOM     22  N   UNL     1       0.733  -2.416   2.996  0.00  0.00    -0.350 N 
ATOM     23  H   UNL     1       1.384  -4.800   0.822  0.00  0.00    +0.163 HD
ATOM     24  H   UNL     1       0.744  -1.530   3.391  0.00  0.00    +0.163 HD
ENDBRANCH  10  14
BRANCH   4  25
ATOM     25  C   UNL     1      -2.703   1.085  -0.059  0.00  0.00    -0.020 A 
ATOM     26  C   UNL     1      -2.280   1.738  -1.202  0.00  0.00    +0.006 A 
ATOM     27  C   UNL     1      -2.441   3.106  -1.317  0.00  0.00    +0.002 A 
ATOM     28  C   UNL     1      -3.025   3.823  -0.289  0.00  0.00    +0.021 A 
ATOM     29  C   UNL     1      -3.449   3.171   0.855  0.00  0.00    +0.060 A 
ATOM     30  C   UNL     1      -3.293   1.800   0.968  0.00  0.00    +0.063 A 
ATOM     31 CL   UNL     1      -3.831   0.979   2.400  0.00  0.00    -0.082 Cl
ATOM     32 CL   UNL     1      -4.182   4.071   2.146  0.00  0.00    -0.082 Cl
ENDBRANCH   4  25
TORSDOF 2
