REMARK  Name = ZINC21238793
REMARK  4 active torsions:
REMARK  status: ('A' for Active; 'I' for Inactive)
REMARK    1  A    between atoms: C_8  and  C_24
REMARK    2  A    between atoms: C_14  and  C_19
REMARK    3  A    between atoms: C_27  and  O_33
REMARK    4  A    between atoms: C_28  and  N_30
REMARK                            x       y       z     vdW  Elec       q    Type
REMARK                         _______ _______ _______ _____ _____    ______ ____
ROOT
ATOM      1  C   UNL     1       2.234   5.053  -1.069  0.00  0.00    +0.002 A 
ATOM      2  C   UNL     1       1.698   5.816  -0.047  0.00  0.00    +0.002 A 
ATOM      3  C   UNL     1       1.066   5.205   1.022  0.00  0.00    +0.025 A 
ATOM      4  C   UNL     1       0.976   3.825   1.060  0.00  0.00    +0.052 A 
ATOM      5  C   UNL     1       1.479   3.060   0.018  0.00  0.00    +0.049 A 
ATOM      6  C   UNL     1       2.127   3.673  -1.043  0.00  0.00    +0.025 A 
ATOM      7  N   UNL     1       1.307   1.678   0.066  0.00  0.00    -0.331 N 
ATOM      8  C   UNL     1      -0.013   1.086   0.008  0.00  0.00    +0.136 C 
ATOM      9  C   UNL     1      -0.899   1.420   1.185  0.00  0.00    +0.036 C 
ATOM     10  C   UNL     1      -0.653   2.357   2.116  0.00  0.00    +0.017 C 
ATOM     11  N   UNL     1       0.451   3.145   2.153  0.00  0.00    -0.316 N 
ATOM     12  C   UNL     1      -1.655   2.615   3.229  0.00  0.00    +0.060 C 
ATOM     13  C   UNL     1      -2.360   1.313   3.606  0.00  0.00    +0.039 C 
ATOM     14  C   UNL     1      -3.080   0.793   2.356  0.00  0.00    +0.088 C 
ATOM     15  C   UNL     1      -2.074   0.636   1.256  0.00  0.00    +0.163 C 
ATOM     16  O   UNL     1      -2.276  -0.196   0.393  0.00  0.00    -0.292 OA
ATOM     17  H   UNL     1       2.196   1.034   0.149  0.00  0.00    +0.147 HD
ATOM     18  H   UNL     1       0.936   3.227   3.137  0.00  0.00    +0.152 HD
ENDROOT
BRANCH   8  19
ATOM     19  C   UNL     1      -0.695   1.560  -1.250  0.00  0.00    -0.020 A 
ATOM     20  C   UNL     1      -0.897   2.912  -1.457  0.00  0.00    +0.009 A 
ATOM     21  C   UNL     1      -1.517   3.349  -2.611  0.00  0.00    +0.048 A 
ATOM     22  C   UNL     1      -1.946   2.430  -3.558  0.00  0.00    +0.147 A 
ATOM     23  C   UNL     1      -1.747   1.074  -3.345  0.00  0.00    +0.168 A 
ATOM     24  C   UNL     1      -1.121   0.642  -2.191  0.00  0.00    +0.042 A 
BRANCH  23  25
ATOM     25  N   UNL     1      -2.204   0.091  -4.352  0.00  0.00    +0.060 N 
ATOM     26  O   UNL     1      -2.029  -1.100  -4.164  0.00  0.00    -0.126 OA
ATOM     27  O   UNL     1      -2.755   0.472  -5.369  0.00  0.00    -0.126 OA
ENDBRANCH  23  25
BRANCH  22  28
ATOM     28  O   UNL     1      -2.561   2.858  -4.692  0.00  0.00    -0.504 OA
ATOM     29  H   UNL     1      -2.901   2.128  -5.442  0.00  0.00    +0.292 HD
ENDBRANCH  22  28
ENDBRANCH   8  19
BRANCH  13  30
ATOM     30  C   UNL     1      -3.362   1.573   4.701  0.00  0.00    -0.006 A 
ATOM     31  C   UNL     1      -3.421   1.045   5.948  0.00  0.00    +0.011 A 
ATOM     32  C   UNL     1      -4.442   1.435   6.794  0.00  0.00    +0.008 A 
ATOM     33  C   UNL     1      -5.355   2.334   6.352  0.00  0.00    +0.045 A 
ATOM     34  S   UNL     1      -4.776   2.663   4.695  0.00  0.00    -0.101 S 
ENDBRANCH  13  30
TORSDOF 4
