REMARK  Name = ZINC41084403
REMARK  6 active torsions:
REMARK  status: ('A' for Active; 'I' for Inactive)
REMARK    1  A    between atoms: C_1  and  C_2
REMARK    2  A    between atoms: C_6  and  N_9
REMARK    3  A    between atoms: C_7  and  C_8
REMARK    4  A    between atoms: C_10  and  C_33
REMARK    5  A    between atoms: C_12  and  C_15
REMARK    6  A    between atoms: C_13  and  C_14
REMARK                            x       y       z     vdW  Elec       q    Type
REMARK                         _______ _______ _______ _____ _____    ______ ____
ROOT
ATOM      1  C   UNL     1       1.629  -4.411   5.187  0.00  0.00    +0.026 C 
ATOM      2  C   UNL     1       1.249  -4.400   6.513  0.00  0.00    +0.081 C 
ATOM      3  C   UNL     1       2.157  -4.875   7.593  0.00  0.00    +0.153 C 
ATOM      4  N   UNL     1       3.457  -4.743   7.548  0.00  0.00    -0.283 NA
ATOM      5  N   UNL     1       1.478  -5.481   8.670  0.00  0.00    -0.150 N 
ATOM      6  C   UNL     1       0.157  -5.142   8.860  0.00  0.00    +0.182 C 
ATOM      7  N   UNL     1      -0.591  -4.386   8.097  0.00  0.00    -0.152 NA
ATOM      8  C   UNL     1      -0.084  -3.909   6.940  0.00  0.00    +0.273 C 
ATOM      9  O   UNL     1      -0.703  -3.103   6.263  0.00  0.00    -0.268 OA
ATOM     10  S   UNL     1      -0.239  -6.003  10.359  0.00  0.00    -0.018 S 
ATOM     11  C   UNL     1       1.331  -6.830  10.577  0.00  0.00    +0.182 C 
ATOM     12  N   UNL     1       2.024  -6.380   9.562  0.00  0.00    -0.149 NA
ATOM     13  N   UNL     1       1.716  -7.720  11.567  0.00  0.00    -0.304 N 
ATOM     14  C   UNL     1       3.069  -8.297  11.583  0.00  0.00    +0.135 C 
ATOM     15  C   UNL     1       3.661  -8.103  12.984  0.00  0.00    +0.179 C 
ATOM     16  O   UNL     1       2.744  -8.610  13.956  0.00  0.00    -0.377 OA
ATOM     17  C   UNL     1       1.486  -7.930  13.984  0.00  0.00    +0.179 C 
ATOM     18  C   UNL     1       0.785  -8.110  12.638  0.00  0.00    +0.135 C 
ATOM     19  H   UNL     1       4.004  -5.071   8.279  0.00  0.00    +0.188 HD
ENDROOT
BRANCH   1  23
ATOM     20  N   UNL     1      -0.246  -3.370   2.307  0.00  0.00    -0.317 N 
ATOM     21  C   UNL     1      -1.253  -3.949   3.029  0.00  0.00    +0.022 A 
ATOM     22  C   UNL     1      -0.754  -4.421   4.184  0.00  0.00    +0.031 A 
ATOM     23  C   UNL     1       0.682  -4.108   4.175  0.00  0.00    -0.003 A 
ATOM     24  C   UNL     1       0.922  -3.461   2.974  0.00  0.00    +0.028 A 
ATOM     25  C   UNL     1       2.255  -2.944   2.498  0.00  0.00    +0.064 C 
ATOM     26  C   UNL     1      -2.694  -4.042   2.598  0.00  0.00    +0.064 C 
BRANCH  20  32
ATOM     27  C   UNL     1      -1.187   0.632  -0.392  0.00  0.00    +0.044 C 
ATOM     28  C   UNL     1      -0.861  -0.836  -0.288  0.00  0.00    -0.046 A 
ATOM     29  C   UNL     1      -0.719  -1.596  -1.435  0.00  0.00    +0.004 A 
ATOM     30  C   UNL     1      -0.420  -2.942  -1.343  0.00  0.00    +0.002 A 
ATOM     31  C   UNL     1      -0.263  -3.533  -0.104  0.00  0.00    +0.026 A 
ATOM     32  C   UNL     1      -0.405  -2.773   1.049  0.00  0.00    +0.050 A 
ATOM     33  C   UNL     1      -0.699  -1.420   0.953  0.00  0.00    -0.024 A 
ATOM     34  C   UNL     1      -0.847  -0.590   2.203  0.00  0.00    +0.046 C 
ENDBRANCH  20  32
ENDBRANCH   1  23
TORSDOF 2
