REMARK  Name = ZINC41585403
REMARK  7 active torsions:
REMARK  status: ('A' for Active; 'I' for Inactive)
REMARK    1  A    between atoms: C_1  and  C_2
REMARK    2  A    between atoms: C_4  and  O_36
REMARK    3  A    between atoms: C_5  and  C_22
REMARK    4  A    between atoms: C_11  and  C_12
REMARK    5  A    between atoms: C_15  and  N_18
REMARK    6  A    between atoms: C_22  and  N_23
REMARK    7  A    between atoms: N_26  and  C_29
REMARK                            x       y       z     vdW  Elec       q    Type
REMARK                         _______ _______ _______ _____ _____    ______ ____
ROOT
ATOM      1  C   UNL     1      -1.605   1.436   0.269  0.00  0.00    +0.045 C 
ATOM      2  C   UNL     1      -1.288  -0.035   0.189  0.00  0.00    -0.033 A 
ATOM      3  C   UNL     1      -1.390  -0.693  -1.004  0.00  0.00    +0.050 A 
ATOM      4  C   UNL     1      -1.097  -2.052  -1.080  0.00  0.00    +0.122 A 
ATOM      5  C   UNL     1      -0.699  -2.752   0.048  0.00  0.00    +0.020 A 
ATOM      6  C   UNL     1      -0.589  -2.098   1.268  0.00  0.00    +0.145 A 
ATOM      7  C   UNL     1      -0.883  -0.726   1.332  0.00  0.00    +0.071 A 
ATOM      8  C   UNL     1      -0.672  -0.320   2.733  0.00  0.00    +0.232 C 
ATOM      9  O   UNL     1      -0.820   0.788   3.220  0.00  0.00    -0.283 OA
ATOM     10  C   UNL     1      -0.243  -1.553   3.414  0.00  0.00    +0.176 C 
ATOM     11  C   UNL     1       0.069  -1.676   4.727  0.00  0.00    +0.058 C 
ATOM     12  O   UNL     1      -0.229  -2.544   2.491  0.00  0.00    -0.451 OA
ENDROOT
BRANCH  11  13
ATOM     13  C   UNL     1       0.171  -0.479   5.574  0.00  0.00    -0.021 A 
ATOM     14  C   UNL     1      -0.315  -0.501   6.886  0.00  0.00    +0.010 A 
ATOM     15  C   UNL     1      -0.215   0.626   7.673  0.00  0.00    +0.033 A 
ATOM     16  C   UNL     1       0.364   1.777   7.170  0.00  0.00    +0.126 A 
ATOM     17  C   UNL     1       0.848   1.808   5.873  0.00  0.00    +0.033 A 
ATOM     18  C   UNL     1       0.761   0.688   5.074  0.00  0.00    +0.010 A 
BRANCH  16  19
ATOM     19  N   UNL     1       0.467   2.983   8.022  0.00  0.00    +0.056 N 
ATOM     20  O   UNL     1       0.046   2.960   9.155  0.00  0.00    -0.126 OA
ATOM     21  O   UNL     1       0.973   3.991   7.586  0.00  0.00    -0.126 OA
ENDBRANCH  16  19
ENDBRANCH  11  13
BRANCH   4  22
ATOM     22  O   UNL     1      -1.202  -2.697  -2.269  0.00  0.00    -0.506 OA
ATOM     23  H   UNL     1      -0.390  -2.692  -2.793  0.00  0.00    +0.292 HD
ENDBRANCH   4  22
BRANCH   5  24
ATOM     24  C   UNL     1      -0.385  -4.223  -0.049  0.00  0.00    -0.035 C 
BRANCH  24  25
ATOM     25  N   UNL     1       1.040  -4.400  -0.361  0.00  0.00    +0.385 N 
ATOM     26  C   UNL     1       1.320  -3.843  -1.691  0.00  0.00    -0.059 C 
ATOM     27  C   UNL     1       2.825  -3.924  -1.970  0.00  0.00    +0.086 C 
ATOM     28  N   UNL     1       3.258  -5.318  -1.791  0.00  0.00    -0.331 N 
ATOM     29  C   UNL     1       2.877  -6.009  -0.550  0.00  0.00    +0.086 C 
ATOM     30  C   UNL     1       1.370  -5.830  -0.338  0.00  0.00    -0.059 C 
ATOM     31  H   UNL     1       1.596  -3.916   0.327  0.00  0.00    -0.081 HD
BRANCH  28  32
ATOM     32  C   UNL     1       4.011  -5.969  -2.774  0.00  0.00    +0.065 A 
ATOM     33  C   UNL     1       5.398  -5.915  -2.736  0.00  0.00    +0.026 A 
ATOM     34  C   UNL     1       6.140  -6.559  -3.708  0.00  0.00    +0.002 A 
ATOM     35  C   UNL     1       5.503  -7.256  -4.718  0.00  0.00    +0.003 A 
ATOM     36  C   UNL     1       4.122  -7.312  -4.760  0.00  0.00    +0.040 A 
ATOM     37  C   UNL     1       3.373  -6.675  -3.788  0.00  0.00    +0.144 A 
ATOM     38  F   UNL     1       2.024  -6.734  -3.825  0.00  0.00    -0.204 F 
ENDBRANCH  28  32
ENDBRANCH  24  25
ENDBRANCH   5  24
TORSDOF 6
