REMARK  Name = ZINC40172978
REMARK  10 active torsions:
REMARK  status: ('A' for Active; 'I' for Inactive)
REMARK    1  A    between atoms: C_1  and  C_2
REMARK    2  A    between atoms: C_2  and  C_4
REMARK    3  A    between atoms: C_2  and  N_20
REMARK    4  A    between atoms: N_6  and  C_7
REMARK    5  A    between atoms: C_8  and  C_16
REMARK    6  A    between atoms: C_16  and  O_18
REMARK    7  A    between atoms: O_18  and  C_19
REMARK    8  A    between atoms: C_24  and  S_25
REMARK    9  A    between atoms: S_25  and  C_26
REMARK   10  A    between atoms: C_26  and  C_27
REMARK                            x       y       z     vdW  Elec       q    Type
REMARK                         _______ _______ _______ _____ _____    ______ ____
ROOT
ATOM      1  C   UNL     1      -0.019   1.526   0.010  0.00  0.00    +0.041 C 
ATOM      2  C   UNL     1       0.002  -0.004   0.002  0.00  0.00    +0.175 C 
ENDROOT
BRANCH   2   3
ATOM      3  N   UNL     1       0.711  -0.489   1.189  0.00  0.00    -0.279 N 
ATOM      4  C   UNL     1       0.358  -0.253   2.487  0.00  0.00    +0.216 A 
ATOM      5  N   UNL     1       1.232  -0.850   3.260  0.00  0.00    -0.113 NA
ATOM      6  N   UNL     1       2.171  -1.488   2.439  0.00  0.00    -0.121 NA
ATOM      7  C   UNL     1       1.837  -1.263   1.192  0.00  0.00    +0.194 A 
ATOM      8  N   UNL     1      -0.735   0.491   2.914  0.00  0.00    -0.328 N 
ATOM      9  H   UNL     1      -1.328   0.898   2.263  0.00  0.00    +0.145 HD
ATOM     10  H   UNL     1      -0.904   0.604   3.862  0.00  0.00    +0.145 HD
BRANCH   7  11
ATOM     11  S   UNL     1       2.693  -1.852  -0.232  0.00  0.00    -0.081 S 
BRANCH  11  12
ATOM     12  C   UNL     1       4.078  -2.803   0.451  0.00  0.00    +0.112 C 
BRANCH  12  13
ATOM     13  C   UNL     1       4.902  -3.370  -0.676  0.00  0.00    -0.037 A 
ATOM     14  C   UNL     1       4.599  -4.615  -1.196  0.00  0.00    +0.004 A 
ATOM     15  C   UNL     1       5.355  -5.135  -2.230  0.00  0.00    +0.000 A 
ATOM     16  C   UNL     1       6.414  -4.410  -2.744  0.00  0.00    +0.000 A 
ATOM     17  C   UNL     1       6.717  -3.166  -2.225  0.00  0.00    +0.000 A 
ATOM     18  C   UNL     1       5.958  -2.644  -1.194  0.00  0.00    +0.004 A 
ENDBRANCH  12  13
ENDBRANCH  11  12
ENDBRANCH   7  11
ENDBRANCH   2   3
BRANCH   2  19
ATOM     19  C   UNL     1      -1.412  -0.526   0.013  0.00  0.00    +0.240 C 
ATOM     20  O   UNL     1      -1.790  -1.233   0.922  0.00  0.00    -0.273 OA
ATOM     21  N   UNL     1      -2.256  -0.206  -0.988  0.00  0.00    -0.278 N 
ATOM     22  H   UNL     1      -1.953   0.360  -1.716  0.00  0.00    +0.155 HD
BRANCH  21  23
ATOM     23  C   UNL     1      -3.556  -0.686  -0.979  0.00  0.00    +0.086 A 
ATOM     24  C   UNL     1      -4.553  -0.467  -1.918  0.00  0.00    +0.091 A 
ATOM     25  C   UNL     1      -5.843  -1.089  -1.673  0.00  0.00    -0.021 A 
ATOM     26  C   UNL     1      -5.900  -1.814  -0.536  0.00  0.00    -0.004 A 
ATOM     27  S   UNL     1      -4.284  -1.671   0.170  0.00  0.00    -0.077 S 
ATOM     28  C   UNL     1      -7.081  -2.569  -0.008  0.00  0.00    +0.043 C 
ATOM     29  C   UNL     1      -8.333  -2.091  -0.758  0.00  0.00    +0.005 C 
ATOM     30  C   UNL     1      -8.038  -2.083  -2.261  0.00  0.00    +0.005 C 
ATOM     31  C   UNL     1      -7.050  -0.962  -2.592  0.00  0.00    +0.037 C 
BRANCH  24  32
ATOM     32  C   UNL     1      -4.315   0.355  -3.106  0.00  0.00    +0.342 C 
ATOM     33  O   UNL     1      -3.904  -0.158  -4.129  0.00  0.00    -0.245 OA
BRANCH  32  34
ATOM     34  O   UNL     1      -4.551   1.683  -3.065  0.00  0.00    -0.464 OA
ATOM     35  C   UNL     1      -4.297   2.424  -4.260  0.00  0.00    +0.280 C 
ENDBRANCH  32  34
ENDBRANCH  24  32
ENDBRANCH  21  23
ENDBRANCH   2  19
TORSDOF 8
