REMARK  Name = ZINC08969763
REMARK  7 active torsions:
REMARK  status: ('A' for Active; 'I' for Inactive)
REMARK    1  A    between atoms: C_3  and  S_6
REMARK    2  A    between atoms: S_6  and  C_9
REMARK    3  A    between atoms: C_9  and  C_11
REMARK    4  A    between atoms: C_9  and  C_25
REMARK    5  A    between atoms: C_11  and  N_12
REMARK    6  A    between atoms: C_13  and  C_15
REMARK    7  A    between atoms: C_16  and  C_17
REMARK                            x       y       z     vdW  Elec       q    Type
REMARK                         _______ _______ _______ _____ _____    ______ ____
ROOT
ATOM      1  C   UNL     1      -3.860   6.202   0.054  0.00  0.00    +0.183 C 
ENDROOT
BRANCH   1   2
ATOM      2  C   UNL     1      -3.880   7.709   0.062  0.00  0.00    -0.018 A 
ATOM      3  C   UNL     1      -3.291   8.402   1.104  0.00  0.00    +0.009 A 
ATOM      4  C   UNL     1      -3.303   9.784   1.114  0.00  0.00    +0.050 A 
ATOM      5  C   UNL     1      -3.916  10.479   0.084  0.00  0.00    +0.166 A 
ATOM      6  C   UNL     1      -4.514   9.782  -0.963  0.00  0.00    +0.167 A 
ATOM      7  C   UNL     1      -4.494   8.396  -0.969  0.00  0.00    +0.055 A 
ATOM      8  O   UNL     1      -5.043  10.683  -1.841  0.00  0.00    -0.453 OA
ATOM      9  C   UNL     1      -4.408  11.938  -1.534  0.00  0.00    +0.466 C 
ATOM     10  O   UNL     1      -4.069  11.817  -0.139  0.00  0.00    -0.453 OA
ENDBRANCH   1   2
BRANCH   1  11
ATOM     11  S   UNL     1      -4.700   5.578   1.536  0.00  0.00    +0.011 S 
ATOM     12  O   UNL     1      -5.988   6.167   1.653  0.00  0.00    -0.168 OA
ATOM     13  O   UNL     1      -4.535   4.170   1.635  0.00  0.00    -0.168 OA
BRANCH  11  16
ATOM     14  C   UNL     1      -3.103   7.717   4.594  0.00  0.00    +0.009 A 
ATOM     15  C   UNL     1      -3.955   7.405   3.550  0.00  0.00    +0.035 A 
ATOM     16  C   UNL     1      -3.780   6.235   2.888  0.00  0.00    +0.126 A 
ATOM     17  S   UNL     1      -2.383   5.529   3.746  0.00  0.00    -0.078 S 
ATOM     18  C   UNL     1      -2.120   6.845   4.923  0.00  0.00    +0.047 A 
ENDBRANCH  11  16
ENDBRANCH   1  11
BRANCH   1  19
ATOM     19  C   UNL     1      -2.411   5.712   0.044  0.00  0.00    +0.135 C 
BRANCH  19  20
ATOM     20  N   UNL     1      -2.391   4.247   0.036  0.00  0.00    -0.310 N 
ATOM     21  C   UNL     1      -1.215   3.589   0.027  0.00  0.00    +0.237 C 
ATOM     22  O   UNL     1      -0.169   4.212   0.026  0.00  0.00    -0.271 OA
ATOM     23  H   UNL     1      -3.224   3.751   0.038  0.00  0.00    +0.149 HD
BRANCH  21  24
ATOM     24  C   UNL     1      -1.195   2.126   0.019  0.00  0.00    +0.068 C 
ATOM     25  C   UNL     1      -0.018   1.467   0.010  0.00  0.00    +0.013 C 
BRANCH  25  26
ATOM     26  C   UNL     1       0.002  -0.004   0.002  0.00  0.00    -0.023 A 
ATOM     27  C   UNL     1       1.221  -0.690  -0.013  0.00  0.00    +0.009 A 
ATOM     28  C   UNL     1       1.233  -2.068  -0.021  0.00  0.00    +0.022 A 
ATOM     29  C   UNL     1       0.041  -2.775  -0.013  0.00  0.00    +0.059 A 
ATOM     30  C   UNL     1      -1.171  -2.102   0.002  0.00  0.00    +0.060 A 
ATOM     31  C   UNL     1      -1.197  -0.723   0.015  0.00  0.00    +0.029 A 
ATOM     32 CL   UNL     1      -2.658  -2.997   0.012  0.00  0.00    -0.082 Cl
ATOM     33 CL   UNL     1       0.066  -4.511  -0.024  0.00  0.00    -0.082 Cl
ENDBRANCH  25  26
ENDBRANCH  21  24
ENDBRANCH  19  20
ENDBRANCH   1  19
TORSDOF 7
