REMARK  Name = ZINC63220197
REMARK  3 active torsions:
REMARK  status: ('A' for Active; 'I' for Inactive)
REMARK    1  A    between atoms: C_4  and  C_7
REMARK    2  A    between atoms: C_7  and  C_8
REMARK    3  A    between atoms: N_14  and  C_15
REMARK                            x       y       z     vdW  Elec       q    Type
REMARK                         _______ _______ _______ _____ _____    ______ ____
ROOT
ATOM      1  C   UNL     1       4.171  -0.963   1.399  0.00  0.00    +0.087 C 
ATOM      2  C   UNL     1       5.420  -1.876   1.367  0.00  0.00    +0.099 C 
ATOM      3  S   UNL     1       6.488  -0.997   2.584  0.00  0.00    -0.089 S 
ATOM      4  C   UNL     1       5.679   0.595   2.517  0.00  0.00    +0.155 C 
ATOM      5  N   UNL     1       4.423   0.311   2.043  0.00  0.00    -0.320 N 
ATOM      6  N   UNL     1       6.174   1.766   2.845  0.00  0.00    -0.226 NA
ATOM      7  H   UNL     1       3.708   0.960   2.140  0.00  0.00    +0.148 HD
ENDROOT
BRANCH   6   8
ATOM      8  C   UNL     1       7.461   1.863   3.303  0.00  0.00    +0.068 A 
ATOM      9  C   UNL     1       7.937   0.956   4.252  0.00  0.00    +0.029 A 
ATOM     10  C   UNL     1       9.235   1.057   4.710  0.00  0.00    +0.023 A 
ATOM     11  C   UNL     1      10.065   2.056   4.230  0.00  0.00    +0.059 A 
ATOM     12  C   UNL     1       9.599   2.959   3.288  0.00  0.00    +0.061 A 
ATOM     13  C   UNL     1       8.304   2.864   2.818  0.00  0.00    +0.049 A 
ATOM     14 CL   UNL     1      10.648   4.208   2.692  0.00  0.00    -0.082 Cl
ATOM     15 CL   UNL     1      11.697   2.176   4.810  0.00  0.00    -0.082 Cl
ENDBRANCH   6   8
BRANCH   1  16
ATOM     16  C   UNL     1       3.711  -0.707  -0.038  0.00  0.00    +0.058 C 
BRANCH  16  20
ATOM     17  C   UNL     1      -0.017   1.378   0.010  0.00  0.00    +0.000 A 
ATOM     18  C   UNL     1       1.171   2.086   0.002  0.00  0.00    +0.000 A 
ATOM     19  C   UNL     1       2.377   1.411  -0.013  0.00  0.00    +0.004 A 
ATOM     20  C   UNL     1       2.396   0.029  -0.020  0.00  0.00    -0.046 A 
ATOM     21  C   UNL     1       1.208  -0.679  -0.012  0.00  0.00    +0.004 A 
ATOM     22  C   UNL     1       0.002  -0.004   0.002  0.00  0.00    +0.000 A 
ENDBRANCH  16  20
ENDBRANCH   1  16
TORSDOF 3
