REMARK  Name = ZINC22029935
REMARK  5 active torsions:
REMARK  status: ('A' for Active; 'I' for Inactive)
REMARK    1  A    between atoms: C_3  and  O_9
REMARK    2  A    between atoms: O_9  and  C_10
REMARK    3  A    between atoms: C_10  and  C_11
REMARK    4  A    between atoms: N_13  and  C_14
REMARK    5  A    between atoms: C_15  and  C_22
REMARK                            x       y       z     vdW  Elec       q    Type
REMARK                         _______ _______ _______ _____ _____    ______ ____
ROOT
ATOM      1  C   UNL     1       3.712  -0.860  -0.038  0.00  0.00    +0.255 C 
ATOM      2  O   UNL     1       4.663  -0.107  -0.043  0.00  0.00    -0.272 OA
ATOM      3  N   UNL     1       3.909  -2.193  -0.047  0.00  0.00    -0.277 N 
ATOM      4  H   UNL     1       3.046  -2.876  -0.043  0.00  0.00    +0.155 HD
ENDROOT
BRANCH   3   5
ATOM      5  C   UNL     1       5.197  -2.704  -0.062  0.00  0.00    +0.084 A 
ATOM      6  C   UNL     1       5.598  -4.030  -0.067  0.00  0.00    +0.068 A 
ATOM      7  C   UNL     1       7.034  -4.303  -0.088  0.00  0.00    -0.023 A 
ATOM      8  C   UNL     1       7.823  -3.214  -0.090  0.00  0.00    -0.004 A 
ATOM      9  S   UNL     1       6.697  -1.841  -0.071  0.00  0.00    -0.077 S 
ATOM     10  C   UNL     1       9.284  -3.575  -0.108  0.00  0.00    +0.043 C 
ATOM     11  C   UNL     1       9.313  -5.054  -0.555  0.00  0.00    +0.010 C 
ATOM     12  C   UNL     1       7.924  -5.547  -0.101  0.00  0.00    +0.037 C 
BRANCH   6  13
ATOM     13  C   UNL     1       4.617  -5.119  -0.057  0.00  0.00    +0.244 C 
ATOM     14  O   UNL     1       4.198  -5.571  -1.106  0.00  0.00    -0.270 OA
ATOM     15  N   UNL     1       4.178  -5.620   1.115  0.00  0.00    -0.325 N 
ATOM     16  H   UNL     1       3.442  -6.438   1.123  0.00  0.00    +0.145 HD
ATOM     17  H   UNL     1       4.557  -5.212   2.064  0.00  0.00    +0.145 HD
ENDBRANCH   6  13
ENDBRANCH   3   5
BRANCH   1  18
ATOM     18  C   UNL     1       2.312  -0.304  -0.022  0.00  0.00    +0.325 C 
BRANCH  18  19
ATOM     19  O   UNL     1       2.366   1.123  -0.015  0.00  0.00    -0.482 OA
BRANCH  19  22
ATOM     20  C   UNL     1      -1.218   1.751   0.017  0.00  0.00    +0.023 A 
ATOM     21  C   UNL     1      -0.013   1.076   0.008  0.00  0.00    +0.048 A 
ATOM     22  C   UNL     1       1.179   1.786   0.000  0.00  0.00    +0.135 A 
ATOM     23  C   UNL     1       1.157   3.174   0.008  0.00  0.00    +0.061 A 
ATOM     24  C   UNL     1      -0.051   3.845   0.022  0.00  0.00    +0.039 A 
ATOM     25  C   UNL     1      -1.238   3.134   0.030  0.00  0.00    +0.042 A 
ATOM     26 CL   UNL     1      -2.754   3.979   0.048  0.00  0.00    -0.084 Cl
ATOM     27 BR   UNL     1       2.779   4.145  -0.002  0.00  0.00    -0.046 Br
ENDBRANCH  19  22
ENDBRANCH  18  19
ENDBRANCH   1  18
TORSDOF 5
