REMARK  Name = ZINC05205171
REMARK  8 active torsions:
REMARK  status: ('A' for Active; 'I' for Inactive)
REMARK    1  A    between atoms: C_1  and  C_2
REMARK    2  A    between atoms: C_2  and  C_3
REMARK    3  A    between atoms: C_3  and  C_4
REMARK    4  A    between atoms: C_3  and  C_5
REMARK    5  A    between atoms: C_3  and  C_6
REMARK    6  A    between atoms: N_19  and  N_20
REMARK    7  A    between atoms: C_21  and  C_22
REMARK    8  A    between atoms: C_26  and  O_28
REMARK                            x       y       z     vdW  Elec       q    Type
REMARK                         _______ _______ _______ _____ _____    ______ ____
ROOT
ATOM      1  C   UNL     1       3.859   1.191   0.458  0.00  0.00    -0.001 C 
ATOM      2  C   UNL     1       5.074   0.723  -0.349  0.00  0.00    +0.009 C 
ATOM      3  C   UNL     1       6.306   1.512   0.116  0.00  0.00    +0.043 C 
ATOM      4  C   UNL     1       5.947   2.966   0.165  0.00  0.00    -0.004 A 
ATOM      5  C   UNL     1       4.710   3.503   0.135  0.00  0.00    -0.024 A 
ATOM      6  C   UNL     1       4.619   4.963   0.195  0.00  0.00    +0.052 A 
ATOM      7  C   UNL     1       3.457   5.784   0.182  0.00  0.00    +0.150 A 
ATOM      8  N   UNL     1       3.597   7.099   0.249  0.00  0.00    -0.219 NA
ATOM      9  C   UNL     1       4.782   7.677   0.324  0.00  0.00    +0.224 A 
ATOM     10  N   UNL     1       5.895   6.968   0.335  0.00  0.00    -0.228 NA
ATOM     11  C   UNL     1       5.846   5.652   0.272  0.00  0.00    +0.114 A 
ATOM     12  S   UNL     1       7.051   4.350   0.259  0.00  0.00    -0.073 S 
ATOM     13  N   UNL     1       2.198   5.216   0.106  0.00  0.00    -0.220 N 
ATOM     14  C   UNL     1       3.475   2.611   0.043  0.00  0.00    +0.040 C 
ATOM     15  H   UNL     1       1.648   5.359  -0.681  0.00  0.00    +0.176 HD
ENDROOT
BRANCH   1  16
ATOM     16  C   UNL     1       2.682   0.250   0.195  0.00  0.00    -0.032 C 
ATOM     17  C   UNL     1       1.435   0.782   0.906  0.00  0.00    +0.011 C 
ATOM     18  C   UNL     1       2.417   0.173  -1.310  0.00  0.00    +0.011 C 
BRANCH  16  20
ATOM     19  C   UNL     1       1.837  -2.086   0.464  0.00  0.00    +0.004 C 
ATOM     20  C   UNL     1       3.015  -1.145   0.727  0.00  0.00    +0.003 C 
ENDBRANCH  16  20
ENDBRANCH   1  16
BRANCH  13  21
ATOM     21  N   UNL     1       1.717   4.435   1.165  0.00  0.00    -0.189 NA
ATOM     22  C   UNL     1       0.536   3.900   1.092  0.00  0.00    +0.138 C 
BRANCH  22  23
ATOM     23  C   UNL     1      -0.189   3.885  -0.192  0.00  0.00    -0.002 A 
ATOM     24  C   UNL     1       0.513   4.002  -1.395  0.00  0.00    +0.010 A 
ATOM     25  C   UNL     1      -0.169   3.987  -2.594  0.00  0.00    +0.004 A 
ATOM     26  C   UNL     1      -1.546   3.857  -2.611  0.00  0.00    +0.045 A 
ATOM     27  C   UNL     1      -2.252   3.746  -1.421  0.00  0.00    +0.117 A 
ATOM     28  C   UNL     1      -1.578   3.753  -0.211  0.00  0.00    +0.054 A 
BRANCH  27  29
ATOM     29  O   UNL     1      -3.606   3.624  -1.443  0.00  0.00    -0.507 OA
ATOM     30  H   UNL     1      -3.917   2.709  -1.485  0.00  0.00    +0.292 HD
ENDBRANCH  27  29
ENDBRANCH  22  23
ENDBRANCH  13  21
TORSDOF 5
