REMARK  Name = ZINC08432394
REMARK  7 active torsions:
REMARK  status: ('A' for Active; 'I' for Inactive)
REMARK    1  A    between atoms: C_1  and  O_2
REMARK    2  A    between atoms: O_2  and  C_3
REMARK    3  A    between atoms: C_3  and  C_5
REMARK    4  A    between atoms: C_5  and  N_51
REMARK    5  A    between atoms: C_6  and  C_27
REMARK    6  A    between atoms: C_15  and  C_17
REMARK    7  A    between atoms: C_20  and  N_23
REMARK                            x       y       z     vdW  Elec       q    Type
REMARK                         _______ _______ _______ _____ _____    ______ ____
ROOT
ATOM      1  C   UNL     1       0.777  -2.601  -0.248  0.00  0.00    -0.001 C 
ATOM      2  C   UNL     1       0.472  -1.143  -0.469  0.00  0.00    -0.035 A 
ATOM      3  C   UNL     1      -0.828  -0.750  -0.733  0.00  0.00    +0.019 A 
ATOM      4  C   UNL     1      -1.123   0.586  -0.933  0.00  0.00    +0.018 A 
ATOM      5  C   UNL     1      -0.121   1.538  -0.870  0.00  0.00    +0.017 A 
ATOM      6  C   UNL     1       1.180   1.153  -0.608  0.00  0.00    +0.024 A 
ATOM      7  C   UNL     1       1.478  -0.188  -0.408  0.00  0.00    +0.028 A 
ATOM      8  N   UNL     1       2.797  -0.579  -0.146  0.00  0.00    -0.353 N 
ATOM      9  C   UNL     1       3.031  -1.946   0.342  0.00  0.00    +0.049 C 
ATOM     10 BR   UNL     1      -2.901   1.113  -1.301  0.00  0.00    -0.050 Br
ATOM     11  H   UNL     1       3.535   0.035  -0.283  0.00  0.00    +0.145 HD
ATOM     12  N   UNL     1       2.211  -2.858  -0.488  0.00  0.00    +0.409 N 
ATOM     13  H   UNL     1       2.419  -2.686  -1.479  0.00  0.00    -0.076 HD
ENDROOT
BRANCH   9  14
ATOM     14  C   UNL     1       4.488  -2.301   0.185  0.00  0.00    -0.044 A 
ATOM     15  C   UNL     1       5.234  -2.663   1.291  0.00  0.00    +0.006 A 
ATOM     16  C   UNL     1       6.568  -2.993   1.147  0.00  0.00    +0.033 A 
ATOM     17  C   UNL     1       7.160  -2.950  -0.102  0.00  0.00    +0.126 A 
ATOM     18  C   UNL     1       6.415  -2.583  -1.207  0.00  0.00    +0.033 A 
ATOM     19  C   UNL     1       5.079  -2.258  -1.063  0.00  0.00    +0.006 A 
BRANCH  17  20
ATOM     20  N   UNL     1       8.590  -3.298  -0.255  0.00  0.00    +0.056 N 
ATOM     21  O   UNL     1       9.111  -3.260  -1.356  0.00  0.00    -0.126 OA
ATOM     22  O   UNL     1       9.246  -3.621   0.718  0.00  0.00    -0.126 OA
ENDBRANCH  17  20
ENDBRANCH   9  14
BRANCH   1  23
ATOM     23  C   UNL     1      -0.031  -3.431  -1.211  0.00  0.00    -0.057 A 
ATOM     24  C   UNL     1       0.385  -3.571  -2.522  0.00  0.00    +0.002 A 
ATOM     25  C   UNL     1      -0.355  -4.336  -3.404  0.00  0.00    +0.000 A 
ATOM     26  C   UNL     1      -1.516  -4.954  -2.978  0.00  0.00    +0.000 A 
ATOM     27  C   UNL     1      -1.935  -4.810  -1.669  0.00  0.00    +0.000 A 
ATOM     28  C   UNL     1      -1.193  -4.048  -0.785  0.00  0.00    +0.002 A 
ENDBRANCH   1  23
BRANCH  12  29
ATOM     29  C   UNL     1       2.533  -4.264  -0.166  0.00  0.00    +0.048 C 
BRANCH  29  30
ATOM     30  C   UNL     1       2.167  -4.575   1.263  0.00  0.00    +0.290 C 
ATOM     31  O   UNL     1       1.782  -3.692   1.993  0.00  0.00    -0.253 OA
BRANCH  30  33
ATOM     32  C   UNL     1       1.898  -6.057   3.109  0.00  0.00    +0.280 C 
ATOM     33  O   UNL     1       2.267  -5.831   1.723  0.00  0.00    -0.469 OA
ENDBRANCH  30  33
ENDBRANCH  29  30
ENDBRANCH  12  29
TORSDOF 6
