REMARK  Name = ZINC18008643
REMARK  5 active torsions:
REMARK  status: ('A' for Active; 'I' for Inactive)
REMARK    1  A    between atoms: C_1  and  C_2
REMARK    2  A    between atoms: C_7  and  C_8
REMARK    3  A    between atoms: N_16  and  C_19
REMARK    4  A    between atoms: C_24  and  C_25
REMARK    5  A    between atoms: N_30  and  C_31
REMARK                            x       y       z     vdW  Elec       q    Type
REMARK                         _______ _______ _______ _____ _____    ______ ____
ROOT
ATOM      1  C   UNL     1       0.243   0.037   2.499  0.00  0.00    +0.157 C 
ATOM      2  C   UNL     1      -1.130   0.234   3.128  0.00  0.00    +0.145 C 
ATOM      3  C   UNL     1      -0.667   0.198   4.634  0.00  0.00    +0.249 C 
ATOM      4  C   UNL     1      -1.801   0.808   5.300  0.00  0.00    +0.259 C 
ATOM      5  O   UNL     1      -2.228   0.555   6.406  0.00  0.00    -0.272 OA
ATOM      6  N   UNL     1      -2.287   1.733   4.414  0.00  0.00    -0.207 N 
ATOM      7  C   UNL     1      -1.775   1.585   3.143  0.00  0.00    +0.235 C 
ATOM      8  O   UNL     1      -1.826   2.378   2.227  0.00  0.00    -0.274 OA
ATOM      9  O   UNL     1       0.119  -0.918   4.683  0.00  0.00    -0.257 OA
ATOM     10  N   UNL     1       0.977  -0.784   3.506  0.00  0.00    -0.244 N 
ENDROOT
BRANCH   1  17
ATOM     11  C   UNL     1       0.169   1.499   0.009  0.00  0.00    +0.044 C 
ATOM     12  C   UNL     1       0.092  -0.006   0.001  0.00  0.00    -0.045 A 
ATOM     13  C   UNL     1      -0.009  -0.687  -1.198  0.00  0.00    +0.004 A 
ATOM     14  C   UNL     1      -0.080  -2.067  -1.204  0.00  0.00    +0.000 A 
ATOM     15  C   UNL     1      -0.050  -2.767  -0.012  0.00  0.00    +0.000 A 
ATOM     16  C   UNL     1       0.052  -2.086   1.186  0.00  0.00    +0.006 A 
ATOM     17  C   UNL     1       0.127  -0.705   1.193  0.00  0.00    -0.019 A 
ENDBRANCH   1  17
BRANCH   6  18
ATOM     18  C   UNL     1      -3.220   2.721   4.757  0.00  0.00    +0.056 A 
ATOM     19  C   UNL     1      -2.787   3.961   5.208  0.00  0.00    +0.024 A 
ATOM     20  C   UNL     1      -3.708   4.932   5.546  0.00  0.00    +0.002 A 
ATOM     21  C   UNL     1      -5.062   4.672   5.435  0.00  0.00    +0.001 A 
ATOM     22  C   UNL     1      -5.497   3.439   4.986  0.00  0.00    +0.014 A 
ATOM     23  C   UNL     1      -4.580   2.465   4.641  0.00  0.00    +0.077 A 
BRANCH  23  24
ATOM     24  C   UNL     1      -5.054   1.123   4.146  0.00  0.00    +0.419 C 
ATOM     25  F   UNL     1      -6.453   1.105   4.115  0.00  0.00    -0.166 F 
ATOM     26  F   UNL     1      -4.558   0.899   2.857  0.00  0.00    -0.166 F 
ATOM     27  F   UNL     1      -4.594   0.119   5.004  0.00  0.00    -0.166 F 
ENDBRANCH  23  24
ENDBRANCH   6  18
BRANCH  10  28
ATOM     28  C   UNL     1       2.251  -1.333   3.345  0.00  0.00    +0.065 A 
ATOM     29  C   UNL     1       2.954  -1.129   2.164  0.00  0.00    +0.028 A 
ATOM     30  C   UNL     1       4.214  -1.673   2.009  0.00  0.00    +0.002 A 
ATOM     31  C   UNL     1       4.776  -2.421   3.027  0.00  0.00    +0.000 A 
ATOM     32  C   UNL     1       4.079  -2.627   4.204  0.00  0.00    +0.002 A 
ATOM     33  C   UNL     1       2.821  -2.081   4.368  0.00  0.00    +0.028 A 
ENDBRANCH  10  28
TORSDOF 4
