REMARK  Name = ZINC40568411
REMARK  5 active torsions:
REMARK  status: ('A' for Active; 'I' for Inactive)
REMARK    1  A    between atoms: C_3  and  C_6
REMARK    2  A    between atoms: C_6  and  C_7
REMARK    3  A    between atoms: C_11  and  N_27
REMARK    4  A    between atoms: C_12  and  C_16
REMARK    5  A    between atoms: C_16  and  C_18
REMARK                            x       y       z     vdW  Elec       q    Type
REMARK                         _______ _______ _______ _____ _____    ______ ____
ROOT
ATOM      1  C   UNL     1       5.345   2.246   1.152  0.00  0.00    +0.051 A 
ATOM      2  C   UNL     1       5.008   3.436   1.796  0.00  0.00    -0.022 A 
ATOM      3  C   UNL     1       5.177   3.549   3.149  0.00  0.00    -0.031 A 
ATOM      4  C   UNL     1       5.703   2.447   3.876  0.00  0.00    +0.032 A 
ATOM      5  C   UNL     1       5.967   2.351   5.303  0.00  0.00    +0.052 A 
ATOM      6  C   UNL     1       6.484   1.168   5.794  0.00  0.00    +0.083 A 
ATOM      7  S   UNL     1       6.630   0.148   4.340  0.00  0.00    -0.064 S 
ATOM      8  C   UNL     1       6.013   1.290   3.128  0.00  0.00    +0.111 A 
ATOM      9  N   UNL     1       5.824   1.223   1.829  0.00  0.00    -0.244 NA
ATOM     10  C   UNL     1       4.826   4.791   3.921  0.00  0.00    +0.036 C 
ATOM     11  C   UNL     1       4.689   5.985   2.977  0.00  0.00    +0.005 C 
ATOM     12  C   UNL     1       3.752   5.590   1.829  0.00  0.00    +0.005 C 
ATOM     13  C   UNL     1       4.467   4.562   0.953  0.00  0.00    +0.037 C 
ENDROOT
BRANCH   5  14
ATOM     14  N   UNL     1       5.706   3.419   6.149  0.00  0.00    -0.356 N 
ATOM     15  H   UNL     1       5.027   4.069   5.913  0.00  0.00    +0.142 HD
ATOM     16  H   UNL     1       6.204   3.515   6.976  0.00  0.00    +0.142 HD
ENDBRANCH   5  14
BRANCH   6  17
ATOM     17  C   UNL     1       6.818   0.844   7.130  0.00  0.00    +0.202 C 
ATOM     18  O   UNL     1       6.544   1.617   8.032  0.00  0.00    -0.286 OA
BRANCH  17  19
ATOM     19  C   UNL     1       7.497  -0.432   7.433  0.00  0.00    +0.027 A 
ATOM     20  C   UNL     1       8.251  -1.075   6.448  0.00  0.00    +0.015 A 
ATOM     21  C   UNL     1       8.884  -2.266   6.732  0.00  0.00    +0.050 A 
ATOM     22  C   UNL     1       8.777  -2.830   7.996  0.00  0.00    +0.166 A 
ATOM     23  C   UNL     1       8.026  -2.192   8.985  0.00  0.00    +0.167 A 
ATOM     24  C   UNL     1       7.394  -0.996   8.707  0.00  0.00    +0.061 A 
ATOM     25  O   UNL     1       8.079  -2.943  10.124  0.00  0.00    -0.453 OA
ATOM     26  C   UNL     1       8.528  -4.245   9.704  0.00  0.00    +0.466 C 
ATOM     27  O   UNL     1       9.299  -3.977   8.518  0.00  0.00    -0.453 OA
ENDBRANCH  17  19
ENDBRANCH   6  17
BRANCH   1  28
ATOM     28  C   UNL     1       5.154   2.126  -0.338  0.00  0.00    +0.098 C 
BRANCH  28  31
ATOM     29  C   UNL     1       1.453   1.604  -1.074  0.00  0.00    +0.008 A 
ATOM     30  C   UNL     1       2.620   2.299  -0.821  0.00  0.00    +0.011 A 
ATOM     31  C   UNL     1       3.769   1.606  -0.626  0.00  0.00    -0.004 A 
ATOM     32  S   UNL     1       3.215  -0.082  -0.799  0.00  0.00    -0.101 S 
ATOM     33  C   UNL     1       1.491   0.250  -1.120  0.00  0.00    +0.045 A 
ENDBRANCH  28  31
ENDBRANCH   1  28
TORSDOF 5
