REMARK  Name = ZINC23640605
REMARK  7 active torsions:
REMARK  status: ('A' for Active; 'I' for Inactive)
REMARK    1  A    between atoms: C_1  and  C_2
REMARK    2  A    between atoms: C_3  and  S_8
REMARK    3  A    between atoms: C_4  and  C_7
REMARK    4  A    between atoms: S_8  and  N_11
REMARK    5  A    between atoms: C_14  and  C_17
REMARK    6  A    between atoms: N_22  and  C_25
REMARK    7  A    between atoms: C_25  and  C_26
REMARK                            x       y       z     vdW  Elec       q    Type
REMARK                         _______ _______ _______ _____ _____    ______ ____
ROOT
ATOM      1  N   UNL     1      -1.694   4.708  -0.280  0.00  0.00    -0.176 NA
ATOM      2  C   UNL     1      -1.724   4.194  -1.656  0.00  0.00    +0.110 C 
ATOM      3  C   UNL     1      -1.872   5.368  -2.622  0.00  0.00    +0.030 C 
ATOM      4  C   UNL     1      -3.100   6.195  -2.233  0.00  0.00    +0.078 C 
ATOM      5  C   UNL     1      -2.915   6.751  -0.820  0.00  0.00    +0.030 C 
ATOM      6  C   UNL     1      -2.782   5.588   0.169  0.00  0.00    +0.110 C 
ENDROOT
BRANCH   4   7
ATOM      7  C   UNL     1      -3.265   7.336  -3.204  0.00  0.00    +0.219 C 
ATOM      8  O   UNL     1      -2.288   7.878  -3.675  0.00  0.00    -0.275 OA
ATOM      9  N   UNL     1      -4.499   7.753  -3.549  0.00  0.00    -0.299 N 
ATOM     10  C   UNL     1      -5.695   7.186  -2.908  0.00  0.00    +0.123 C 
ATOM     11  C   UNL     1      -6.569   8.346  -2.405  0.00  0.00    +0.104 C 
ATOM     12  N   UNL     1      -6.839   9.266  -3.518  0.00  0.00    -0.295 NA
ATOM     13  C   UNL     1      -5.600   9.878  -4.017  0.00  0.00    +0.104 C 
ATOM     14  C   UNL     1      -4.686   8.784  -4.581  0.00  0.00    +0.123 C 
BRANCH  12  15
ATOM     15  C   UNL     1      -7.813  10.294  -3.127  0.00  0.00    +0.127 C 
BRANCH  15  16
ATOM     16  C   UNL     1      -9.146   9.646  -2.856  0.00  0.00    +0.005 A 
ATOM     17  C   UNL     1      -9.633   9.149  -1.693  0.00  0.00    +0.014 A 
ATOM     18  C   UNL     1     -10.899   8.593  -1.679  0.00  0.00    +0.028 A 
ATOM     19  C   UNL     1     -11.616   8.562  -2.830  0.00  0.00    +0.078 A 
ATOM     20  S   UNL     1     -10.497   9.341  -3.983  0.00  0.00    -0.080 S 
ATOM     21 CL   UNL     1     -13.211   7.936  -3.108  0.00  0.00    -0.076 Cl
ENDBRANCH  15  16
ENDBRANCH  12  15
ENDBRANCH   4   7
BRANCH   1  22
ATOM     22  S   UNL     1      -0.456   4.309   0.744  0.00  0.00    +0.066 S 
ATOM     23  O   UNL     1      -0.387   5.339   1.720  0.00  0.00    -0.153 OA
ATOM     24  O   UNL     1       0.652   3.961  -0.075  0.00  0.00    -0.153 OA
BRANCH  22  27
ATOM     25  C   UNL     1      -2.140   3.866   3.672  0.00  0.00    +0.071 C 
ATOM     26  C   UNL     1      -1.638   2.732   2.815  0.00  0.00    +0.107 A 
ATOM     27  C   UNL     1      -0.934   2.841   1.593  0.00  0.00    +0.170 A 
ATOM     28  C   UNL     1      -0.716   1.556   1.226  0.00  0.00    +0.161 A 
ATOM     29  O   UNL     1      -1.255   0.790   2.184  0.00  0.00    -0.358 OA
ATOM     30  N   UNL     1      -1.761   1.459   3.056  0.00  0.00    -0.081 NA
ATOM     31  C   UNL     1      -0.002   1.081  -0.013  0.00  0.00    +0.091 C 
ENDBRANCH  22  27
ENDBRANCH   1  22
TORSDOF 5
