REMARK  Name = ZINC39578728
REMARK  11 active torsions:
REMARK  status: ('A' for Active; 'I' for Inactive)
REMARK    1  A    between atoms: C_1  and  C_2
REMARK    2  A    between atoms: C_2  and  O_3
REMARK    3  A    between atoms: O_3  and  C_4
REMARK    4  A    between atoms: C_4  and  C_6
REMARK    5  A    between atoms: C_7  and  C_20
REMARK    6  A    between atoms: C_12  and  C_14
REMARK    7  A    between atoms: C_20  and  O_21
REMARK    8  A    between atoms: O_21  and  C_22
REMARK    9  A    between atoms: C_22  and  C_24
REMARK   10  A    between atoms: C_24  and  N_25
REMARK   11  A    between atoms: C_33  and  C_35
REMARK                            x       y       z     vdW  Elec       q    Type
REMARK                         _______ _______ _______ _____ _____    ______ ____
ROOT
ATOM      1  C   UNL     1      -2.795  -2.410   0.126  0.00  0.00    +0.081 C 
ATOM      2  C   UNL     1      -2.985  -3.731  -0.085  0.00  0.00    +0.061 C 
ATOM      3  N   UNL     1      -4.241  -4.255  -0.186  0.00  0.00    -0.269 N 
ATOM      4  C   UNL     1      -5.360  -3.526  -0.089  0.00  0.00    +0.304 C 
ATOM      5  O   UNL     1      -6.436  -4.083  -0.192  0.00  0.00    -0.252 OA
ATOM      6  N   UNL     1      -5.333  -2.195   0.121  0.00  0.00    -0.288 N 
ATOM      7  C   UNL     1      -4.024  -1.533   0.251  0.00  0.00    +0.144 C 
ATOM      8  H   UNL     1      -4.328  -5.210  -0.337  0.00  0.00    +0.156 HD
ATOM      9  H   UNL     1      -6.156  -1.686   0.188  0.00  0.00    +0.151 HD
ENDROOT
BRANCH   7  10
ATOM     10  C   UNL     1      -3.942  -0.465  -0.809  0.00  0.00    -0.022 A 
ATOM     11  C   UNL     1      -4.306  -0.753  -2.111  0.00  0.00    +0.006 A 
ATOM     12  C   UNL     1      -4.231   0.227  -3.083  0.00  0.00    +0.000 A 
ATOM     13  C   UNL     1      -3.792   1.496  -2.753  0.00  0.00    +0.000 A 
ATOM     14  C   UNL     1      -3.429   1.784  -1.451  0.00  0.00    +0.000 A 
ATOM     15  C   UNL     1      -3.508   0.806  -0.478  0.00  0.00    +0.006 A 
ENDBRANCH   7  10
BRANCH   1  16
ATOM     16  C   UNL     1      -1.494  -1.866   0.231  0.00  0.00    +0.339 C 
ATOM     17  O   UNL     1      -1.030  -1.608   1.326  0.00  0.00    -0.245 OA
BRANCH  16  18
ATOM     18  O   UNL     1      -0.768  -1.632  -0.882  0.00  0.00    -0.462 OA
BRANCH  18  20
ATOM     19  C   UNL     1       1.204  -0.888  -2.065  0.00  0.00    +0.048 C 
ATOM     20  C   UNL     1       0.538  -1.081  -0.701  0.00  0.00    +0.229 C 
ENDBRANCH  18  20
ENDBRANCH  16  18
ENDBRANCH   1  16
BRANCH   2  21
ATOM     21  C   UNL     1      -1.789  -4.640  -0.210  0.00  0.00    +0.283 C 
BRANCH  21  22
ATOM     22  O   UNL     1      -1.771  -5.556   0.886  0.00  0.00    -0.457 OA
BRANCH  22  23
ATOM     23  C   UNL     1      -0.763  -6.442   0.924  0.00  0.00    +0.326 C 
ATOM     24  O   UNL     1       0.077  -6.438   0.055  0.00  0.00    -0.249 OA
BRANCH  23  25
ATOM     25  C   UNL     1      -0.677  -7.439   2.050  0.00  0.00    +0.238 C 
BRANCH  25  26
ATOM     26  N   UNL     1       0.503  -8.286   1.864  0.00  0.00    -0.213 N 
ATOM     27  C   UNL     1       0.505  -9.443   1.171  0.00  0.00    +0.247 C 
ATOM     28  O   UNL     1      -0.434  -9.961   0.604  0.00  0.00    -0.273 OA
ATOM     29  C   UNL     1       1.924  -9.958   1.248  0.00  0.00    +0.115 C 
ATOM     30  C   UNL     1       2.530 -10.056  -0.148  0.00  0.00    +0.035 C 
ATOM     31  C   UNL     1       1.753 -11.086  -0.972  0.00  0.00    +0.003 C 
ATOM     32  C   UNL     1       1.815 -12.447  -0.275  0.00  0.00    +0.000 C 
ATOM     33  C   UNL     1       1.186 -12.339   1.116  0.00  0.00    +0.006 C 
ATOM     34  C   UNL     1       1.960 -11.313   1.947  0.00  0.00    +0.018 C 
ATOM     35  C   UNL     1       1.318 -11.189   3.331  0.00  0.00    +0.010 C 
ATOM     36  N   UNL     1       2.627  -8.947   2.046  0.00  0.00    -0.285 N 
ATOM     37  C   UNL     1       1.716  -8.005   2.356  0.00  0.00    +0.310 C 
ATOM     38  O   UNL     1       1.966  -7.013   3.013  0.00  0.00    -0.252 OA
ATOM     39  H   UNL     1       3.564  -8.954   2.296  0.00  0.00    +0.151 HD
ENDBRANCH  25  26
ENDBRANCH  23  25
ENDBRANCH  22  23
ENDBRANCH  21  22
ENDBRANCH   2  21
TORSDOF 9
