REMARK  Name = ZINC33810553
REMARK  12 active torsions:
REMARK  status: ('A' for Active; 'I' for Inactive)
REMARK    1  A    between atoms: C_1  and  C_2
REMARK    2  A    between atoms: C_2  and  C_3
REMARK    3  A    between atoms: C_3  and  S_4
REMARK    4  A    between atoms: S_4  and  C_5
REMARK    5  A    between atoms: C_12  and  C_24
REMARK    6  A    between atoms: C_18  and  C_22
REMARK    7  A    between atoms: C_18  and  C_23
REMARK    8  A    between atoms: C_26  and  O_33
REMARK    9  A    between atoms: C_27  and  O_32
REMARK   10  A    between atoms: C_28  and  O_30
REMARK   11  A    between atoms: O_30  and  C_31
REMARK   12  A    between atoms: O_33  and  C_34
REMARK                            x       y       z     vdW  Elec       q    Type
REMARK                         _______ _______ _______ _____ _____    ______ ____
ROOT
ATOM      1  C   UNL     1      -2.156   2.380   3.404  0.00  0.00    +0.171 A 
ATOM      2  N   UNL     1      -1.006   3.021   3.054  0.00  0.00    -0.208 NA
ATOM      3  C   UNL     1      -0.296   2.610   1.956  0.00  0.00    +0.135 A 
ATOM      4  C   UNL     1      -0.755   1.560   1.222  0.00  0.00    +0.069 A 
ATOM      5  C   UNL     1      -1.948   0.920   1.621  0.00  0.00    +0.258 A 
ATOM      6  O   UNL     1      -2.379  -0.029   0.982  0.00  0.00    -0.267 OA
ATOM      7  N   UNL     1      -2.607   1.360   2.704  0.00  0.00    -0.302 N 
ATOM      8  C   UNL     1      -0.013   1.086   0.008  0.00  0.00    +0.093 C 
ATOM      9  C   UNL     1       1.405   1.599  -0.003  0.00  0.00    +0.024 C 
ATOM     10  C   UNL     1       1.772   2.642   0.772  0.00  0.00    +0.017 C 
ATOM     11  N   UNL     1       0.867   3.250   1.597  0.00  0.00    -0.302 N 
ATOM     12  C   UNL     1       3.188   3.164   0.752  0.00  0.00    +0.058 C 
ATOM     13  C   UNL     1       4.155   2.019   0.447  0.00  0.00    -0.023 C 
ATOM     14  C   UNL     1       3.768   1.403  -0.902  0.00  0.00    +0.086 C 
ATOM     15  C   UNL     1       2.333   0.959  -0.843  0.00  0.00    +0.162 C 
ATOM     16  O   UNL     1       1.968   0.029  -1.535  0.00  0.00    -0.292 OA
ATOM     17  C   UNL     1       4.058   0.957   1.544  0.00  0.00    +0.011 C 
ATOM     18  C   UNL     1       5.587   2.554   0.376  0.00  0.00    +0.011 C 
ATOM     19  H   UNL     1       1.076   4.262   1.974  0.00  0.00    +0.153 HD
ATOM     20  H   UNL     1      -3.537   0.855   3.004  0.00  0.00    +0.171 HD
ENDROOT
BRANCH   8  21
ATOM     21  C   UNL     1      -0.724   1.576  -1.226  0.00  0.00    -0.028 A 
ATOM     22  C   UNL     1      -0.876   2.933  -1.441  0.00  0.00    +0.054 A 
ATOM     23  C   UNL     1      -1.525   3.389  -2.579  0.00  0.00    +0.165 A 
ATOM     24  C   UNL     1      -2.033   2.479  -3.498  0.00  0.00    +0.201 A 
ATOM     25  C   UNL     1      -1.884   1.115  -3.276  0.00  0.00    +0.165 A 
ATOM     26  C   UNL     1      -1.229   0.668  -2.138  0.00  0.00    +0.054 A 
BRANCH  25  27
ATOM     27  O   UNL     1      -2.380   0.220  -4.172  0.00  0.00    -0.491 OA
ATOM     28  C   UNL     1      -2.190  -1.165  -3.878  0.00  0.00    +0.277 C 
ENDBRANCH  25  27
BRANCH  24  29
ATOM     29  O   UNL     1      -2.676   2.922  -4.613  0.00  0.00    -0.501 OA
ATOM     30  H   UNL     1      -3.078   2.200  -5.340  0.00  0.00    +0.292 HD
ENDBRANCH  24  29
BRANCH  23  31
ATOM     31  O   UNL     1      -1.669   4.724  -2.792  0.00  0.00    -0.491 OA
ATOM     32  C   UNL     1      -1.122   5.601  -1.805  0.00  0.00    +0.277 C 
ENDBRANCH  23  31
ENDBRANCH   8  21
BRANCH   1  33
ATOM     33  S   UNL     1      -3.054   2.924   4.819  0.00  0.00    -0.088 S 
BRANCH  33  34
ATOM     34  C   UNL     1      -4.429   1.747   4.790  0.00  0.00    +0.077 C 
BRANCH  34  36
ATOM     35  C   UNL     1      -6.532   1.038   5.937  0.00  0.00    +0.004 C 
ATOM     36  C   UNL     1      -5.370   2.033   5.962  0.00  0.00    +0.008 C 
ENDBRANCH  34  36
ENDBRANCH  33  34
ENDBRANCH   1  33
TORSDOF 7
