REMARK  Name = ZINC20832908
REMARK  9 active torsions:
REMARK  status: ('A' for Active; 'I' for Inactive)
REMARK    1  A    between atoms: C_1  and  C_2
REMARK    2  A    between atoms: N_5  and  S_8
REMARK    3  A    between atoms: S_8  and  C_11
REMARK    4  A    between atoms: C_14  and  N_17
REMARK    5  A    between atoms: C_18  and  C_20
REMARK    6  A    between atoms: C_20  and  S_21
REMARK    7  A    between atoms: S_21  and  C_22
REMARK    8  A    between atoms: N_27  and  N_28
REMARK    9  A    between atoms: C_29  and  C_30
REMARK                            x       y       z     vdW  Elec       q    Type
REMARK                         _______ _______ _______ _____ _____    ______ ____
ROOT
ATOM      1  N   UNL     1      -1.692   6.376   0.045  0.00  0.00    -0.285 N 
ATOM      2  C   UNL     1      -0.520   6.699   0.626  0.00  0.00    +0.227 C 
ATOM      3  O   UNL     1      -0.386   7.778   1.164  0.00  0.00    -0.275 OA
ATOM      4  H   UNL     1      -1.789   5.430  -0.508  0.00  0.00    +0.155 HD
ENDROOT
BRANCH   1   8
ATOM      5  C   UNL     1      -4.947   8.959   0.344  0.00  0.00    +0.106 A 
ATOM      6  C   UNL     1      -3.666   9.471   0.245  0.00  0.00    +0.030 A 
ATOM      7  C   UNL     1      -2.585   8.618   0.146  0.00  0.00    +0.025 A 
ATOM      8  C   UNL     1      -2.785   7.243   0.145  0.00  0.00    +0.034 A 
ATOM      9  C   UNL     1      -4.073   6.732   0.239  0.00  0.00    +0.025 A 
ATOM     10  C   UNL     1      -5.149   7.591   0.344  0.00  0.00    +0.030 A 
BRANCH   5  11
ATOM     11  S   UNL     1      -6.324  10.051   0.471  0.00  0.00    +0.061 S 
ATOM     12  O   UNL     1      -7.366   9.319   1.100  0.00  0.00    -0.153 OA
ATOM     13  O   UNL     1      -5.825  11.273   0.998  0.00  0.00    -0.153 OA
BRANCH  11  18
ATOM     14  C   UNL     1      -9.560  12.388  -3.645  0.00  0.00    +0.007 C 
ATOM     15  C   UNL     1      -8.419  11.516  -3.117  0.00  0.00    -0.012 C 
ATOM     16  C   UNL     1      -8.991  10.421  -2.214  0.00  0.00    +0.020 C 
ATOM     17  C   UNL     1      -7.849   9.529  -1.715  0.00  0.00    +0.110 C 
ATOM     18  N   UNL     1      -6.835  10.375  -1.071  0.00  0.00    -0.177 NA
ATOM     19  C   UNL     1      -6.289  11.516  -1.817  0.00  0.00    +0.110 C 
ATOM     20  C   UNL     1      -7.444  12.382  -2.317  0.00  0.00    +0.020 C 
ENDBRANCH  11  18
ENDBRANCH   5  11
ENDBRANCH   1   8
BRANCH   2  21
ATOM     21  C   UNL     1       0.626   5.720   0.608  0.00  0.00    +0.173 C 
BRANCH  21  22
ATOM     22  S   UNL     1       2.053   6.442   1.464  0.00  0.00    -0.075 S 
BRANCH  22  23
ATOM     23  C   UNL     1       3.291   5.192   1.357  0.00  0.00    +0.211 A 
ATOM     24  N   UNL     1       4.557   5.272   1.863  0.00  0.00    -0.186 NA
ATOM     25  C   UNL     1       5.200   4.100   1.578  0.00  0.00    +0.232 A 
ATOM     26  N   UNL     1       4.366   3.329   0.923  0.00  0.00    -0.245 N 
ATOM     27  N   UNL     1       3.156   4.021   0.784  0.00  0.00    -0.144 NA
ATOM     28  N   UNL     1       6.506   3.782   1.921  0.00  0.00    -0.205 N 
ATOM     29  H   UNL     1       7.122   4.507   2.473  0.00  0.00    +0.177 HD
ATOM     30  H   UNL     1       4.684   2.328   0.595  0.00  0.00    +0.192 HD
BRANCH  28  31
ATOM     31  N   UNL     1       7.041   2.538   1.563  0.00  0.00    -0.184 NA
ATOM     32  C   UNL     1       8.267   2.240   1.885  0.00  0.00    +0.176 C 
BRANCH  32  33
ATOM     33  C   UNL     1       8.827   0.937   1.511  0.00  0.00    +0.147 A 
ATOM     34  C   UNL     1      10.090   0.499   1.784  0.00  0.00    +0.051 A 
ATOM     35  C   UNL     1      10.195  -0.796   1.244  0.00  0.00    +0.042 A 
ATOM     36  C   UNL     1       9.008  -1.085   0.674  0.00  0.00    +0.196 A 
ATOM     37  O   UNL     1       8.182  -0.039   0.842  0.00  0.00    -0.462 OA
ENDBRANCH  32  33
ENDBRANCH  28  31
ENDBRANCH  22  23
ENDBRANCH  21  22
ENDBRANCH   2  21
TORSDOF 8
