REMARK  Name = ZINC02183037
REMARK  4 active torsions:
REMARK  status: ('A' for Active; 'I' for Inactive)
REMARK    1  A    between atoms: C_1  and  O_2
REMARK    2  A    between atoms: O_2  and  C_3
REMARK    3  A    between atoms: C_6  and  C_9
REMARK    4  A    between atoms: C_9  and  N_10
REMARK                            x       y       z     vdW  Elec       q    Type
REMARK                         _______ _______ _______ _____ _____    ______ ____
ROOT
ATOM      1  N   UNL     1       4.790   5.284  -0.072  0.00  0.00    -0.284 N 
ATOM      2  C   UNL     1       4.788   3.973  -0.386  0.00  0.00    +0.259 A 
ATOM      3  O   UNL     1       5.831   3.405  -0.662  0.00  0.00    -0.267 OA
ATOM      4  C   UNL     1       3.569   3.264  -0.390  0.00  0.00    +0.047 A 
ATOM      5  C   UNL     1       2.423   3.918  -0.050  0.00  0.00    +0.057 A 
ATOM      6  N   UNL     1       2.468   5.260   0.251  0.00  0.00    -0.334 N 
ATOM      7  H   UNL     1       1.627   5.748   0.482  0.00  0.00    +0.168 HD
ATOM      8  C   UNL     1       3.643   5.918   0.235  0.00  0.00    +0.161 A 
ATOM      9  S   UNL     1       3.678   7.588   0.610  0.00  0.00    -0.013 S 
ATOM     10  C   UNL     1       1.148   3.177  -0.007  0.00  0.00    +0.002 A 
ATOM     11  C   UNL     1      -0.071   3.853   0.015  0.00  0.00    +0.010 A 
ATOM     12  C   UNL     1      -1.250   3.135   0.030  0.00  0.00    +0.001 A 
ATOM     13  C   UNL     1      -1.221   1.751   0.017  0.00  0.00    +0.000 A 
ATOM     14  C   UNL     1      -0.013   1.076   0.008  0.00  0.00    +0.004 A 
ATOM     15  C   UNL     1       1.172   1.781   0.000  0.00  0.00    -0.037 A 
ATOM     16  C   UNL     1       2.492   1.056   0.028  0.00  0.00    +0.047 C 
ATOM     17  C   UNL     1       3.534   1.814  -0.793  0.00  0.00    +0.007 C 
ATOM     18  C   UNL     1       4.913   1.191  -0.558  0.00  0.00    +0.012 C 
ATOM     19  C   UNL     1       4.883  -0.282  -0.970  0.00  0.00    +0.001 C 
ATOM     20  C   UNL     1       4.524  -0.390  -2.453  0.00  0.00    +0.000 C 
ATOM     21  C   UNL     1       3.150   0.237  -2.693  0.00  0.00    +0.001 C 
ATOM     22  C   UNL     1       3.181   1.710  -2.280  0.00  0.00    +0.012 C 
ENDROOT
BRANCH   1  23
ATOM     23  C   UNL     1       6.053   6.026  -0.064  0.00  0.00    +0.162 C 
BRANCH  23  27
ATOM     24  C   UNL     1       6.756   7.679  -3.942  0.00  0.00    +0.120 A 
ATOM     25  C   UNL     1       6.053   8.408  -2.993  0.00  0.00    +0.046 A 
ATOM     26  C   UNL     1       5.827   7.871  -1.740  0.00  0.00    +0.009 A 
ATOM     27  C   UNL     1       6.301   6.609  -1.432  0.00  0.00    -0.027 A 
ATOM     28  C   UNL     1       7.006   5.883  -2.374  0.00  0.00    +0.009 A 
ATOM     29  C   UNL     1       7.230   6.413  -3.630  0.00  0.00    +0.046 A 
BRANCH  24  31
ATOM     30  C   UNL     1       7.710   7.398  -6.101  0.00  0.00    +0.277 C 
ATOM     31  O   UNL     1       6.979   8.205  -5.175  0.00  0.00    -0.495 OA
ENDBRANCH  24  31
ENDBRANCH  23  27
ENDBRANCH   1  23
TORSDOF 3
