REMARK  Name = ZINC42260071
REMARK  6 active torsions:
REMARK  status: ('A' for Active; 'I' for Inactive)
REMARK    1  A    between atoms: C_1  and  C_2
REMARK    2  A    between atoms: C_6  and  S_8
REMARK    3  A    between atoms: S_8  and  N_11
REMARK    4  A    between atoms: N_11  and  C_12
REMARK    5  A    between atoms: N_11  and  C_13
REMARK    6  A    between atoms: C_13  and  C_14
REMARK                            x       y       z     vdW  Elec       q    Type
REMARK                         _______ _______ _______ _____ _____    ______ ____
ROOT
ATOM      1  S   UNL     1       0.065  -2.959   2.637  0.00  0.00    +0.061 S 
ATOM      2  O   UNL     1      -0.499  -2.071   3.592  0.00  0.00    -0.153 OA
ATOM      3  O   UNL     1      -0.481  -4.246   2.379  0.00  0.00    -0.153 OA
ENDROOT
BRANCH   1   9
ATOM      4  C   UNL     1       0.083   1.461  -0.152  0.00  0.00    +0.044 C 
ATOM      5  C   UNL     1       0.087  -0.046  -0.130  0.00  0.00    -0.049 A 
ATOM      6  C   UNL     1       0.102  -0.755  -1.317  0.00  0.00    +0.003 A 
ATOM      7  C   UNL     1       0.106  -2.137  -1.296  0.00  0.00    +0.002 A 
ATOM      8  C   UNL     1       0.094  -2.810  -0.089  0.00  0.00    +0.028 A 
ATOM      9  C   UNL     1       0.080  -2.101   1.098  0.00  0.00    +0.106 A 
ATOM     10  C   UNL     1       0.080  -0.719   1.077  0.00  0.00    +0.032 A 
ENDBRANCH   1   9
BRANCH   1  11
ATOM     11  N   UNL     1       1.642  -3.195   3.082  0.00  0.00    -0.175 NA
ATOM     12  C   UNL     1       2.331  -2.191   3.896  0.00  0.00    +0.132 C 
BRANCH  11  13
ATOM     13  C   UNL     1       2.349  -4.407   2.661  0.00  0.00    +0.145 C 
BRANCH  13  14
ATOM     14  C   UNL     1       3.161  -4.111   1.426  0.00  0.00    -0.018 A 
ATOM     15  C   UNL     1       3.248  -2.817   0.949  0.00  0.00    +0.006 A 
ATOM     16  C   UNL     1       3.993  -2.546  -0.183  0.00  0.00    +0.000 A 
ATOM     17  C   UNL     1       4.652  -3.569  -0.839  0.00  0.00    +0.001 A 
ATOM     18  C   UNL     1       4.566  -4.864  -0.363  0.00  0.00    +0.015 A 
ATOM     19  C   UNL     1       3.824  -5.135   0.773  0.00  0.00    +0.022 A 
ATOM     20 BR   UNL     1       3.712  -6.904   1.429  0.00  0.00    -0.050 Br
ENDBRANCH  13  14
ENDBRANCH  11  13
ENDBRANCH   1  11
TORSDOF 4
