REMARK  Name = ZINC67029116
REMARK  5 active torsions:
REMARK  status: ('A' for Active; 'I' for Inactive)
REMARK    1  A    between atoms: C_3  and  C_6
REMARK    2  A    between atoms: C_6  and  C_8
REMARK    3  A    between atoms: C_10  and  C_22
REMARK    4  A    between atoms: C_16  and  C_17
REMARK    5  A    between atoms: C_16  and  O_21
REMARK                            x       y       z     vdW  Elec       q    Type
REMARK                         _______ _______ _______ _____ _____    ______ ____
ROOT
ATOM      1  C   UNL     1       4.768   0.615  -0.040  0.00  0.00    +0.146 C 
ATOM      2  C   UNL     1       5.074   0.168   1.393  0.00  0.00    +0.138 C 
ATOM      3  N   UNL     1       5.606   1.305   2.147  0.00  0.00    -0.317 N 
ATOM      4  C   UNL     1       6.290   2.286   1.540  0.00  0.00    +0.133 C 
ATOM      5  S   UNL     1       6.895   3.576   2.489  0.00  0.00    -0.019 S 
ATOM      6  N   UNL     1       6.519   2.296   0.218  0.00  0.00    -0.291 N 
ATOM      7  C   UNL     1       6.038   1.215  -0.651  0.00  0.00    +0.241 C 
ATOM      8  H   UNL     1       5.461   1.349   3.105  0.00  0.00    +0.148 HD
ATOM      9  H   UNL     1       7.013   3.034  -0.173  0.00  0.00    +0.151 HD
ENDROOT
BRANCH   2  10
ATOM     10  C   UNL     1       3.810  -0.325   2.049  0.00  0.00    +0.093 A 
ATOM     11  C   UNL     1       3.714  -1.557   2.612  0.00  0.00    +0.094 A 
ATOM     12  S   UNL     1       2.129  -1.562   3.170  0.00  0.00    +0.028 S 
ATOM     13  N   UNL     1       1.675  -0.084   2.693  0.00  0.00    -0.110 NA
ATOM     14  N   UNL     1       2.719   0.408   2.122  0.00  0.00    -0.144 NA
ENDBRANCH   2  10
BRANCH   7  15
ATOM     15  C   UNL     1       5.725   1.770  -2.042  0.00  0.00    +0.436 C 
ATOM     16  F   UNL     1       4.744   2.762  -1.938  0.00  0.00    -0.166 F 
ATOM     17  F   UNL     1       6.886   2.318  -2.598  0.00  0.00    -0.166 F 
ATOM     18  F   UNL     1       5.258   0.736  -2.861  0.00  0.00    -0.166 F 
ENDBRANCH   7  15
BRANCH   1  19
ATOM     19  C   UNL     1       3.675   1.652  -0.024  0.00  0.00    +0.180 C 
ATOM     20  O   UNL     1       3.958   2.833  -0.021  0.00  0.00    -0.291 OA
BRANCH  19  23
ATOM     21  C   UNL     1      -0.016   1.354   0.009  0.00  0.00    +0.008 A 
ATOM     22  C   UNL     1       1.173   2.038   0.002  0.00  0.00    +0.019 A 
ATOM     23  C   UNL     1       2.321   1.251  -0.013  0.00  0.00    +0.055 A 
ATOM     24  S   UNL     1       1.636  -0.395  -0.016  0.00  0.00    -0.094 S 
ATOM     25  C   UNL     1       0.002  -0.004   0.002  0.00  0.00    +0.046 A 
ENDBRANCH  19  23
ENDBRANCH   1  19
BRANCH   7  26
ATOM     26  O   UNL     1       7.043   0.204  -0.754  0.00  0.00    -0.364 OA
ATOM     27  H   UNL     1       7.877   0.515  -1.133  0.00  0.00    +0.212 HD
ENDBRANCH   7  26
TORSDOF 5
