REMARK  Name = ZINC09222842
REMARK  11 active torsions:
REMARK  status: ('A' for Active; 'I' for Inactive)
REMARK    1  A    between atoms: C_1  and  C_2
REMARK    2  A    between atoms: C_2  and  C_3
REMARK    3  A    between atoms: C_3  and  C_4
REMARK    4  A    between atoms: C_4  and  N_5
REMARK    5  A    between atoms: C_9  and  S_31
REMARK    6  A    between atoms: C_13  and  S_14
REMARK    7  A    between atoms: S_14  and  C_15
REMARK    8  A    between atoms: C_15  and  C_16
REMARK    9  A    between atoms: N_18  and  C_19
REMARK   10  A    between atoms: C_19  and  C_20
REMARK   11  A    between atoms: S_31  and  N_34
REMARK                            x       y       z     vdW  Elec       q    Type
REMARK                         _______ _______ _______ _____ _____    ______ ____
ROOT
ATOM      1  N   UNL     1      -6.732   9.028   1.887  0.00  0.00    -0.319 N 
ATOM      2  C   UNL     1      -6.186   9.947   2.768  0.00  0.00    +0.070 A 
ATOM      3  C   UNL     1      -6.580  11.199   3.217  0.00  0.00    +0.030 A 
ATOM      4  C   UNL     1      -5.790  11.885   4.118  0.00  0.00    +0.030 A 
ATOM      5  C   UNL     1      -4.605  11.331   4.577  0.00  0.00    +0.107 A 
ATOM      6  C   UNL     1      -4.199  10.089   4.141  0.00  0.00    +0.058 A 
ATOM      7  C   UNL     1      -4.987   9.382   3.230  0.00  0.00    +0.092 A 
ATOM      8  N   UNL     1      -4.859   8.169   2.630  0.00  0.00    -0.222 NA
ATOM      9  C   UNL     1      -5.885   7.957   1.843  0.00  0.00    +0.170 A 
ENDROOT
BRANCH   5  10
ATOM     10  S   UNL     1      -3.611  12.222   5.726  0.00  0.00    +0.056 S 
ATOM     11  O   UNL     1      -4.478  13.126   6.398  0.00  0.00    -0.153 OA
ATOM     12  O   UNL     1      -2.829  11.259   6.419  0.00  0.00    -0.153 OA
BRANCH  10  13
ATOM     13  N   UNL     1      -2.554  13.146   4.847  0.00  0.00    -0.204 NA
ATOM     14  H   UNL     1      -2.575  13.116   3.877  0.00  0.00    +0.144 HD
ATOM     15  H   UNL     1      -1.914  13.716   5.301  0.00  0.00    +0.144 HD
ENDBRANCH  10  13
ENDBRANCH   5  10
BRANCH   1  16
ATOM     16  C   UNL     1      -7.986   9.175   1.143  0.00  0.00    +0.124 C 
BRANCH  16  17
ATOM     17  C   UNL     1      -9.141   8.614   1.975  0.00  0.00    +0.021 C 
BRANCH  17  19
ATOM     18  C   UNL     1     -11.605   8.206   2.030  0.00  0.00    +0.004 C 
ATOM     19  C   UNL     1     -10.450   8.768   1.199  0.00  0.00    -0.002 C 
ENDBRANCH  17  19
ENDBRANCH  16  17
ENDBRANCH   1  16
BRANCH   9  20
ATOM     20  S   UNL     1      -6.131   6.511   0.867  0.00  0.00    -0.078 S 
BRANCH  20  21
ATOM     21  C   UNL     1      -4.645   5.577   1.309  0.00  0.00    +0.173 C 
BRANCH  21  22
ATOM     22  C   UNL     1      -4.640   4.262   0.572  0.00  0.00    +0.223 C 
ATOM     23  O   UNL     1      -5.551   3.984  -0.178  0.00  0.00    -0.275 OA
ATOM     24  N   UNL     1      -3.622   3.396   0.747  0.00  0.00    -0.311 N 
ATOM     25  H   UNL     1      -2.893   3.618   1.347  0.00  0.00    +0.149 HD
BRANCH  24  26
ATOM     26  C   UNL     1      -3.617   2.118   0.030  0.00  0.00    +0.152 C 
BRANCH  26  27
ATOM     27  C   UNL     1      -2.361   1.329   0.404  0.00  0.00    +0.228 C 
ATOM     28  C   UNL     1      -2.350  -0.011  -0.344  0.00  0.00    +0.275 C 
ATOM     29  O   UNL     1      -1.158  -0.717   0.017  0.00  0.00    -0.485 OA
ATOM     30  C   UNL     1       0.002  -0.004   0.002  0.00  0.00    +0.162 A 
ATOM     31  C   UNL     1       1.214  -0.677  -0.017  0.00  0.00    +0.049 A 
ATOM     32  C   UNL     1       2.400   0.032  -0.027  0.00  0.00    +0.004 A 
ATOM     33  C   UNL     1       2.382   1.415  -0.017  0.00  0.00    +0.004 A 
ATOM     34  C   UNL     1       1.177   2.091   0.002  0.00  0.00    +0.049 A 
ATOM     35  C   UNL     1      -0.017   1.385   0.010  0.00  0.00    +0.163 A 
ATOM     36  O   UNL     1      -1.195   2.066   0.019  0.00  0.00    -0.480 OA
ENDBRANCH  26  27
ENDBRANCH  24  26
ENDBRANCH  21  22
ENDBRANCH  20  21
ENDBRANCH   9  20
TORSDOF 10
