REMARK  Name = ZINC41076294
REMARK  5 active torsions:
REMARK  status: ('A' for Active; 'I' for Inactive)
REMARK    1  A    between atoms: C_5  and  C_7
REMARK    2  A    between atoms: C_7  and  O_8
REMARK    3  A    between atoms: O_8  and  C_9
REMARK    4  A    between atoms: C_14  and  C_15
REMARK    5  A    between atoms: C_25  and  C_27
REMARK                            x       y       z     vdW  Elec       q    Type
REMARK                         _______ _______ _______ _____ _____    ______ ____
ROOT
ATOM      1  C   UNL     1      -2.742  -3.719   0.008  0.00  0.00    +0.028 C 
ATOM      2  C   UNL     1      -3.880  -4.090  -0.672  0.00  0.00    +0.081 C 
ATOM      3  C   UNL     1      -5.061  -3.188  -0.779  0.00  0.00    +0.153 C 
ATOM      4  N   UNL     1      -4.966  -1.886  -0.839  0.00  0.00    -0.283 NA
ATOM      5  N   UNL     1      -6.292  -3.878  -0.811  0.00  0.00    -0.152 N 
ATOM      6  C   UNL     1      -6.276  -5.190  -1.231  0.00  0.00    +0.181 C 
ATOM      7  N   UNL     1      -5.229  -5.922  -1.522  0.00  0.00    -0.152 NA
ATOM      8  C   UNL     1      -3.994  -5.409  -1.344  0.00  0.00    +0.273 C 
ATOM      9  O   UNL     1      -3.001  -6.011  -1.719  0.00  0.00    -0.268 OA
ATOM     10  S   UNL     1      -8.001  -5.598  -1.244  0.00  0.00    -0.029 S 
ATOM     11  C   UNL     1      -8.613  -4.047  -0.599  0.00  0.00    +0.202 C 
ATOM     12  N   UNL     1      -7.520  -3.352  -0.468  0.00  0.00    -0.160 NA
ATOM     13  H   UNL     1      -5.768  -1.344  -0.908  0.00  0.00    +0.188 HD
ENDROOT
BRANCH   1  19
ATOM     14  C   UNL     1      -0.325  -4.308   0.092  0.00  0.00    +0.128 A 
ATOM     15  C   UNL     1       0.679  -5.238   0.310  0.00  0.00    +0.046 A 
ATOM     16  C   UNL     1       0.359  -6.536   0.656  0.00  0.00    +0.004 A 
ATOM     17  C   UNL     1      -0.967  -6.922   0.788  0.00  0.00    +0.001 A 
ATOM     18  C   UNL     1      -1.980  -6.015   0.575  0.00  0.00    +0.011 A 
ATOM     19  C   UNL     1      -1.671  -4.692   0.230  0.00  0.00    +0.018 A 
BRANCH  14  20
ATOM     20  O   UNL     1      -0.011  -3.033  -0.248  0.00  0.00    -0.487 OA
BRANCH  20  21
ATOM     21  C   UNL     1       1.377  -2.716  -0.370  0.00  0.00    +0.267 C 
BRANCH  21  26
ATOM     22  C   UNL     1       0.551   0.855  -1.274  0.00  0.00    +0.001 A 
ATOM     23  C   UNL     1       1.811   1.395  -1.450  0.00  0.00    +0.003 A 
ATOM     24  C   UNL     1       2.932   0.606  -1.277  0.00  0.00    +0.039 A 
ATOM     25  C   UNL     1       2.793  -0.727  -0.927  0.00  0.00    +0.130 A 
ATOM     26  C   UNL     1       1.530  -1.266  -0.751  0.00  0.00    +0.025 A 
ATOM     27  C   UNL     1       0.410  -0.475  -0.924  0.00  0.00    +0.010 A 
ATOM     28  F   UNL     1       3.888  -1.499  -0.757  0.00  0.00    -0.205 F 
ENDBRANCH  21  26
ENDBRANCH  20  21
ENDBRANCH  14  20
ENDBRANCH   1  19
BRANCH  11  29
ATOM     29  C   UNL     1     -10.032  -3.646  -0.287  0.00  0.00    +0.442 C 
ATOM     30  F   UNL     1     -10.050  -2.335   0.200  0.00  0.00    -0.164 F 
ATOM     31  F   UNL     1     -10.805  -3.723  -1.450  0.00  0.00    -0.164 F 
ATOM     32  F   UNL     1     -10.558  -4.510   0.680  0.00  0.00    -0.164 F 
ENDBRANCH  11  29
TORSDOF 5
