REMARK  Name = ZINC03090172
REMARK  11 active torsions:
REMARK  status: ('A' for Active; 'I' for Inactive)
REMARK    1  A    between atoms: C_1  and  C_2
REMARK    2  A    between atoms: C_2  and  C_3
REMARK    3  A    between atoms: C_3  and  O_4
REMARK    4  A    between atoms: O_4  and  C_5
REMARK    5  A    between atoms: C_8  and  C_11
REMARK    6  A    between atoms: C_12  and  C_13
REMARK    7  A    between atoms: C_12  and  N_29
REMARK    8  A    between atoms: N_15  and  N_16
REMARK    9  A    between atoms: C_17  and  C_18
REMARK   10  A    between atoms: C_27  and  O_28
REMARK   11  A    between atoms: C_30  and  C_32
REMARK                            x       y       z     vdW  Elec       q    Type
REMARK                         _______ _______ _______ _____ _____    ______ ____
ROOT
ATOM      1  C   UNL     1      -3.822  11.412  -0.200  0.00  0.00    +0.036 C 
ATOM      2  C   UNL     1      -3.934  10.067  -0.090  0.00  0.00    +0.098 C 
ENDROOT
BRANCH   1   6
ATOM      3  C   UNL     1      -7.268  13.777  -0.919  0.00  0.00    +0.121 A 
ATOM      4  C   UNL     1      -6.148  14.348  -0.328  0.00  0.00    +0.046 A 
ATOM      5  C   UNL     1      -5.026  13.585  -0.092  0.00  0.00    +0.011 A 
ATOM      6  C   UNL     1      -5.016  12.231  -0.449  0.00  0.00    -0.023 A 
ATOM      7  C   UNL     1      -6.146  11.662  -1.048  0.00  0.00    +0.011 A 
ATOM      8  C   UNL     1      -7.264  12.434  -1.275  0.00  0.00    +0.046 A 
BRANCH   3   9
ATOM      9  O   UNL     1      -8.371  14.534  -1.150  0.00  0.00    -0.492 OA
BRANCH   9  10
ATOM     10  C   UNL     1      -9.488  13.885  -1.761  0.00  0.00    +0.229 C 
BRANCH  10  12
ATOM     11  C   UNL     1     -11.823  14.195  -2.594  0.00  0.00    +0.007 C 
ATOM     12  C   UNL     1     -10.627  14.890  -1.940  0.00  0.00    +0.038 C 
ENDBRANCH  10  12
ENDBRANCH   9  10
ENDBRANCH   3   9
ENDBRANCH   1   6
BRANCH   2  13
ATOM     13  C   UNL     1      -2.729   9.235   0.009  0.00  0.00    +0.277 C 
ATOM     14  O   UNL     1      -1.628   9.754  -0.010  0.00  0.00    -0.267 OA
ATOM     15  N   UNL     1      -2.841   7.896   0.120  0.00  0.00    -0.202 N 
ATOM     16  H   UNL     1      -3.717   7.488   0.203  0.00  0.00    +0.178 HD
BRANCH  15  17
ATOM     17  N   UNL     1      -1.692   7.095   0.118  0.00  0.00    -0.187 NA
ATOM     18  C   UNL     1      -1.800   5.803   0.225  0.00  0.00    +0.142 C 
BRANCH  18  19
ATOM     19  C   UNL     1      -0.595   4.962   0.222  0.00  0.00    +0.044 A 
ATOM     20  C   UNL     1      -0.698   3.509   0.342  0.00  0.00    -0.006 A 
ATOM     21  C   UNL     1      -1.939   2.872   0.463  0.00  0.00    +0.009 A 
ATOM     22  C   UNL     1      -1.992   1.514   0.567  0.00  0.00    +0.001 A 
ATOM     23  C   UNL     1      -0.827   0.751   0.564  0.00  0.00    +0.001 A 
ATOM     24  C   UNL     1       0.396   1.338   0.448  0.00  0.00    +0.008 A 
ATOM     25  C   UNL     1       0.488   2.736   0.334  0.00  0.00    -0.017 A 
ATOM     26  C   UNL     1       1.733   3.377   0.212  0.00  0.00    +0.012 A 
ATOM     27  C   UNL     1       1.811   4.730   0.102  0.00  0.00    +0.046 A 
ATOM     28  C   UNL     1       0.672   5.534   0.105  0.00  0.00    +0.126 A 
BRANCH  28  29
ATOM     29  O   UNL     1       0.797   6.881  -0.007  0.00  0.00    -0.506 OA
ATOM     30  H   UNL     1       0.782   7.202  -0.919  0.00  0.00    +0.292 HD
ENDBRANCH  28  29
ENDBRANCH  18  19
ENDBRANCH  15  17
ENDBRANCH   2  13
BRANCH   2  31
ATOM     31  N   UNL     1      -5.199   9.470  -0.070  0.00  0.00    -0.277 N 
ATOM     32  C   UNL     1      -5.522   8.545  -0.995  0.00  0.00    +0.248 C 
ATOM     33  O   UNL     1      -4.685   8.159  -1.788  0.00  0.00    -0.270 OA
ATOM     34  H   UNL     1      -5.844   9.722   0.610  0.00  0.00    +0.155 HD
BRANCH  32  35
ATOM     35  C   UNL     1      -6.895   7.998  -1.046  0.00  0.00    +0.037 A 
ATOM     36  C   UNL     1      -7.858   8.435  -0.134  0.00  0.00    +0.013 A 
ATOM     37  C   UNL     1      -9.138   7.925  -0.191  0.00  0.00    +0.001 A 
ATOM     38  C   UNL     1      -9.467   6.976  -1.143  0.00  0.00    +0.000 A 
ATOM     39  C   UNL     1      -8.516   6.535  -2.046  0.00  0.00    +0.001 A 
ATOM     40  C   UNL     1      -7.233   7.040  -2.003  0.00  0.00    +0.013 A 
ENDBRANCH  32  35
ENDBRANCH   2  31
TORSDOF 10
