REMARK  Name = ZINC41586891
REMARK  4 active torsions:
REMARK  status: ('A' for Active; 'I' for Inactive)
REMARK    1  A    between atoms: C_1  and  C_2
REMARK    2  A    between atoms: C_10  and  C_11
REMARK    3  A    between atoms: N_21  and  C_24
REMARK    4  A    between atoms: C_24  and  C_25
REMARK                            x       y       z     vdW  Elec       q    Type
REMARK                         _______ _______ _______ _____ _____    ______ ____
ROOT
ATOM      1  C   UNL     1       0.984   1.399   0.041  0.00  0.00    +0.051 C 
ATOM      2  C   UNL     1       0.925  -0.107   0.056  0.00  0.00    +0.034 A 
ATOM      3  C   UNL     1       1.112  -0.818  -1.122  0.00  0.00    +0.133 A 
ATOM      4  C   UNL     1       1.062  -2.208  -1.120  0.00  0.00    +0.010 A 
ATOM      5  C   UNL     1       0.824  -2.884   0.046  0.00  0.00    +0.024 A 
ATOM      6  C   UNL     1       0.634  -2.182   1.235  0.00  0.00    +0.068 A 
ATOM      7  C   UNL     1       0.690  -0.779   1.248  0.00  0.00    +0.146 A 
ATOM      8  O   UNL     1       0.486  -0.326   2.504  0.00  0.00    -0.451 OA
ATOM      9  C   UNL     1       0.292  -1.340   3.380  0.00  0.00    +0.176 C 
ATOM     10  C   UNL     1       0.060  -1.216   4.710  0.00  0.00    +0.059 C 
ATOM     11  C   UNL     1       0.366  -2.600   2.623  0.00  0.00    +0.231 C 
ATOM     12  O   UNL     1       0.245  -3.735   3.050  0.00  0.00    -0.283 OA
ATOM     13  C   UNL     1       1.272  -2.989  -2.393  0.00  0.00    +0.126 C 
ATOM     14  N   UNL     1       1.096  -2.100  -3.550  0.00  0.00    -0.264 NA
ATOM     15  C   UNL     1       1.887  -0.871  -3.371  0.00  0.00    +0.318 C 
ATOM     16  O   UNL     1       1.343  -0.134  -2.273  0.00  0.00    -0.476 OA
ENDROOT
BRANCH  10  17
ATOM     17  C   UNL     1       0.160   0.100   5.355  0.00  0.00    -0.003 A 
ATOM     18  C   UNL     1       0.140   1.266   4.580  0.00  0.00    +0.009 A 
ATOM     19  C   UNL     1       0.234   2.497   5.192  0.00  0.00    +0.001 A 
ATOM     20  C   UNL     1       0.348   2.584   6.569  0.00  0.00    +0.001 A 
ATOM     21  C   UNL     1       0.369   1.438   7.344  0.00  0.00    +0.020 A 
ATOM     22  C   UNL     1       0.270   0.196   6.748  0.00  0.00    +0.048 A 
ATOM     23 CL   UNL     1       0.289  -1.241   7.721  0.00  0.00    -0.083 Cl
ENDBRANCH  10  17
BRANCH  14  24
ATOM     24  C   UNL     1       1.460  -2.783  -4.798  0.00  0.00    +0.119 C 
BRANCH  24  25
ATOM     25  C   UNL     1       1.034  -1.926  -5.992  0.00  0.00    +0.132 C 
ATOM     26  C   UNL     1       1.377  -2.645  -7.321  0.00  0.00    +0.035 C 
ATOM     27  C   UNL     1       0.346  -1.996  -8.283  0.00  0.00    +0.031 C 
ATOM     28  C   UNL     1      -0.872  -1.777  -7.359  0.00  0.00    +0.160 C 
ATOM     29  O   UNL     1      -0.394  -1.768  -6.007  0.00  0.00    -0.375 OA
ENDBRANCH  24  25
ENDBRANCH  14  24
TORSDOF 3
