REMARK  Name = ZINC39666036
REMARK  11 active torsions:
REMARK  status: ('A' for Active; 'I' for Inactive)
REMARK    1  A    between atoms: C_1  and  C_2
REMARK    2  A    between atoms: C_2  and  C_3
REMARK    3  A    between atoms: C_3  and  C_5
REMARK    4  A    between atoms: C_3  and  C_6
REMARK    5  A    between atoms: C_10  and  C_19
REMARK    6  A    between atoms: N_21  and  C_22
REMARK    7  A    between atoms: C_22  and  C_23
REMARK    8  A    between atoms: C_23  and  C_25
REMARK    9  A    between atoms: C_23  and  O_26
REMARK   10  A    between atoms: O_26  and  C_27
REMARK   11  A    between atoms: C_30  and  C_33
REMARK                            x       y       z     vdW  Elec       q    Type
REMARK                         _______ _______ _______ _____ _____    ______ ____
ROOT
ATOM      1  C   UNL     1      -1.129  -1.891   0.179  0.00  0.00    +0.218 C 
ATOM      2  O   UNL     1      -0.088  -2.476   0.392  0.00  0.00    -0.275 OA
ATOM      3  N   UNL     1      -2.280  -2.582   0.067  0.00  0.00    -0.300 N 
ATOM      4  C   UNL     1      -3.621  -2.063  -0.294  0.00  0.00    +0.121 C 
ATOM      5  C   UNL     1      -4.228  -3.151  -1.208  0.00  0.00    +0.100 C 
ATOM      6  C   UNL     1      -3.485  -4.443  -0.827  0.00  0.00    -0.004 C 
ATOM      7  C   UNL     1      -2.491  -4.036   0.271  0.00  0.00    +0.115 C 
ATOM      8  C   UNL     1      -2.731  -4.995  -2.034  0.00  0.00    -0.010 C 
ATOM      9  C   UNL     1      -2.047  -6.309  -1.645  0.00  0.00    -0.082 C 
ATOM     10  N   UNL     1      -3.057  -7.272  -1.191  0.00  0.00    +0.379 N 
ATOM     11  C   UNL     1      -3.713  -6.775   0.025  0.00  0.00    -0.082 C 
ATOM     12  C   UNL     1      -4.467  -5.481  -0.293  0.00  0.00    -0.010 C 
ATOM     13  H   UNL     1      -3.748  -7.401  -1.915  0.00  0.00    -0.086 HD
ATOM     14  H   UNL     1      -2.612  -8.156  -0.993  0.00  0.00    -0.086 HD
ENDROOT
BRANCH   5  15
ATOM     15  C   UNL     1      -5.704  -3.295  -0.943  0.00  0.00    +0.218 C 
ATOM     16  O   UNL     1      -6.136  -3.143   0.180  0.00  0.00    -0.275 OA
ATOM     17  N   UNL     1      -6.545  -3.594  -1.953  0.00  0.00    -0.312 N 
ATOM     18  H   UNL     1      -6.199  -3.716  -2.851  0.00  0.00    +0.149 HD
BRANCH  17  19
ATOM     19  C   UNL     1      -7.980  -3.733  -1.695  0.00  0.00    +0.148 C 
BRANCH  19  20
ATOM     20  C   UNL     1      -8.702  -4.071  -3.001  0.00  0.00    +0.187 C 
ATOM     21  C   UNL     1     -10.201  -4.217  -2.732  0.00  0.00    +0.053 C 
BRANCH  20  22
ATOM     22  O   UNL     1      -8.488  -3.023  -3.949  0.00  0.00    -0.488 OA
BRANCH  22  23
ATOM     23  C   UNL     1      -8.586  -3.351  -5.264  0.00  0.00    +0.121 A 
ATOM     24  C   UNL     1      -8.270  -2.415  -6.238  0.00  0.00    +0.046 A 
ATOM     25  C   UNL     1      -8.370  -2.751  -7.575  0.00  0.00    +0.007 A 
ATOM     26  C   UNL     1      -8.784  -4.018  -7.941  0.00  0.00    -0.050 A 
ATOM     27  C   UNL     1      -9.100  -4.952  -6.972  0.00  0.00    +0.007 A 
ATOM     28  C   UNL     1      -8.996  -4.623  -5.634  0.00  0.00    +0.046 A 
ATOM     29  C   UNL     1      -8.892  -4.381  -9.400  0.00  0.00    +0.044 C 
ENDBRANCH  22  23
ENDBRANCH  20  22
ENDBRANCH  19  20
ENDBRANCH  17  19
ENDBRANCH   5  15
BRANCH   1  30
ATOM     30  C   UNL     1      -1.135  -0.390   0.040  0.00  0.00    +0.072 C 
ATOM     31  C   UNL     1      -1.031  -0.014  -1.440  0.00  0.00    +0.017 C 
BRANCH  30  33
ATOM     32  C   UNL     1      -0.020   1.725   0.765  0.00  0.00    +0.004 C 
ATOM     33  C   UNL     1       0.055   0.197   0.801  0.00  0.00    +0.009 C 
ENDBRANCH  30  33
ENDBRANCH   1  30
TORSDOF 7
