REMARK  Name = ZINC65292079
REMARK  6 active torsions:
REMARK  status: ('A' for Active; 'I' for Inactive)
REMARK    1  A    between atoms: C_1  and  C_2
REMARK    2  A    between atoms: C_2  and  C_3
REMARK    3  A    between atoms: C_3  and  N_12
REMARK    4  A    between atoms: N_10  and  C_11
REMARK    5  A    between atoms: N_20  and  C_21
REMARK    6  A    between atoms: C_26  and  C_27
REMARK                            x       y       z     vdW  Elec       q    Type
REMARK                         _______ _______ _______ _____ _____    ______ ____
ROOT
ATOM      1  N   UNL     1       0.189  -1.627  -1.328  0.00  0.00    -0.292 NA
ATOM      2  C   UNL     1       0.725  -1.668  -2.696  0.00  0.00    +0.104 C 
ATOM      3  C   UNL     1       1.304  -3.059  -2.973  0.00  0.00    +0.124 C 
ATOM      4  N   UNL     1       0.270  -4.063  -2.679  0.00  0.00    -0.283 N 
ATOM      5  C   UNL     1      -0.410  -4.001  -1.377  0.00  0.00    +0.124 C 
ATOM      6  C   UNL     1      -0.922  -2.573  -1.163  0.00  0.00    +0.104 C 
ATOM      7  C   UNL     1      -0.045  -5.015  -3.580  0.00  0.00    +0.307 C 
ATOM      8  O   UNL     1       0.591  -5.109  -4.612  0.00  0.00    -0.252 OA
ATOM      9  N   UNL     1      -1.065  -5.862  -3.337  0.00  0.00    -0.269 N 
ATOM     10  H   UNL     1      -1.526  -5.833  -2.484  0.00  0.00    +0.156 HD
ENDROOT
BRANCH   1  11
ATOM     11  C   UNL     1      -0.220  -0.264  -0.963  0.00  0.00    +0.039 C 
ATOM     12  C   UNL     1       0.949   0.725  -1.177  0.00  0.00    +0.043 C 
ATOM     13  C   UNL     1       0.641   1.324  -2.573  0.00  0.00    +0.111 C 
ATOM     14  N   UNL     1      -0.836   1.440  -2.575  0.00  0.00    -0.284 N 
ATOM     15  C   UNL     1      -1.338   0.228  -1.901  0.00  0.00    +0.131 C 
ATOM     16  C   UNL     1      -1.571   2.447  -3.086  0.00  0.00    +0.302 C 
ATOM     17  O   UNL     1      -2.784   2.411  -3.016  0.00  0.00    -0.253 OA
ATOM     18  N   UNL     1      -0.960   3.495  -3.675  0.00  0.00    -0.302 N 
ATOM     19  C   UNL     1      -1.759   4.590  -4.231  0.00  0.00    +0.129 C 
ATOM     20  H   UNL     1       0.008   3.524  -3.730  0.00  0.00    +0.150 HD
BRANCH  11  22
ATOM     21  C   UNL     1       0.384  -0.836   1.393  0.00  0.00    +0.006 C 
ATOM     22  C   UNL     1      -0.691  -0.224   0.492  0.00  0.00    +0.020 C 
ENDBRANCH  11  22
ENDBRANCH   1  11
BRANCH   9  23
ATOM     23  C   UNL     1      -1.458  -6.782  -4.315  0.00  0.00    +0.038 A 
ATOM     24  C   UNL     1      -0.531  -7.266  -5.229  0.00  0.00    +0.025 A 
ATOM     25  C   UNL     1      -0.922  -8.174  -6.192  0.00  0.00    +0.022 A 
ATOM     26  C   UNL     1      -2.237  -8.603  -6.248  0.00  0.00    +0.041 A 
ATOM     27  C   UNL     1      -3.163  -8.123  -5.339  0.00  0.00    +0.025 A 
ATOM     28  C   UNL     1      -2.775  -7.219  -4.369  0.00  0.00    -0.028 A 
ATOM     29  C   UNL     1      -3.783  -6.702  -3.375  0.00  0.00    +0.046 C 
ATOM     30 CL   UNL     1      -2.725  -9.745  -7.461  0.00  0.00    -0.084 Cl
ENDBRANCH   9  23
TORSDOF 3
