REMARK  Name = ZINC14163250
REMARK  4 active torsions:
REMARK  status: ('A' for Active; 'I' for Inactive)
REMARK    1  A    between atoms: C_4  and  N_7
REMARK    2  A    between atoms: C_8  and  O_28
REMARK    3  A    between atoms: C_15  and  C_26
REMARK    4  A    between atoms: C_17  and  C_19
REMARK                            x       y       z     vdW  Elec       q    Type
REMARK                         _______ _______ _______ _____ _____    ______ ____
ROOT
ATOM      1  N   UNL     1       4.169   1.650  -3.221  0.00  0.00    -0.199 N 
ATOM      2  C   UNL     1       3.287   0.924  -2.475  0.00  0.00    +0.221 A 
ATOM      3  C   UNL     1       3.282   1.448  -1.235  0.00  0.00    +0.065 A 
ATOM      4  C   UNL     1       4.199   2.526  -1.211  0.00  0.00    +0.155 A 
ATOM      5  N   UNL     1       4.713   2.650  -2.398  0.00  0.00    -0.148 NA
ATOM      6  N   UNL     1       4.412   3.269  -0.040  0.00  0.00    -0.268 N 
ATOM      7  C   UNL     1       3.896   2.793   1.112  0.00  0.00    +0.236 C 
ATOM      8  O   UNL     1       3.910   3.505   2.094  0.00  0.00    -0.274 OA
ATOM      9  C   UNL     1       3.304   1.418   1.228  0.00  0.00    +0.189 C 
ATOM     10  C   UNL     1       2.490   1.048  -0.016  0.00  0.00    +0.083 C 
ATOM     11  H   UNL     1       4.914   4.098  -0.059  0.00  0.00    +0.156 HD
ENDROOT
BRANCH  10  12
ATOM     12  C   UNL     1       1.175   1.783   0.000  0.00  0.00    -0.037 A 
ATOM     13  C   UNL     1       1.156   3.166   0.008  0.00  0.00    +0.004 A 
ATOM     14  C   UNL     1      -0.050   3.841   0.023  0.00  0.00    +0.001 A 
ATOM     15  C   UNL     1      -1.238   3.134   0.030  0.00  0.00    +0.015 A 
ATOM     16  C   UNL     1      -1.220   1.751   0.017  0.00  0.00    +0.018 A 
ATOM     17  C   UNL     1      -0.013   1.076   0.008  0.00  0.00    +0.019 A 
ATOM     18 BR   UNL     1      -2.845   0.784   0.021  0.00  0.00    -0.050 Br
ENDBRANCH  10  12
BRANCH   1  22
ATOM     19  C   UNL     1       5.085   1.014  -7.237  0.00  0.00    +0.000 A 
ATOM     20  C   UNL     1       5.054   2.300  -6.732  0.00  0.00    +0.002 A 
ATOM     21  C   UNL     1       4.751   2.515  -5.401  0.00  0.00    +0.028 A 
ATOM     22  C   UNL     1       4.477   1.436  -4.571  0.00  0.00    +0.069 A 
ATOM     23  C   UNL     1       4.515   0.145  -5.080  0.00  0.00    +0.028 A 
ATOM     24  C   UNL     1       4.813  -0.063  -6.412  0.00  0.00    +0.002 A 
ENDBRANCH   1  22
BRANCH   9  25
ATOM     25  C   UNL     1       4.391   0.441   1.399  0.00  0.00    +0.076 C 
ATOM     26  N   UNL     1       5.231  -0.314   1.531  0.00  0.00    -0.196 NA
ENDBRANCH   9  25
BRANCH   2  27
ATOM     27  O   UNL     1       2.551  -0.133  -2.904  0.00  0.00    -0.492 OA
ATOM     28  H   UNL     1       2.989  -0.988  -2.794  0.00  0.00    +0.294 HD
ENDBRANCH   2  27
TORSDOF 4
