REMARK  Name = ZINC20475260
REMARK  4 active torsions:
REMARK  status: ('A' for Active; 'I' for Inactive)
REMARK    1  A    between atoms: N_10  and  C_13
REMARK    2  A    between atoms: C_13  and  C_15
REMARK    3  A    between atoms: C_13  and  C_17
REMARK    4  A    between atoms: C_15  and  N_16
REMARK                            x       y       z     vdW  Elec       q    Type
REMARK                         _______ _______ _______ _____ _____    ______ ____
ROOT
ATOM      1  C   UNL     1       0.043   1.618   0.498  0.00  0.00    +0.005 A 
ATOM      2  C   UNL     1       1.341   1.187   0.735  0.00  0.00    +0.018 A 
ATOM      3  C   UNL     1       2.357   2.117   0.823  0.00  0.00    +0.084 A 
ATOM      4  N   UNL     1       2.108   3.406   0.691  0.00  0.00    -0.350 N 
ATOM      5  C   UNL     1       0.883   3.857   0.469  0.00  0.00    +0.099 A 
ATOM      6  C   UNL     1      -0.189   2.976   0.368  0.00  0.00    +0.042 A 
ATOM      7  N   UNL     1       0.666   5.224   0.337  0.00  0.00    -0.314 N 
ATOM      8  C   UNL     1       0.012   5.531  -0.943  0.00  0.00    +0.122 C 
ATOM      9  C   UNL     1      -0.281   7.032  -1.015  0.00  0.00    +0.104 C 
ATOM     10  N   UNL     1       0.976   7.781  -0.876  0.00  0.00    -0.294 NA
ATOM     11  C   UNL     1       1.630   7.473   0.404  0.00  0.00    +0.104 C 
ATOM     12  C   UNL     1       1.923   5.973   0.476  0.00  0.00    +0.122 C 
ATOM     13  H   UNL     1       2.929   4.135   0.764  0.00  0.00    +0.166 HD
ENDROOT
BRANCH  10  14
ATOM     14  C   UNL     1       0.746   9.225  -1.016  0.00  0.00    +0.076 C 
BRANCH  14  15
ATOM     15  C   UNL     1       0.036   9.742   0.209  0.00  0.00    +0.006 A 
ATOM     16  C   UNL     1       0.327  10.825   0.970  0.00  0.00    +0.028 A 
ATOM     17  C   UNL     1      -0.475  11.113   2.059  0.00  0.00    +0.025 A 
ATOM     18  C   UNL     1      -1.522  10.298   2.339  0.00  0.00    +0.060 A 
ATOM     19  S   UNL     1      -1.401   9.082   1.037  0.00  0.00    -0.099 S 
ATOM     20 BR   UNL     1      -0.112  12.617   3.147  0.00  0.00    -0.050 Br
ENDBRANCH  14  15
BRANCH  14  21
ATOM     21  C   UNL     1      -0.115   9.487  -2.253  0.00  0.00    -0.062 C 
BRANCH  21  22
ATOM     22  N   UNL     1       0.520   8.878  -3.430  0.00  0.00    +0.379 N 
ATOM     23  H   UNL     1      -0.099   9.066  -4.319  0.00  0.00    -0.090 HD
ATOM     24  H   UNL     1       0.618   7.793  -3.273  0.00  0.00    -0.090 HD
ATOM     25  H   UNL     1       1.518   9.318  -3.577  0.00  0.00    -0.090 HD
ENDBRANCH  21  22
ENDBRANCH  14  21
ENDBRANCH  10  14
TORSDOF 4
