REMARK  Name = ZINC00495801
REMARK  5 active torsions:
REMARK  status: ('A' for Active; 'I' for Inactive)
REMARK    1  A    between atoms: C_1  and  C_2
REMARK    2  A    between atoms: C_2  and  C_8
REMARK    3  A    between atoms: N_3  and  N_4
REMARK    4  A    between atoms: N_4  and  C_5
REMARK    5  A    between atoms: C_5  and  N_7
REMARK                            x       y       z     vdW  Elec       q    Type
REMARK                         _______ _______ _______ _____ _____    ______ ____
ROOT
ATOM      1  C   UNL     1      -1.687   6.944   0.278  0.00  0.00    +0.082 A 
ATOM      2  C   UNL     1      -2.123   5.628   0.245  0.00  0.00    +0.029 A 
ATOM      3  C   UNL     1      -1.172   4.596   0.383  0.00  0.00    +0.026 A 
ATOM      4  C   UNL     1      -1.588   3.191   0.355  0.00  0.00    -0.007 A 
ATOM      5  C   UNL     1      -2.927   2.828   0.191  0.00  0.00    +0.009 A 
ATOM      6  C   UNL     1      -3.270   1.508   0.163  0.00  0.00    +0.001 A 
ATOM      7  C   UNL     1      -2.304   0.517   0.308  0.00  0.00    +0.001 A 
ATOM      8  C   UNL     1      -0.989   0.838   0.471  0.00  0.00    +0.008 A 
ATOM      9  C   UNL     1      -0.602   2.187   0.498  0.00  0.00    -0.017 A 
ATOM     10  C   UNL     1       0.747   2.558   0.663  0.00  0.00    +0.012 A 
ATOM     11  C   UNL     1       1.117   3.862   0.688  0.00  0.00    +0.047 A 
ATOM     12  C   UNL     1       0.185   4.898   0.551  0.00  0.00    +0.140 A 
ATOM     13  O   UNL     1       0.605   6.181   0.582  0.00  0.00    -0.422 OA
ATOM     14  C   UNL     1      -0.254   7.205   0.455  0.00  0.00    +0.346 A 
ATOM     15  O   UNL     1       0.156   8.350   0.487  0.00  0.00    -0.244 OA
ENDROOT
BRANCH   1  17
ATOM     16  C   UNL     1      -2.874   8.997   1.291  0.00  0.00    +0.068 C 
ATOM     17  C   UNL     1      -2.641   8.054   0.138  0.00  0.00    +0.070 C 
ATOM     18  N   UNL     1      -3.283   8.223  -0.979  0.00  0.00    -0.185 NA
BRANCH  18  19
ATOM     19  N   UNL     1      -2.982   7.422  -2.088  0.00  0.00    -0.218 N 
ATOM     20  H   UNL     1      -2.244   6.793  -2.046  0.00  0.00    +0.176 HD
BRANCH  19  21
ATOM     21  C   UNL     1      -3.716   7.524  -3.213  0.00  0.00    +0.147 C 
ATOM     22  S   UNL     1      -3.348   6.545  -4.568  0.00  0.00    -0.017 S 
BRANCH  21  23
ATOM     23  N   UNL     1      -4.741   8.397  -3.271  0.00  0.00    -0.339 N 
ATOM     24  H   UNL     1      -4.950   8.952  -2.504  0.00  0.00    +0.144 HD
ATOM     25  H   UNL     1      -5.270   8.471  -4.081  0.00  0.00    +0.144 HD
ENDBRANCH  21  23
ENDBRANCH  19  21
ENDBRANCH  18  19
ENDBRANCH   1  17
TORSDOF 4
