REMARK  Name = ZINC66972169
REMARK  11 active torsions:
REMARK  status: ('A' for Active; 'I' for Inactive)
REMARK    1  A    between atoms: C_1  and  C_2
REMARK    2  A    between atoms: C_2  and  C_3
REMARK    3  A    between atoms: C_2  and  C_4
REMARK    4  A    between atoms: C_2  and  C_5
REMARK    5  A    between atoms: C_5  and  C_7
REMARK    6  A    between atoms: C_5  and  N_13
REMARK    7  A    between atoms: N_13  and  C_14
REMARK    8  A    between atoms: C_14  and  C_15
REMARK    9  A    between atoms: C_18  and  N_21
REMARK   10  A    between atoms: N_21  and  S_22
REMARK   11  A    between atoms: S_22  and  C_25
REMARK                            x       y       z     vdW  Elec       q    Type
REMARK                         _______ _______ _______ _____ _____    ______ ____
ROOT
ATOM      1  N   UNL     1       0.008   0.054  -2.438  0.00  0.00    +0.387 N 
ATOM      2  H   UNL     1      -0.990  -0.067  -2.356  0.00  0.00    -0.085 HD
ATOM      3  H   UNL     1       0.224   1.038  -2.494  0.00  0.00    -0.085 HD
ENDROOT
BRANCH   1   4
ATOM      4  C   UNL     1       0.670  -0.527  -1.262  0.00  0.00    -0.035 C 
BRANCH   4   5
ATOM      5  C   UNL     1       2.145  -0.222  -1.314  0.00  0.00    -0.061 A 
ATOM      6  C   UNL     1       2.579   1.022  -1.732  0.00  0.00    +0.002 A 
ATOM      7  C   UNL     1       3.932   1.301  -1.780  0.00  0.00    +0.000 A 
ATOM      8  C   UNL     1       4.851   0.337  -1.409  0.00  0.00    +0.000 A 
ATOM      9  C   UNL     1       4.416  -0.906  -0.990  0.00  0.00    +0.000 A 
ATOM     10  C   UNL     1       3.063  -1.184  -0.938  0.00  0.00    +0.002 A 
ENDBRANCH   4   5
BRANCH   4  12
ATOM     11  C   UNL     1       0.155   1.601  -0.058  0.00  0.00    +0.009 C 
ATOM     12  C   UNL     1       0.069   0.075   0.010  0.00  0.00    -0.046 C 
ATOM     13  C   UNL     1       0.848  -0.425   1.228  0.00  0.00    +0.009 C 
ATOM     14  C   UNL     1      -1.396  -0.349   0.133  0.00  0.00    +0.009 C 
ENDBRANCH   4  12
ENDBRANCH   1   4
BRANCH   1  15
ATOM     15  C   UNL     1       0.485  -0.622  -3.652  0.00  0.00    -0.046 C 
BRANCH  15  16
ATOM     16  C   UNL     1      -0.283  -0.114  -4.844  0.00  0.00    -0.064 A 
ATOM     17  C   UNL     1      -1.455  -0.740  -5.228  0.00  0.00    +0.003 A 
ATOM     18  C   UNL     1      -2.162  -0.277  -6.321  0.00  0.00    +0.027 A 
ATOM     19  C   UNL     1      -1.694   0.819  -7.035  0.00  0.00    +0.074 A 
ATOM     20  C   UNL     1      -0.516   1.445  -6.646  0.00  0.00    +0.027 A 
ATOM     21  C   UNL     1       0.182   0.980  -5.550  0.00  0.00    +0.003 A 
BRANCH  19  22
ATOM     22  N   UNL     1      -2.405   1.289  -8.140  0.00  0.00    -0.103 NA
BRANCH  22  23
ATOM     23  S   UNL     1      -1.846   2.596  -8.990  0.00  0.00    +0.059 S 
ATOM     24  O   UNL     1      -1.895   3.676  -8.068  0.00  0.00    -0.154 OA
ATOM     25  O   UNL     1      -0.607   2.168  -9.539  0.00  0.00    -0.154 OA
ATOM     26  C   UNL     1      -3.062   2.847 -10.313  0.00  0.00    +0.220 C 
ENDBRANCH  22  23
ENDBRANCH  19  22
ENDBRANCH  15  16
ENDBRANCH   1  15
TORSDOF 7
