REMARK  Name = ZINC21719867
REMARK  8 active torsions:
REMARK  status: ('A' for Active; 'I' for Inactive)
REMARK    1  A    between atoms: C_1  and  C_2
REMARK    2  A    between atoms: C_2  and  C_3
REMARK    3  A    between atoms: C_3  and  C_4
REMARK    4  A    between atoms: C_6  and  C_9
REMARK    5  A    between atoms: N_14  and  C_15
REMARK    6  A    between atoms: C_15  and  C_16
REMARK    7  A    between atoms: C_19  and  O_23
REMARK    8  A    between atoms: O_23  and  C_24
REMARK                            x       y       z     vdW  Elec       q    Type
REMARK                         _______ _______ _______ _____ _____    ______ ____
ROOT
ATOM      1  C   UNL     1      -2.828   3.351   1.474  0.00  0.00    -0.015 C 
ATOM      2  C   UNL     1      -4.027   2.697   2.192  0.00  0.00    -0.011 C 
ATOM      3  C   UNL     1      -3.368   1.546   2.995  0.00  0.00    -0.020 C 
ATOM      4  C   UNL     1      -2.244   1.093   2.029  0.00  0.00    -0.077 C 
ATOM      5  N   UNL     1      -1.755   2.343   1.408  0.00  0.00    +0.388 N 
ATOM      6  H   UNL     1      -0.871   2.708   1.951  0.00  0.00    -0.080 HD
ENDROOT
BRANCH   1   9
ATOM      7  C   UNL     1      -3.935   4.892  -1.649  0.00  0.00    +0.137 A 
ATOM      8  C   UNL     1      -3.737   5.024  -0.315  0.00  0.00    +0.069 A 
ATOM      9  C   UNL     1      -3.228   3.765   0.081  0.00  0.00    +0.070 A 
ATOM     10  N   UNL     1      -3.180   3.034  -0.994  0.00  0.00    -0.085 NA
ATOM     11  O   UNL     1      -3.568   3.642  -1.965  0.00  0.00    -0.359 OA
BRANCH   7  12
ATOM     12  C   UNL     1      -4.468   5.941  -2.590  0.00  0.00    +0.077 C 
BRANCH  12  14
ATOM     13  C   UNL     1      -3.845   7.819  -4.115  0.00  0.00    +0.004 C 
ATOM     14  C   UNL     1      -3.304   6.754  -3.160  0.00  0.00    +0.004 C 
ENDBRANCH  12  14
ENDBRANCH   7  12
ENDBRANCH   1   9
BRANCH   5  15
ATOM     15  C   UNL     1      -1.335   2.111   0.020  0.00  0.00    -0.042 C 
BRANCH  15  16
ATOM     16  C   UNL     1      -0.012   1.389   0.009  0.00  0.00    -0.063 A 
ATOM     17  C   UNL     1       0.020   0.006   0.007  0.00  0.00    +0.005 A 
ATOM     18  C   UNL     1       1.231  -0.658  -0.009  0.00  0.00    +0.047 A 
ATOM     19  C   UNL     1       2.416   0.062  -0.021  0.00  0.00    +0.134 A 
ATOM     20  C   UNL     1       2.382   1.450  -0.019  0.00  0.00    +0.060 A 
ATOM     21  C   UNL     1       1.167   2.110  -0.003  0.00  0.00    +0.020 A 
ATOM     22 BR   UNL     1       3.995   2.436  -0.035  0.00  0.00    -0.047 Br
BRANCH  19  23
ATOM     23  O   UNL     1       3.609  -0.589  -0.037  0.00  0.00    -0.494 OA
ATOM     24  C   UNL     1       3.568  -2.018  -0.039  0.00  0.00    +0.277 C 
ENDBRANCH  19  23
ENDBRANCH  15  16
ENDBRANCH   5  15
TORSDOF 6
