REMARK  Name = ZINC35621689
REMARK  10 active torsions:
REMARK  status: ('A' for Active; 'I' for Inactive)
REMARK    1  A    between atoms: C_1  and  C_2
REMARK    2  A    between atoms: C_2  and  C_3
REMARK    3  A    between atoms: C_4  and  C_13
REMARK    4  A    between atoms: C_5  and  O_12
REMARK    5  A    between atoms: N_6  and  C_8
REMARK    6  A    between atoms: C_8  and  C_9
REMARK    7  A    between atoms: C_8  and  C_10
REMARK    8  A    between atoms: C_8  and  C_11
REMARK    9  A    between atoms: C_14  and  N_26
REMARK   10  A    between atoms: N_17  and  C_20
REMARK                            x       y       z     vdW  Elec       q    Type
REMARK                         _______ _______ _______ _____ _____    ______ ____
ROOT
ATOM      1  C   UNL     1      -1.359  -0.588  -2.705  0.00  0.00    +0.077 C 
ATOM      2  C   UNL     1      -1.960   0.488  -3.302  0.00  0.00    +0.106 C 
ATOM      3  C   UNL     1      -3.356   0.092  -3.570  0.00  0.00    +0.268 C 
ATOM      4  O   UNL     1      -4.203   0.787  -4.094  0.00  0.00    -0.268 OA
ATOM      5  N   UNL     1      -3.535  -1.168  -3.136  0.00  0.00    -0.230 N 
ATOM      6  C   UNL     1      -2.390  -1.643  -2.614  0.00  0.00    +0.256 C 
ATOM      7  O   UNL     1      -2.231  -2.752  -2.144  0.00  0.00    -0.269 OA
ENDROOT
BRANCH   5   8
ATOM      8  C   UNL     1      -4.791  -1.916  -3.224  0.00  0.00    +0.085 C 
ATOM      9  C   UNL     1      -5.250  -2.310  -1.819  0.00  0.00    +0.023 C 
ATOM     10  C   UNL     1      -6.562  -3.091  -1.911  0.00  0.00    +0.002 C 
ATOM     11  C   UNL     1      -6.347  -4.353  -2.750  0.00  0.00    +0.000 C 
ATOM     12  C   UNL     1      -5.888  -3.959  -4.155  0.00  0.00    +0.002 C 
ATOM     13  C   UNL     1      -4.576  -3.178  -4.063  0.00  0.00    +0.023 C 
ENDBRANCH   5   8
BRANCH   2  14
ATOM     14  N   UNL     1      -1.372   1.711  -3.598  0.00  0.00    -0.325 N 
ATOM     15  C   UNL     1      -0.227   1.788  -4.516  0.00  0.00    +0.105 C 
ATOM     16  C   UNL     1      -0.547   2.802  -5.619  0.00  0.00    +0.019 C 
ATOM     17  C   UNL     1      -0.933   4.138  -4.981  0.00  0.00    +0.003 C 
ATOM     18  C   UNL     1      -2.183   3.952  -4.119  0.00  0.00    +0.019 C 
ATOM     19  C   UNL     1      -1.886   2.952  -3.004  0.00  0.00    +0.105 C 
ENDBRANCH   2  14
BRANCH   1  21
ATOM     20  C   UNL     1       0.530  -0.339  -0.968  0.00  0.00    +0.074 A 
ATOM     21  C   UNL     1       0.042  -0.677  -2.248  0.00  0.00    +0.073 A 
ATOM     22  C   UNL     1       1.127  -1.111  -2.998  0.00  0.00    +0.220 A 
ATOM     23  N   UNL     1       2.216  -1.036  -2.203  0.00  0.00    -0.227 N 
ATOM     24  N   UNL     1       1.818  -0.550  -0.953  0.00  0.00    -0.172 NA
BRANCH  23  25
ATOM     25  C   UNL     1       3.583  -1.399  -2.587  0.00  0.00    +0.059 C 
ATOM     26  C   UNL     1       4.028  -0.532  -3.766  0.00  0.00    +0.036 C 
ATOM     27  C   UNL     1       4.522  -1.169  -1.401  0.00  0.00    +0.036 C 
ATOM     28  C   UNL     1       3.625  -2.873  -2.993  0.00  0.00    +0.036 C 
ENDBRANCH  23  25
BRANCH  20  30
ATOM     29  C   UNL     1      -0.345   1.710   0.121  0.00  0.00    +0.010 C 
ATOM     30  C   UNL     1      -0.293   0.182   0.182  0.00  0.00    +0.054 C 
ENDBRANCH  20  30
BRANCH  22  31
ATOM     31  O   UNL     1       1.098  -1.531  -4.286  0.00  0.00    -0.492 OA
ATOM     32  H   UNL     1       1.233  -0.824  -4.933  0.00  0.00    +0.294 HD
ENDBRANCH  22  31
ENDBRANCH   1  21
TORSDOF 6
