REMARK  Name = ZINC22347324
REMARK  14 active torsions:
REMARK  status: ('A' for Active; 'I' for Inactive)
REMARK    1  A    between atoms: C_1  and  C_2
REMARK    2  A    between atoms: C_2  and  C_3
REMARK    3  A    between atoms: N_9  and  C_10
REMARK    4  A    between atoms: C_10  and  C_11
REMARK    5  A    between atoms: C_11  and  C_12
REMARK    6  A    between atoms: C_12  and  N_13
REMARK    7  A    between atoms: C_14  and  C_16
REMARK    8  A    between atoms: C_16  and  N_17
REMARK    9  A    between atoms: N_17  and  C_18
REMARK   10  A    between atoms: N_17  and  S_26
REMARK   11  A    between atoms: C_22  and  C_25
REMARK   12  A    between atoms: C_23  and  C_24
REMARK   13  A    between atoms: S_26  and  C_29
REMARK   14  A    between atoms: C_32  and  C_35
REMARK                            x       y       z     vdW  Elec       q    Type
REMARK                         _______ _______ _______ _____ _____    ______ ____
ROOT
ATOM      1  N   UNL     1       1.351  -2.802  -1.664  0.00  0.00    -0.194 N 
ENDROOT
BRANCH   1   2
ATOM      2  C   UNL     1       2.553  -2.969  -2.355  0.00  0.00    +0.055 A 
ATOM      3  C   UNL     1       3.054  -1.938  -3.140  0.00  0.00    +0.025 A 
ATOM      4  C   UNL     1       4.245  -2.104  -3.818  0.00  0.00    +0.002 A 
ATOM      5  C   UNL     1       4.934  -3.300  -3.726  0.00  0.00    +0.004 A 
ATOM      6  C   UNL     1       4.435  -4.331  -2.950  0.00  0.00    -0.046 A 
ATOM      7  C   UNL     1       3.247  -4.168  -2.265  0.00  0.00    -0.025 A 
ATOM      8  C   UNL     1       2.705  -5.292  -1.419  0.00  0.00    +0.046 C 
ATOM      9  C   UNL     1       5.189  -5.632  -2.853  0.00  0.00    +0.044 C 
ENDBRANCH   1   2
BRANCH   1  10
ATOM     10  S   UNL     1       1.367  -2.317  -0.080  0.00  0.00    +0.075 S 
ATOM     11  O   UNL     1       2.635  -2.687   0.445  0.00  0.00    -0.150 OA
ATOM     12  O   UNL     1       0.146  -2.763   0.494  0.00  0.00    -0.150 OA
BRANCH  10  13
ATOM     13  C   UNL     1       1.313  -0.556  -0.073  0.00  0.00    +0.109 A 
ATOM     14  C   UNL     1       0.096   0.098  -0.047  0.00  0.00    +0.029 A 
ATOM     15  C   UNL     1       0.054   1.480  -0.041  0.00  0.00    +0.005 A 
ATOM     16  C   UNL     1       1.229   2.207  -0.060  0.00  0.00    -0.050 A 
ATOM     17  C   UNL     1       2.447   1.553  -0.088  0.00  0.00    +0.005 A 
ATOM     18  C   UNL     1       2.489   0.171  -0.093  0.00  0.00    +0.029 A 
ATOM     19  C   UNL     1       1.183   3.713  -0.054  0.00  0.00    +0.044 C 
ENDBRANCH  10  13
ENDBRANCH   1  10
BRANCH   1  20
ATOM     20  C   UNL     1       0.076  -3.055  -2.339  0.00  0.00    +0.227 C 
BRANCH  20  22
ATOM     21  N   UNL     1      -1.502  -1.817  -3.788  0.00  0.00    -0.314 N 
ATOM     22  C   UNL     1      -0.350  -1.818  -3.088  0.00  0.00    +0.232 C 
ATOM     23  O   UNL     1       0.343  -0.823  -3.060  0.00  0.00    -0.274 OA
ATOM     24  H   UNL     1      -2.130  -2.719  -3.814  0.00  0.00    +0.149 HD
BRANCH  21  25
ATOM     25  C   UNL     1      -1.915  -0.615  -4.516  0.00  0.00    +0.102 C 
BRANCH  25  26
ATOM     26  C   UNL     1      -3.247  -0.879  -5.221  0.00  0.00    +0.000 C 
BRANCH  26  27
ATOM     27  C   UNL     1      -3.680   0.376  -5.981  0.00  0.00    -0.077 C 
BRANCH  27  33
ATOM     28  C   UNL     1      -5.579   1.379  -7.098  0.00  0.00    -0.069 C 
ATOM     29  C   UNL     1      -6.970   1.090  -7.667  0.00  0.00    -0.015 C 
ATOM     30  C   UNL     1      -6.843   0.121  -8.846  0.00  0.00    -0.003 C 
ATOM     31  C   UNL     1      -6.151  -1.159  -8.372  0.00  0.00    -0.019 C 
ATOM     32  C   UNL     1      -4.783  -0.805  -7.783  0.00  0.00    -0.078 C 
ATOM     33  N   UNL     1      -4.958   0.123  -6.659  0.00  0.00    +0.382 N 
ATOM     34  H   UNL     1      -5.638  -0.352  -5.935  0.00  0.00    -0.081 HD
BRANCH  28  36
ATOM     35  C   UNL     1      -6.486   1.646  -4.786  0.00  0.00    +0.002 C 
ATOM     36  C   UNL     1      -5.703   2.331  -5.907  0.00  0.00    -0.019 C 
ENDBRANCH  28  36
ENDBRANCH  27  33
ENDBRANCH  26  27
ENDBRANCH  25  26
ENDBRANCH  21  25
ENDBRANCH  20  22
ENDBRANCH   1  20
TORSDOF 10
