REMARK  Name = ZINC63383805
REMARK  11 active torsions:
REMARK  status: ('A' for Active; 'I' for Inactive)
REMARK    1  A    between atoms: C_1  and  C_2
REMARK    2  A    between atoms: C_2  and  C_3
REMARK    3  A    between atoms: C_3  and  C_4
REMARK    4  A    between atoms: C_4  and  N_5
REMARK    5  A    between atoms: C_6  and  C_8
REMARK    6  A    between atoms: C_8  and  C_10
REMARK    7  A    between atoms: C_8  and  N_14
REMARK    8  A    between atoms: C_10  and  C_11
REMARK    9  A    between atoms: C_11  and  C_12
REMARK   10  A    between atoms: C_11  and  C_13
REMARK   11  A    between atoms: C_15  and  C_17
REMARK                            x       y       z     vdW  Elec       q    Type
REMARK                         _______ _______ _______ _____ _____    ______ ____
ROOT
ATOM      1  C   UNL     1       2.254  -8.080  -4.832  0.00  0.00    +0.167 C 
ATOM      2  C   UNL     1       2.575  -8.719  -3.466  0.00  0.00    +0.065 C 
ATOM      3  C   UNL     1       4.069  -8.922  -3.411  0.00  0.00    -0.034 C 
ATOM      4  C   UNL     1       4.963  -8.549  -2.501  0.00  0.00    -0.001 A 
ATOM      5  C   UNL     1       4.812  -7.896  -1.191  0.00  0.00    +0.010 A 
ATOM      6  C   UNL     1       5.962  -7.636  -0.514  0.00  0.00    +0.001 A 
ATOM      7  C   UNL     1       7.232  -7.957  -1.003  0.00  0.00    +0.002 A 
ATOM      8  C   UNL     1       7.464  -8.566  -2.193  0.00  0.00    +0.026 A 
ATOM      9  C   UNL     1       6.331  -8.897  -2.993  0.00  0.00    +0.043 A 
ATOM     10  N   UNL     1       6.261  -9.491  -4.146  0.00  0.00    -0.375 N 
ATOM     11  C   UNL     1       4.850  -9.643  -4.505  0.00  0.00    +0.131 C 
ATOM     12  C   UNL     1       4.520  -8.924  -5.818  0.00  0.00    +0.134 C 
ATOM     13  N   UNL     1       3.046  -8.759  -5.866  0.00  0.00    -0.276 N 
ATOM     14  C   UNL     1       2.578  -9.339  -6.986  0.00  0.00    +0.248 C 
ATOM     15  O   UNL     1       1.419  -9.310  -7.352  0.00  0.00    -0.270 OA
ATOM     16  C   UNL     1       3.666 -10.009  -7.700  0.00  0.00    +0.042 A 
ATOM     17  C   UNL     1       4.887  -9.768  -6.994  0.00  0.00    -0.013 A 
ATOM     18  C   UNL     1       6.096 -10.272  -7.420  0.00  0.00    +0.006 A 
ATOM     19  C   UNL     1       6.088 -11.034  -8.585  0.00  0.00    +0.000 A 
ATOM     20  C   UNL     1       4.925 -11.276  -9.287  0.00  0.00    +0.001 A 
ATOM     21  C   UNL     1       3.656 -10.773  -8.870  0.00  0.00    +0.013 A 
ATOM     22  H   UNL     1       7.017  -9.784  -4.680  0.00  0.00    +0.160 HD
ENDROOT
BRANCH   1  24
ATOM     23  N   UNL     1       2.007  -5.794  -3.918  0.00  0.00    -0.302 N 
ATOM     24  C   UNL     1       2.609  -6.616  -4.802  0.00  0.00    +0.235 C 
ATOM     25  O   UNL     1       3.436  -6.176  -5.572  0.00  0.00    -0.274 OA
ATOM     26  H   UNL     1       1.400  -6.157  -3.255  0.00  0.00    +0.150 HD
BRANCH  23  27
ATOM     27  C   UNL     1       2.271  -4.354  -3.960  0.00  0.00    +0.159 C 
BRANCH  27  29
ATOM     28  N   UNL     1       2.341  -2.487  -2.339  0.00  0.00    -0.314 N 
ATOM     29  C   UNL     1       1.944  -3.744  -2.622  0.00  0.00    +0.233 C 
ATOM     30  O   UNL     1       1.325  -4.385  -1.799  0.00  0.00    -0.274 OA
ATOM     31  H   UNL     1       2.876  -1.992  -2.978  0.00  0.00    +0.149 HD
BRANCH  28  32
ATOM     32  C   UNL     1       1.962  -1.869  -1.065  0.00  0.00    +0.104 C 
BRANCH  32  33
ATOM     33  C   UNL     1       2.535  -0.452  -0.996  0.00  0.00    +0.018 C 
BRANCH  33  35
ATOM     34  C   UNL     1       2.713   1.610   0.402  0.00  0.00    +0.004 C 
ATOM     35  C   UNL     1       2.140   0.193   0.333  0.00  0.00    -0.002 C 
ENDBRANCH  33  35
ENDBRANCH  32  33
ENDBRANCH  28  32
ENDBRANCH  27  29
BRANCH  27  36
ATOM     36  C   UNL     1       1.402  -3.708  -5.041  0.00  0.00    +0.034 C 
BRANCH  36  37
ATOM     37  C   UNL     1       1.703  -2.209  -5.109  0.00  0.00    -0.015 C 
ATOM     38  C   UNL     1       3.136  -1.998  -5.601  0.00  0.00    +0.007 C 
ATOM     39  C   UNL     1       0.727  -1.536  -6.076  0.00  0.00    +0.007 C 
ENDBRANCH  36  37
ENDBRANCH  27  36
ENDBRANCH  23  27
ENDBRANCH   1  24
TORSDOF 8
