REMARK  Name = ZINC16693385
REMARK  6 active torsions:
REMARK  status: ('A' for Active; 'I' for Inactive)
REMARK    1  A    between atoms: C_1  and  O_2
REMARK    2  A    between atoms: O_2  and  C_3
REMARK    3  A    between atoms: C_6  and  C_11
REMARK    4  A    between atoms: C_8  and  O_9
REMARK    5  A    between atoms: O_9  and  C_10
REMARK    6  A    between atoms: N_17  and  C_18
REMARK                            x       y       z     vdW  Elec       q    Type
REMARK                         _______ _______ _______ _____ _____    ______ ____
ROOT
ATOM      1  C   UNL     1       1.431  -2.364  -4.912  0.00  0.00    +0.028 C 
ATOM      2  C   UNL     1       2.172  -1.647  -5.795  0.00  0.00    +0.078 C 
ATOM      3  C   UNL     1       2.970  -2.115  -6.944  0.00  0.00    +0.256 C 
ATOM      4  O   UNL     1       3.042  -3.296  -7.231  0.00  0.00    -0.269 OA
ATOM      5  N   UNL     1       3.604  -1.194  -7.650  0.00  0.00    -0.260 N 
ATOM      6  C   UNL     1       3.510   0.139  -7.310  0.00  0.00    +0.166 C 
ATOM      7  N   UNL     1       4.069   1.173  -7.896  0.00  0.00    -0.224 NA
ATOM      8  S   UNL     1       2.437   0.118  -5.883  0.00  0.00    -0.049 S 
ATOM      9  H   UNL     1       4.140  -1.458  -8.414  0.00  0.00    +0.157 HD
ENDROOT
BRANCH   7  10
ATOM     10  C   UNL     1       3.930   2.423  -7.357  0.00  0.00    +0.085 A 
ATOM     11  C   UNL     1       4.177   2.633  -5.998  0.00  0.00    +0.029 A 
ATOM     12  C   UNL     1       4.035   3.895  -5.462  0.00  0.00    +0.002 A 
ATOM     13  C   UNL     1       3.650   4.954  -6.266  0.00  0.00    +0.002 A 
ATOM     14  C   UNL     1       3.405   4.755  -7.613  0.00  0.00    +0.022 A 
ATOM     15  C   UNL     1       3.547   3.498  -8.165  0.00  0.00    +0.066 A 
ATOM     16 CL   UNL     1       3.245   3.251  -9.856  0.00  0.00    -0.081 Cl
ENDBRANCH   7  10
BRANCH   1  20
ATOM     17  C   UNL     1      -1.045  -0.361  -2.108  0.00  0.00    +0.162 A 
ATOM     18  C   UNL     1      -0.570   0.318  -3.223  0.00  0.00    +0.050 A 
ATOM     19  C   UNL     1       0.234  -0.329  -4.136  0.00  0.00    +0.012 A 
ATOM     20  C   UNL     1       0.575  -1.673  -3.941  0.00  0.00    -0.020 A 
ATOM     21  C   UNL     1       0.095  -2.355  -2.816  0.00  0.00    +0.057 A 
ATOM     22  C   UNL     1      -0.706  -1.698  -1.904  0.00  0.00    +0.162 A 
BRANCH  17  24
ATOM     23  C   UNL     1      -2.146   1.651  -1.483  0.00  0.00    +0.277 C 
ATOM     24  O   UNL     1      -1.838   0.282  -1.212  0.00  0.00    -0.491 OA
ENDBRANCH  17  24
BRANCH  22  25
ATOM     25  O   UNL     1      -1.170  -2.356  -0.807  0.00  0.00    -0.491 OA
ATOM     26  C   UNL     1      -0.783  -3.724  -0.661  0.00  0.00    +0.277 C 
ENDBRANCH  22  25
ENDBRANCH   1  20
TORSDOF 4
