REMARK  Name = ZINC40903701
REMARK  15 active torsions:
REMARK  status: ('A' for Active; 'I' for Inactive)
REMARK    1  A    between atoms: C_1  and  C_2
REMARK    2  A    between atoms: C_2  and  C_3
REMARK    3  A    between atoms: C_3  and  C_4
REMARK    4  A    between atoms: C_6  and  C_9
REMARK    5  A    between atoms: C_12  and  N_16
REMARK    6  A    between atoms: C_19  and  C_22
REMARK    7  A    between atoms: N_24  and  C_25
REMARK    8  A    between atoms: C_25  and  C_26
REMARK    9  A    between atoms: C_26  and  C_27
REMARK   10  A    between atoms: C_30  and  O_36
REMARK   11  A    between atoms: C_31  and  O_33
REMARK   12  A    between atoms: O_33  and  C_34
REMARK   13  A    between atoms: C_34  and  C_35
REMARK   14  A    between atoms: O_36  and  C_37
REMARK   15  A    between atoms: C_37  and  C_38
REMARK                            x       y       z     vdW  Elec       q    Type
REMARK                         _______ _______ _______ _____ _____    ______ ____
ROOT
ATOM      1  N   UNL     1       4.494  -8.427  -0.930  0.00  0.00    -0.328 N 
ATOM      2  C   UNL     1       4.276  -8.999  -2.266  0.00  0.00    +0.106 C 
ATOM      3  C   UNL     1       4.045 -10.507  -2.124  0.00  0.00    +0.031 C 
ATOM      4  C   UNL     1       5.215 -11.128  -1.358  0.00  0.00    +0.078 C 
ATOM      5  C   UNL     1       5.291 -10.517   0.043  0.00  0.00    +0.031 C 
ATOM      6  C   UNL     1       5.539  -9.006  -0.075  0.00  0.00    +0.106 C 
ENDROOT
BRANCH   1  10
ATOM      7  C   UNL     1       2.203  -5.209   0.400  0.00  0.00    +0.025 A 
ATOM      8  C   UNL     1       3.393  -4.982  -0.289  0.00  0.00    +0.013 A 
ATOM      9  C   UNL     1       4.150  -6.048  -0.728  0.00  0.00    +0.027 A 
ATOM     10  C   UNL     1       3.727  -7.349  -0.484  0.00  0.00    +0.065 A 
ATOM     11  C   UNL     1       2.538  -7.579   0.204  0.00  0.00    +0.145 A 
ATOM     12  C   UNL     1       1.781  -6.515   0.649  0.00  0.00    +0.052 A 
ATOM     13  F   UNL     1       2.128  -8.845   0.439  0.00  0.00    -0.204 F 
BRANCH   7  16
ATOM     14  C   UNL     1       0.762  -2.018   1.233  0.00  0.00    +0.228 A 
ATOM     15  N   UNL     1       1.686  -2.763   0.696  0.00  0.00    -0.191 NA
ATOM     16  C   UNL     1       1.388  -4.063   0.873  0.00  0.00    +0.202 A 
ATOM     17  N   UNL     1       0.259  -4.149   1.532  0.00  0.00    -0.056 NA
ATOM     18  O   UNL     1      -0.163  -2.816   1.782  0.00  0.00    -0.338 OA
BRANCH  14  19
ATOM     19  C   UNL     1       0.742  -0.511   1.242  0.00  0.00    +0.098 C 
BRANCH  19  21
ATOM     20  C   UNL     1      -0.019   1.526   0.010  0.00  0.00    +0.004 C 
ATOM     21  C   UNL     1       0.002  -0.004   0.002  0.00  0.00    +0.006 C 
ENDBRANCH  19  21
ENDBRANCH  14  19
ENDBRANCH   7  16
ENDBRANCH   1  10
BRANCH   4  22
ATOM     22  C   UNL     1       5.009 -12.617  -1.246  0.00  0.00    +0.216 C 
ATOM     23  O   UNL     1       4.023 -13.130  -1.732  0.00  0.00    -0.276 OA
ATOM     24  N   UNL     1       5.919 -13.377  -0.607  0.00  0.00    -0.315 N 
ATOM     25  H   UNL     1       6.707 -12.966  -0.218  0.00  0.00    +0.149 HD
BRANCH  24  26
ATOM     26  C   UNL     1       5.718 -14.824  -0.498  0.00  0.00    +0.109 C 
BRANCH  26  27
ATOM     27  C   UNL     1       6.888 -15.445   0.268  0.00  0.00    +0.054 C 
BRANCH  27  28
ATOM     28  C   UNL     1       6.681 -16.934   0.379  0.00  0.00    -0.042 A 
ATOM     29  C   UNL     1       5.992 -17.456   1.458  0.00  0.00    +0.007 A 
ATOM     30  C   UNL     1       5.799 -18.821   1.565  0.00  0.00    +0.050 A 
ATOM     31  C   UNL     1       6.299 -19.669   0.589  0.00  0.00    +0.162 A 
ATOM     32  C   UNL     1       6.993 -19.144  -0.497  0.00  0.00    +0.162 A 
ATOM     33  C   UNL     1       7.178 -17.774  -0.600  0.00  0.00    +0.053 A 
BRANCH  32  34
ATOM     34  O   UNL     1       7.484 -19.972  -1.456  0.00  0.00    -0.489 OA
BRANCH  34  35
ATOM     35  C   UNL     1       8.186 -19.363  -2.542  0.00  0.00    +0.226 C 
ATOM     36  C   UNL     1       8.661 -20.445  -3.514  0.00  0.00    +0.048 C 
ENDBRANCH  34  35
ENDBRANCH  32  34
BRANCH  31  37
ATOM     37  O   UNL     1       6.111 -21.012   0.693  0.00  0.00    -0.489 OA
BRANCH  37  38
ATOM     38  C   UNL     1       5.390 -21.480   1.834  0.00  0.00    +0.226 C 
ATOM     39  C   UNL     1       5.280 -23.005   1.778  0.00  0.00    +0.048 C 
ENDBRANCH  37  38
ENDBRANCH  31  37
ENDBRANCH  27  28
ENDBRANCH  26  27
ENDBRANCH  24  26
ENDBRANCH   4  22
TORSDOF 12
