REMARK  Name = ZINC45410148
REMARK  4 active torsions:
REMARK  status: ('A' for Active; 'I' for Inactive)
REMARK    1  A    between atoms: N_5  and  C_8
REMARK    2  A    between atoms: C_8  and  C_9
REMARK    3  A    between atoms: N_17  and  C_18
REMARK    4  A    between atoms: N_21  and  C_24
REMARK                            x       y       z     vdW  Elec       q    Type
REMARK                         _______ _______ _______ _____ _____    ______ ____
ROOT
ATOM      1  C   UNL     1       2.426  -2.436  -2.064  0.00  0.00    -0.025 C 
ATOM      2  C   UNL     1       3.544  -2.288  -1.030  0.00  0.00    +0.021 C 
ATOM      3  C   UNL     1       3.756  -3.627  -0.317  0.00  0.00    +0.109 C 
ATOM      4  N   UNL     1       4.000  -4.667  -1.326  0.00  0.00    -0.286 N 
ATOM      5  C   UNL     1       3.032  -4.833  -2.418  0.00  0.00    +0.109 C 
ATOM      6  C   UNL     1       2.829  -3.480  -3.108  0.00  0.00    +0.021 C 
ATOM      7  C   UNL     1       5.093  -5.452  -1.252  0.00  0.00    +0.302 C 
ATOM      8  O   UNL     1       5.935  -5.243  -0.400  0.00  0.00    -0.253 OA
ATOM      9  N   UNL     1       5.252  -6.469  -2.121  0.00  0.00    -0.297 N 
ATOM     10  H   UNL     1       4.618  -6.592  -2.845  0.00  0.00    +0.151 HD
ENDROOT
BRANCH   9  11
ATOM     11  C   UNL     1       6.383  -7.389  -1.973  0.00  0.00    +0.071 C 
ATOM     12  C   UNL     1       7.613  -6.805  -2.672  0.00  0.00    +0.004 C 
ATOM     13  C   UNL     1       8.767  -7.806  -2.583  0.00  0.00    -0.077 C 
ATOM     14  N   UNL     1       8.382  -9.063  -3.236  0.00  0.00    +0.382 N 
ATOM     15  C   UNL     1       7.247  -9.665  -2.526  0.00  0.00    -0.077 C 
ATOM     16  C   UNL     1       6.034  -8.736  -2.614  0.00  0.00    +0.004 C 
ATOM     17  H   UNL     1       8.119  -8.877  -4.192  0.00  0.00    -0.081 HD
BRANCH  14  18
ATOM     18  C   UNL     1       9.519  -9.993  -3.216  0.00  0.00    -0.069 C 
ATOM     19  C   UNL     1      10.186 -10.322  -4.552  0.00  0.00    -0.017 C 
ATOM     20  C   UNL     1       9.318 -11.369  -3.853  0.00  0.00    -0.017 C 
ENDBRANCH  14  18
ENDBRANCH   9  11
BRANCH   1  21
ATOM     21  C   UNL     1       2.189  -1.091  -2.755  0.00  0.00    -0.075 C 
BRANCH  21  26
ATOM     22  C   UNL     1      -0.022   1.540   0.020  0.00  0.00    -0.002 C 
ATOM     23  C   UNL     1       1.394   2.054   0.015  0.00  0.00    -0.002 C 
ATOM     24  C   UNL     1       1.946   2.302  -1.402  0.00  0.00    -0.019 C 
ATOM     25  C   UNL     1       1.572   1.183  -2.389  0.00  0.00    -0.079 C 
ATOM     26  N   UNL     1       1.687  -0.119  -1.774  0.00  0.00    +0.380 N 
ATOM     27  C   UNL     1       0.344  -0.517  -1.317  0.00  0.00    -0.079 C 
ATOM     28  C   UNL     1      -0.001  -0.008   0.007  0.00  0.00    -0.019 C 
ATOM     29  H   UNL     1       2.316  -0.071  -0.986  0.00  0.00    -0.082 HD
ENDBRANCH  21  26
ENDBRANCH   1  21
TORSDOF 4
