REMARK  Name = ZINC00348213
REMARK  6 active torsions:
REMARK  status: ('A' for Active; 'I' for Inactive)
REMARK    1  A    between atoms: C_1  and  C_2
REMARK    2  A    between atoms: C_2  and  C_22
REMARK    3  A    between atoms: C_4  and  C_6
REMARK    4  A    between atoms: N_8  and  N_9
REMARK    5  A    between atoms: C_10  and  C_11
REMARK    6  A    between atoms: C_20  and  O_21
REMARK                            x       y       z     vdW  Elec       q    Type
REMARK                         _______ _______ _______ _____ _____    ______ ____
ROOT
ATOM      1  C   UNL     1      -1.573   7.331  -0.709  0.00  0.00    +0.236 C 
ATOM      2  O   UNL     1      -0.619   7.790  -1.301  0.00  0.00    -0.274 OA
ATOM      3  N   UNL     1      -2.754   7.979  -0.728  0.00  0.00    -0.207 N 
ATOM      4  H   UNL     1      -3.517   7.612  -0.255  0.00  0.00    +0.177 HD
ENDROOT
BRANCH   1   8
ATOM      5  C   UNL     1       1.054   6.027  -0.752  0.00  0.00    +0.017 C 
ATOM      6  C   UNL     1      -0.070   5.347   0.032  0.00  0.00    +0.005 C 
ATOM      7  C   UNL     1      -0.564   6.039   1.304  0.00  0.00    +0.025 C 
ATOM      8  C   UNL     1      -1.437   6.035   0.048  0.00  0.00    +0.088 C 
BRANCH   6   9
ATOM      9  C   UNL     1      -0.050   3.840   0.023  0.00  0.00    -0.041 A 
ATOM     10  C   UNL     1       1.156   3.165   0.008  0.00  0.00    +0.004 A 
ATOM     11  C   UNL     1       1.175   1.783   0.000  0.00  0.00    +0.000 A 
ATOM     12  C   UNL     1      -0.013   1.076   0.008  0.00  0.00    +0.000 A 
ATOM     13  C   UNL     1      -1.219   1.751   0.017  0.00  0.00    +0.000 A 
ATOM     14  C   UNL     1      -1.238   3.133   0.029  0.00  0.00    +0.004 A 
ENDBRANCH   6   9
ENDBRANCH   1   8
BRANCH   3  15
ATOM     15  N   UNL     1      -2.880   9.184  -1.432  0.00  0.00    -0.188 NA
ATOM     16  C   UNL     1      -4.019   9.810  -1.451  0.00  0.00    +0.142 C 
BRANCH  16  17
ATOM     17  C   UNL     1      -4.152  11.073  -2.190  0.00  0.00    +0.044 A 
ATOM     18  C   UNL     1      -5.425  11.790  -2.221  0.00  0.00    -0.006 A 
ATOM     19  C   UNL     1      -6.555  11.302  -1.554  0.00  0.00    +0.009 A 
ATOM     20  C   UNL     1      -7.724  12.000  -1.608  0.00  0.00    +0.001 A 
ATOM     21  C   UNL     1      -7.811  13.195  -2.319  0.00  0.00    +0.001 A 
ATOM     22  C   UNL     1      -6.732  13.698  -2.979  0.00  0.00    +0.008 A 
ATOM     23  C   UNL     1      -5.510  13.004  -2.945  0.00  0.00    -0.017 A 
ATOM     24  C   UNL     1      -4.374  13.493  -3.614  0.00  0.00    +0.012 A 
ATOM     25  C   UNL     1      -3.197  12.815  -3.574  0.00  0.00    +0.046 A 
ATOM     26  C   UNL     1      -3.063  11.618  -2.871  0.00  0.00    +0.126 A 
BRANCH  26  27
ATOM     27  O   UNL     1      -1.867  10.976  -2.853  0.00  0.00    -0.506 OA
ATOM     28  H   UNL     1      -1.750  10.342  -3.574  0.00  0.00    +0.292 HD
ENDBRANCH  26  27
ENDBRANCH  16  17
ENDBRANCH   3  15
TORSDOF 5
