REMARK  Name = ZINC03202926
REMARK  11 active torsions:
REMARK  status: ('A' for Active; 'I' for Inactive)
REMARK    1  A    between atoms: C_1  and  C_2
REMARK    2  A    between atoms: C_3  and  C_29
REMARK    3  A    between atoms: C_4  and  O_19
REMARK    4  A    between atoms: C_5  and  C_10
REMARK    5  A    between atoms: C_6  and  C_9
REMARK    6  A    between atoms: C_7  and  O_8
REMARK    7  A    between atoms: C_10  and  C_11
REMARK    8  A    between atoms: C_11  and  C_13
REMARK    9  A    between atoms: O_19  and  C_20
REMARK   10  A    between atoms: C_20  and  C_22
REMARK   11  A    between atoms: C_27  and  O_28
REMARK                            x       y       z     vdW  Elec       q    Type
REMARK                         _______ _______ _______ _____ _____    ______ ____
ROOT
ATOM      1  C   UNL     1       4.710  -0.345   2.462  0.00  0.00    +0.048 C 
ATOM      2  C   UNL     1       4.060   0.063   1.165  0.00  0.00    -0.002 A 
ATOM      3  C   UNL     1       2.895   0.804   1.180  0.00  0.00    -0.001 A 
ATOM      4  C   UNL     1       2.293   1.176  -0.013  0.00  0.00    +0.139 A 
ATOM      5  C   UNL     1       2.869   0.812  -1.223  0.00  0.00    +0.009 A 
ATOM      6  C   UNL     1       4.037   0.076  -1.238  0.00  0.00    -0.002 A 
ATOM      7  C   UNL     1       4.635  -0.300  -0.044  0.00  0.00    +0.123 A 
ATOM      8  C   UNL     1       4.662  -0.318  -2.551  0.00  0.00    +0.048 C 
ATOM      9  C   UNL     1       2.273   1.204   2.493  0.00  0.00    +0.048 C 
ENDROOT
BRANCH   7  10
ATOM     10  O   UNL     1       5.785  -1.026  -0.059  0.00  0.00    -0.506 OA
ATOM     11  H   UNL     1       6.589  -0.488  -0.064  0.00  0.00    +0.292 HD
ENDBRANCH   7  10
BRANCH   5  12
ATOM     12  C   UNL     1       2.219   1.221  -2.519  0.00  0.00    +0.118 C 
BRANCH  12  13
ATOM     13  C   UNL     1       2.759   2.559  -2.953  0.00  0.00    +0.168 C 
ATOM     14  O   UNL     1       3.590   3.125  -2.275  0.00  0.00    -0.292 OA
BRANCH  13  15
ATOM     15  C   UNL     1       2.278   3.179  -4.198  0.00  0.00    +0.018 A 
ATOM     16  C   UNL     1       1.324   2.526  -4.985  0.00  0.00    +0.011 A 
ATOM     17  C   UNL     1       0.875   3.116  -6.147  0.00  0.00    +0.001 A 
ATOM     18  C   UNL     1       1.374   4.345  -6.542  0.00  0.00    +0.000 A 
ATOM     19  C   UNL     1       2.322   4.994  -5.772  0.00  0.00    +0.001 A 
ATOM     20  C   UNL     1       2.778   4.420  -4.603  0.00  0.00    +0.011 A 
ENDBRANCH  13  15
ENDBRANCH  12  13
ENDBRANCH   5  12
BRANCH   4  21
ATOM     21  O   UNL     1       1.143   1.901   0.001  0.00  0.00    -0.422 OA
BRANCH  21  22
ATOM     22  C   UNL     1      -0.014   1.211   0.009  0.00  0.00    +0.348 C 
ATOM     23  O   UNL     1       0.002  -0.004   0.002  0.00  0.00    -0.244 OA
BRANCH  22  24
ATOM     24  C   UNL     1      -1.301   1.931   0.019  0.00  0.00    +0.101 A 
ATOM     25  C   UNL     1      -1.325   3.328   0.032  0.00  0.00    +0.018 A 
ATOM     26  C   UNL     1      -2.530   3.994   0.036  0.00  0.00    +0.001 A 
ATOM     27  C   UNL     1      -3.721   3.286   0.037  0.00  0.00    +0.004 A 
ATOM     28  C   UNL     1      -3.712   1.905   0.030  0.00  0.00    +0.046 A 
ATOM     29  C   UNL     1      -2.508   1.217   0.021  0.00  0.00    +0.131 A 
BRANCH  29  30
ATOM     30  O   UNL     1      -2.498  -0.139   0.014  0.00  0.00    -0.506 OA
ATOM     31  H   UNL     1      -2.491  -0.537   0.895  0.00  0.00    +0.292 HD
ENDBRANCH  29  30
ENDBRANCH  22  24
ENDBRANCH  21  22
ENDBRANCH   4  21
TORSDOF 8
