REMARK  Name = ZINC61088464
REMARK  9 active torsions:
REMARK  status: ('A' for Active; 'I' for Inactive)
REMARK    1  A    between atoms: C_1  and  C_2
REMARK    2  A    between atoms: C_2  and  C_3
REMARK    3  A    between atoms: C_3  and  C_5
REMARK    4  A    between atoms: C_3  and  N_6
REMARK    5  A    between atoms: C_7  and  C_9
REMARK    6  A    between atoms: C_9  and  C_10
REMARK    7  A    between atoms: C_10  and  N_11
REMARK    8  A    between atoms: C_12  and  C_14
REMARK    9  A    between atoms: C_16  and  N_22
REMARK                            x       y       z     vdW  Elec       q    Type
REMARK                         _______ _______ _______ _____ _____    ______ ____
ROOT
ATOM      1  N   UNL     1       6.301   0.924   3.575  0.00  0.00    -0.311 N 
ATOM      2  C   UNL     1       7.022   1.054   4.706  0.00  0.00    +0.245 C 
ATOM      3  O   UNL     1       6.506   0.834   5.784  0.00  0.00    -0.270 OA
ATOM      4  H   UNL     1       6.713   1.099   2.714  0.00  0.00    +0.149 HD
ENDROOT
BRANCH   2   5
ATOM      5  C   UNL     1       8.439   1.464   4.635  0.00  0.00    +0.053 A 
ATOM      6  C   UNL     1       9.032   1.724   3.398  0.00  0.00    +0.039 A 
ATOM      7  C   UNL     1      10.361   2.108   3.339  0.00  0.00    +0.061 A 
ATOM      8  C   UNL     1      11.102   2.236   4.511  0.00  0.00    +0.145 A 
ATOM      9  C   UNL     1      10.514   1.979   5.738  0.00  0.00    +0.056 A 
ATOM     10  C   UNL     1       9.188   1.600   5.807  0.00  0.00    +0.033 A 
ATOM     11 BR   UNL     1       8.388   1.258   7.486  0.00  0.00    -0.049 Br
ATOM     12  F   UNL     1      12.398   2.612   4.451  0.00  0.00    -0.204 F 
BRANCH   7  13
ATOM     13  N   UNL     1      10.959   2.368   2.101  0.00  0.00    -0.356 N 
ATOM     14  H   UNL     1      10.443   2.279   1.285  0.00  0.00    +0.142 HD
ATOM     15  H   UNL     1      11.890   2.638   2.060  0.00  0.00    +0.142 HD
ENDBRANCH   7  13
ENDBRANCH   2   5
BRANCH   1  16
ATOM     16  C   UNL     1       4.896   0.517   3.644  0.00  0.00    +0.113 C 
BRANCH  16  17
ATOM     17  C   UNL     1       4.314   0.445   2.231  0.00  0.00    +0.114 C 
BRANCH  17  19
ATOM     18  N   UNL     1       2.148  -0.104   1.172  0.00  0.00    -0.313 N 
ATOM     19  C   UNL     1       2.869   0.026   2.303  0.00  0.00    +0.215 C 
ATOM     20  O   UNL     1       2.354  -0.193   3.379  0.00  0.00    -0.276 OA
ATOM     21  H   UNL     1       2.559   0.072   0.311  0.00  0.00    +0.149 HD
BRANCH  18  22
ATOM     22  C   UNL     1       0.742  -0.511   1.242  0.00  0.00    +0.070 C 
ATOM     23  C   UNL     1       0.655  -2.037   1.299  0.00  0.00    +0.028 C 
BRANCH  22  25
ATOM     24  C   UNL     1      -0.019   1.526   0.010  0.00  0.00    +0.005 C 
ATOM     25  C   UNL     1       0.002  -0.004   0.002  0.00  0.00    +0.018 C 
ENDBRANCH  22  25
ENDBRANCH  18  22
ENDBRANCH  17  19
ENDBRANCH  16  17
ENDBRANCH   1  16
TORSDOF 7
