REMARK  Name = ZINC28302838
REMARK  11 active torsions:
REMARK  status: ('A' for Active; 'I' for Inactive)
REMARK    1  A    between atoms: C_1  and  C_2
REMARK    2  A    between atoms: C_2  and  O_3
REMARK    3  A    between atoms: O_3  and  C_4
REMARK    4  A    between atoms: N_11  and  C_12
REMARK    5  A    between atoms: C_14  and  N_19
REMARK    6  A    between atoms: C_17  and  O_18
REMARK    7  A    between atoms: C_23  and  C_25
REMARK    8  A    between atoms: C_28  and  O_33
REMARK    9  A    between atoms: C_29  and  O_31
REMARK   10  A    between atoms: O_31  and  C_32
REMARK   11  A    between atoms: O_33  and  C_34
REMARK                            x       y       z     vdW  Elec       q    Type
REMARK                         _______ _______ _______ _____ _____    ______ ____
ROOT
ATOM      1  C   UNL     1      -6.013   7.383   0.236  0.00  0.00    +0.121 A 
ATOM      2  C   UNL     1      -4.778   8.021   0.360  0.00  0.00    +0.049 A 
ATOM      3  C   UNL     1      -3.610   7.294   0.365  0.00  0.00    +0.050 A 
ATOM      4  C   UNL     1      -3.652   5.907   0.244  0.00  0.00    +0.138 A 
ATOM      5  C   UNL     1      -4.899   5.262   0.118  0.00  0.00    +0.044 A 
ATOM      6  C   UNL     1      -6.076   6.008   0.114  0.00  0.00    +0.059 A 
ATOM      7  C   UNL     1      -4.929   3.793  -0.009  0.00  0.00    +0.054 A 
ATOM      8  N   UNL     1      -6.091   3.128  -0.132  0.00  0.00    -0.352 N 
ATOM      9  C   UNL     1      -3.701   3.118  -0.003  0.00  0.00    +0.073 A 
ATOM     10  C   UNL     1      -2.514   3.854   0.133  0.00  0.00    +0.138 A 
ATOM     11  O   UNL     1      -2.515   5.184   0.247  0.00  0.00    -0.455 OA
ATOM     12  H   UNL     1      -7.036   3.683  -0.228  0.00  0.00    +0.166 HD
ENDROOT
BRANCH   8  13
ATOM     13  C   UNL     1      -6.098   1.805  -0.139  0.00  0.00    +0.084 A 
ATOM     14  C   UNL     1      -5.902   1.056  -1.386  0.00  0.00    +0.062 A 
ATOM     15  C   UNL     1      -5.910  -0.301  -1.350  0.00  0.00    +0.128 A 
ATOM     16  C   UNL     1      -6.114  -0.994  -0.156  0.00  0.00    +0.036 A 
ATOM     17  C   UNL     1      -6.308  -0.344   1.044  0.00  0.00    +0.050 A 
ATOM     18  C   UNL     1      -6.310   1.041   1.106  0.00  0.00    +0.140 A 
BRANCH  15  19
ATOM     19  N   UNL     1      -5.707  -1.061  -2.604  0.00  0.00    +0.056 N 
ATOM     20  O   UNL     1      -5.720  -2.377  -2.586  0.00  0.00    -0.126 OA
ATOM     21  O   UNL     1      -5.515  -0.420  -3.739  0.00  0.00    -0.126 OA
ENDBRANCH  15  19
BRANCH  18  22
ATOM     22  O   UNL     1      -6.500   1.678   2.281  0.00  0.00    -0.505 OA
ATOM     23  H   UNL     1      -6.657   1.097   3.203  0.00  0.00    +0.292 HD
ENDBRANCH  18  22
ENDBRANCH   8  13
BRANCH  10  24
ATOM     24  C   UNL     1      -1.234   3.141   0.145  0.00  0.00    +0.021 A 
ATOM     25  C   UNL     1      -1.209   1.737   0.181  0.00  0.00    +0.015 A 
ATOM     26  C   UNL     1      -0.017   1.073   0.197  0.00  0.00    +0.050 A 
ATOM     27  C   UNL     1       1.181   1.782   0.167  0.00  0.00    +0.162 A 
ATOM     28  C   UNL     1       1.172   3.180   0.126  0.00  0.00    +0.162 A 
ATOM     29  C   UNL     1      -0.028   3.859   0.114  0.00  0.00    +0.061 A 
BRANCH  28  30
ATOM     30  O   UNL     1       2.344   3.868   0.096  0.00  0.00    -0.491 OA
ATOM     31  C   UNL     1       2.258   5.294   0.054  0.00  0.00    +0.277 C 
ENDBRANCH  28  30
BRANCH  27  32
ATOM     32  O   UNL     1       2.362   1.114   0.178  0.00  0.00    -0.491 OA
ATOM     33  C   UNL     1       2.299  -0.313   0.221  0.00  0.00    +0.277 C 
ENDBRANCH  27  32
ENDBRANCH  10  24
BRANCH   1  34
ATOM     34  O   UNL     1      -7.156   8.117   0.233  0.00  0.00    -0.492 OA
BRANCH  34  36
ATOM     35  C   UNL     1      -8.403  10.184   0.339  0.00  0.00    +0.048 C 
ATOM     36  C   UNL     1      -7.019   9.533   0.362  0.00  0.00    +0.225 C 
ENDBRANCH  34  36
ENDBRANCH   1  34
TORSDOF 8
