REMARK  Name = ZINC38742394
REMARK  5 active torsions:
REMARK  status: ('A' for Active; 'I' for Inactive)
REMARK    1  A    between atoms: C_1  and  C_2
REMARK    2  A    between atoms: C_2  and  C_3
REMARK    3  A    between atoms: C_2  and  C_4
REMARK    4  A    between atoms: C_6  and  C_10
REMARK    5  A    between atoms: C_18  and  C_20
REMARK                            x       y       z     vdW  Elec       q    Type
REMARK                         _______ _______ _______ _____ _____    ______ ____
ROOT
ATOM      1  C   UNL     1      -3.607  -3.034  -0.220  0.00  0.00    +0.206 C 
ATOM      2  N   UNL     1      -2.805  -3.506   0.934  0.00  0.00    -0.231 NA
ATOM      3  N   UNL     1      -3.756  -4.093   1.893  0.00  0.00    -0.224 NA
ATOM      4  C   UNL     1      -4.898  -4.473   1.037  0.00  0.00    +0.240 C 
ATOM      5  N   UNL     1      -5.021  -3.267   0.154  0.00  0.00    -0.206 N 
ATOM      6  N   UNL     1      -6.304  -2.772   0.069  0.00  0.00    -0.173 NA
ATOM      7  C   UNL     1      -7.245  -3.098   0.906  0.00  0.00    +0.125 C 
ATOM      8  S   UNL     1      -6.483  -4.379   1.950  0.00  0.00    -0.063 S 
ATOM      9  H   UNL     1      -2.293  -2.745   1.354  0.00  0.00    +0.143 HD
ATOM     10  H   UNL     1      -3.359  -4.903   2.347  0.00  0.00    +0.144 HD
ENDROOT
BRANCH   7  11
ATOM     11  C   UNL     1      -8.620  -2.561   0.985  0.00  0.00    +0.009 A 
ATOM     12  C   UNL     1      -9.500  -3.031   1.962  0.00  0.00    +0.013 A 
ATOM     13  C   UNL     1     -10.782  -2.526   2.032  0.00  0.00    +0.039 A 
ATOM     14  C   UNL     1     -11.197  -1.555   1.135  0.00  0.00    +0.123 A 
ATOM     15  C   UNL     1     -10.327  -1.085   0.163  0.00  0.00    +0.039 A 
ATOM     16  C   UNL     1      -9.042  -1.579   0.087  0.00  0.00    +0.013 A 
ATOM     17  F   UNL     1     -12.454  -1.064   1.207  0.00  0.00    -0.205 F 
ENDBRANCH   7  11
BRANCH   1  20
ATOM     18  C   UNL     1      -1.412  -0.526   0.013  0.00  0.00    +0.064 C 
ATOM     19  C   UNL     1      -1.940  -1.303  -0.935  0.00  0.00    +0.030 C 
ATOM     20  C   UNL     1      -3.362  -1.543  -0.460  0.00  0.00    +0.190 C 
ATOM     21  N   UNL     1      -3.420  -0.792   0.805  0.00  0.00    -0.177 NA
ATOM     22  N   UNL     1      -2.315  -0.275   0.986  0.00  0.00    -0.158 NA
BRANCH  18  24
ATOM     23  C   UNL     1      -0.019   1.526   0.010  0.00  0.00    +0.014 C 
ATOM     24  C   UNL     1       0.002  -0.004   0.002  0.00  0.00    +0.033 C 
ATOM     25  C   UNL     1       0.742  -0.511   1.242  0.00  0.00    +0.014 C 
ENDBRANCH  18  24
ENDBRANCH   1  20
TORSDOF 3
