REMARK  Name = ZINC12499569
REMARK  10 active torsions:
REMARK  status: ('A' for Active; 'I' for Inactive)
REMARK    1  A    between atoms: C_1  and  C_2
REMARK    2  A    between atoms: C_5  and  C_34
REMARK    3  A    between atoms: C_6  and  O_8
REMARK    4  A    between atoms: O_8  and  C_9
REMARK    5  A    between atoms: C_9  and  C_10
REMARK    6  A    between atoms: N_12  and  C_13
REMARK    7  A    between atoms: C_13  and  N_15
REMARK    8  A    between atoms: N_15  and  C_16
REMARK    9  A    between atoms: C_19  and  S_22
REMARK   10  A    between atoms: S_22  and  N_25
REMARK                            x       y       z     vdW  Elec       q    Type
REMARK                         _______ _______ _______ _____ _____    ______ ____
ROOT
ATOM      1  N   UNL     1       5.160   9.100   0.003  0.00  0.00    -0.297 N 
ATOM      2  H   UNL     1       4.933   8.363   0.592  0.00  0.00    +0.154 HD
ENDROOT
BRANCH   1   3
ATOM      3  C   UNL     1       6.477   9.568  -0.057  0.00  0.00    +0.033 A 
ATOM      4  C   UNL     1       7.532   8.668  -0.142  0.00  0.00    +0.025 A 
ATOM      5  C   UNL     1       8.830   9.134  -0.207  0.00  0.00    +0.030 A 
ATOM      6  C   UNL     1       9.082  10.493  -0.177  0.00  0.00    +0.109 A 
ATOM      7  C   UNL     1       8.034  11.391  -0.086  0.00  0.00    +0.030 A 
ATOM      8  C   UNL     1       6.732  10.933  -0.026  0.00  0.00    +0.025 A 
BRANCH   6   9
ATOM      9  S   UNL     1      10.740  11.082  -0.252  0.00  0.00    +0.075 S 
ATOM     10  O   UNL     1      11.505  10.064  -0.882  0.00  0.00    -0.150 OA
ATOM     11  O   UNL     1      10.678  12.409  -0.756  0.00  0.00    -0.150 OA
BRANCH   9  12
ATOM     12  N   UNL     1      11.292  11.193   1.305  0.00  0.00    -0.202 N 
ATOM     13  C   UNL     1      11.971  10.118   2.034  0.00  0.00    +0.136 C 
ATOM     14  C   UNL     1      12.280  10.704   3.421  0.00  0.00    +0.058 C 
ATOM     15  C   UNL     1      11.734  12.114   3.368  0.00  0.00    -0.023 A 
ATOM     16  C   UNL     1      11.184  12.326   2.114  0.00  0.00    +0.054 A 
ATOM     17  C   UNL     1      10.606  13.565   1.828  0.00  0.00    +0.025 A 
ATOM     18  C   UNL     1      10.595  14.563   2.779  0.00  0.00    +0.002 A 
ATOM     19  C   UNL     1      11.152  14.343   4.025  0.00  0.00    +0.000 A 
ATOM     20  C   UNL     1      11.721  13.117   4.318  0.00  0.00    +0.005 A 
ENDBRANCH   9  12
ENDBRANCH   6   9
ENDBRANCH   1   3
BRANCH   1  21
ATOM     21  C   UNL     1       4.206   9.673  -0.757  0.00  0.00    +0.141 C 
ATOM     22  S   UNL     1       4.581  11.042  -1.714  0.00  0.00    -0.018 S 
BRANCH  21  25
ATOM     23  C   UNL     1       2.002   9.742  -1.523  0.00  0.00    +0.256 C 
ATOM     24  O   UNL     1       2.268  10.712  -2.201  0.00  0.00    -0.272 OA
ATOM     25  N   UNL     1       2.956   9.169  -0.763  0.00  0.00    -0.265 N 
ATOM     26  H   UNL     1       2.743   8.393  -0.221  0.00  0.00    +0.157 HD
BRANCH  23  27
ATOM     27  C   UNL     1       0.604   9.178  -1.530  0.00  0.00    +0.325 C 
BRANCH  27  28
ATOM     28  O   UNL     1      -0.218   9.953  -2.405  0.00  0.00    -0.482 OA
BRANCH  28  34
ATOM     29  C   UNL     1      -3.829   6.908  -1.175  0.00  0.00    +0.044 C 
ATOM     30  C   UNL     1      -3.313   8.097  -1.945  0.00  0.00    -0.047 A 
ATOM     31  C   UNL     1      -4.164   8.807  -2.772  0.00  0.00    +0.004 A 
ATOM     32  C   UNL     1      -3.692   9.895  -3.483  0.00  0.00    +0.007 A 
ATOM     33  C   UNL     1      -2.372  10.282  -3.360  0.00  0.00    -0.009 A 
ATOM     34  C   UNL     1      -1.517   9.574  -2.527  0.00  0.00    +0.124 A 
ATOM     35  C   UNL     1      -1.992   8.480  -1.819  0.00  0.00    +0.049 A 
ATOM     36  C   UNL     1      -1.860  11.471  -4.131  0.00  0.00    +0.047 C 
ENDBRANCH  28  34
ENDBRANCH  27  28
ENDBRANCH  23  27
ENDBRANCH  21  25
ENDBRANCH   1  21
TORSDOF 8
