REMARK  Name = ZINC36648454
REMARK  7 active torsions:
REMARK  status: ('A' for Active; 'I' for Inactive)
REMARK    1  A    between atoms: C_1  and  C_2
REMARK    2  A    between atoms: C_7  and  C_16
REMARK    3  A    between atoms: N_11  and  S_12
REMARK    4  A    between atoms: S_12  and  C_15
REMARK    5  A    between atoms: C_16  and  O_18
REMARK    6  A    between atoms: O_18  and  C_19
REMARK    7  A    between atoms: C_19  and  C_20
REMARK                            x       y       z     vdW  Elec       q    Type
REMARK                         _______ _______ _______ _____ _____    ______ ____
ROOT
ATOM      1  C   UNL     1       7.185  -4.867  -1.288  0.00  0.00    +0.308 C 
ENDROOT
BRANCH   1   2
ATOM      2  C   UNL     1       8.002  -5.420  -0.149  0.00  0.00    +0.170 A 
ATOM      3  N   UNL     1       9.040  -4.733   0.295  0.00  0.00    -0.214 NA
ATOM      4  C   UNL     1       9.796  -5.165   1.292  0.00  0.00    +0.128 A 
ATOM      5  C   UNL     1       9.485  -6.409   1.908  0.00  0.00    +0.051 A 
ATOM      6  C   UNL     1      10.175  -7.077   3.017  0.00  0.00    -0.025 A 
ATOM      7  C   UNL     1       9.676  -8.264   3.413  0.00  0.00    -0.004 A 
ATOM      8  S   UNL     1       8.275  -8.555   2.363  0.00  0.00    -0.073 S 
ATOM      9  C   UNL     1       8.366  -7.082   1.381  0.00  0.00    +0.114 A 
ATOM     10  N   UNL     1       7.662  -6.577   0.386  0.00  0.00    -0.221 NA
ATOM     11  C   UNL     1      10.190  -9.161   4.497  0.00  0.00    +0.043 C 
ATOM     12  C   UNL     1      10.423  -8.336   5.769  0.00  0.00    +0.005 C 
ATOM     13  C   UNL     1      11.851  -7.801   5.740  0.00  0.00    +0.001 C 
ATOM     14  C   UNL     1      12.274  -7.519   4.300  0.00  0.00    +0.005 C 
ATOM     15  C   UNL     1      11.391  -6.440   3.685  0.00  0.00    +0.037 C 
ATOM     16  N   UNL     1      10.875  -4.416   1.728  0.00  0.00    -0.343 N 
ATOM     17  H   UNL     1      11.183  -4.498   2.644  0.00  0.00    +0.144 HD
ATOM     18  H   UNL     1      11.322  -3.809   1.118  0.00  0.00    +0.144 HD
ENDBRANCH   1   2
BRANCH   1  19
ATOM     19  O   UNL     1       6.133  -4.052  -0.768  0.00  0.00    -0.453 OA
BRANCH  19  20
ATOM     20  C   UNL     1       5.305  -3.478  -1.662  0.00  0.00    +0.340 C 
ATOM     21  O   UNL     1       5.472  -3.664  -2.851  0.00  0.00    -0.245 OA
BRANCH  20  27
ATOM     22  C   UNL     1       0.454   1.734  -1.515  0.00  0.00    +0.030 C 
ATOM     23  C   UNL     1       0.399   0.213  -1.351  0.00  0.00    +0.099 C 
ATOM     24  C   UNL     1       1.238  -0.471  -2.443  0.00  0.00    +0.061 C 
ATOM     25  C   UNL     1       2.302  -1.229  -1.680  0.00  0.00    -0.022 A 
ATOM     26  C   UNL     1       3.335  -2.025  -2.122  0.00  0.00    +0.020 A 
ATOM     27  C   UNL     1       4.197  -2.623  -1.198  0.00  0.00    +0.059 A 
ATOM     28  C   UNL     1       4.001  -2.406   0.169  0.00  0.00    +0.017 A 
ATOM     29  C   UNL     1       2.975  -1.616   0.598  0.00  0.00    +0.026 A 
ATOM     30  C   UNL     1       2.108  -1.013  -0.321  0.00  0.00    +0.054 A 
ATOM     31  N   UNL     1       1.015  -0.184  -0.084  0.00  0.00    -0.204 N 
BRANCH  31  32
ATOM     32  S   UNL     1       0.488   0.286   1.414  0.00  0.00    +0.043 S 
ATOM     33  O   UNL     1       1.641   0.218   2.242  0.00  0.00    -0.155 OA
ATOM     34  O   UNL     1      -0.174   1.524   1.194  0.00  0.00    -0.155 OA
ATOM     35  C   UNL     1      -0.710  -0.984   1.907  0.00  0.00    +0.218 C 
ENDBRANCH  31  32
ENDBRANCH  20  27
ENDBRANCH  19  20
ENDBRANCH   1  19
TORSDOF 5
