REMARK  Name = ZINC23590920
REMARK  5 active torsions:
REMARK  status: ('A' for Active; 'I' for Inactive)
REMARK    1  A    between atoms: C_1  and  C_2
REMARK    2  A    between atoms: C_11  and  N_23
REMARK    3  A    between atoms: C_13  and  S_15
REMARK    4  A    between atoms: S_15  and  C_16
REMARK    5  A    between atoms: C_16  and  C_17
REMARK                            x       y       z     vdW  Elec       q    Type
REMARK                         _______ _______ _______ _____ _____    ______ ____
ROOT
ATOM      1  C   UNL     1       5.723  -0.140   8.983  0.00  0.00    +0.008 C 
ATOM      2  C   UNL     1       4.935   0.172   7.709  0.00  0.00    -0.009 C 
ATOM      3  C   UNL     1       4.833  -1.088   6.846  0.00  0.00    +0.008 C 
ATOM      4  C   UNL     1       4.272  -0.730   5.469  0.00  0.00    +0.037 C 
ATOM      5  C   UNL     1       2.971   0.047   5.655  0.00  0.00    -0.025 A 
ATOM      6  C   UNL     1       2.682   0.634   6.833  0.00  0.00    -0.004 A 
ATOM      7  S   UNL     1       1.105   1.407   6.590  0.00  0.00    -0.073 S 
ATOM      8  C   UNL     1       0.835   0.938   4.900  0.00  0.00    +0.115 A 
ATOM      9  C   UNL     1       1.987   0.193   4.580  0.00  0.00    +0.051 A 
ATOM     10  C   UNL     1       2.038  -0.319   3.253  0.00  0.00    +0.129 A 
ATOM     11  N   UNL     1       1.032  -0.077   2.428  0.00  0.00    -0.207 NA
ATOM     12  C   UNL     1      -0.024   0.639   2.794  0.00  0.00    +0.191 A 
ATOM     13  N   UNL     1      -0.124   1.141   4.019  0.00  0.00    -0.215 NA
ATOM     14  C   UNL     1       3.517   0.632   8.077  0.00  0.00    +0.046 C 
ENDROOT
BRANCH  10  15
ATOM     15  N   UNL     1       3.123  -1.065   2.832  0.00  0.00    -0.343 N 
ATOM     16  H   UNL     1       3.156  -1.458   1.805  0.00  0.00    +0.144 HD
ATOM     17  H   UNL     1       3.954  -1.266   3.525  0.00  0.00    +0.144 HD
ENDBRANCH  10  15
BRANCH  12  18
ATOM     18  S   UNL     1      -1.319   0.924   1.635  0.00  0.00    -0.083 S 
BRANCH  18  19
ATOM     19  C   UNL     1      -0.657   0.040   0.201  0.00  0.00    +0.109 C 
BRANCH  19  20
ATOM     20  C   UNL     1      -1.641   0.151  -0.966  0.00  0.00    +0.129 C 
ATOM     21  C   UNL     1      -1.126  -0.659  -2.182  0.00  0.00    +0.034 C 
ATOM     22  C   UNL     1      -2.458  -0.951  -2.926  0.00  0.00    +0.031 C 
ATOM     23  C   UNL     1      -3.457  -1.110  -1.760  0.00  0.00    +0.160 C 
ATOM     24  O   UNL     1      -2.897  -0.452  -0.618  0.00  0.00    -0.376 OA
ENDBRANCH  19  20
ENDBRANCH  18  19
ENDBRANCH  12  18
TORSDOF 4
