REMARK  Name = ZINC10002930
REMARK  9 active torsions:
REMARK  status: ('A' for Active; 'I' for Inactive)
REMARK    1  A    between atoms: C_1  and  C_2
REMARK    2  A    between atoms: C_2  and  N_3
REMARK    3  A    between atoms: C_14  and  S_16
REMARK    4  A    between atoms: S_16  and  C_17
REMARK    5  A    between atoms: C_17  and  C_18
REMARK    6  A    between atoms: C_18  and  C_20
REMARK    7  A    between atoms: C_18  and  N_35
REMARK    8  A    between atoms: N_25  and  C_28
REMARK    9  A    between atoms: C_36  and  C_38
REMARK                            x       y       z     vdW  Elec       q    Type
REMARK                         _______ _______ _______ _____ _____    ______ ____
ROOT
ATOM      1  C   UNL     1      -0.434  11.832   0.069  0.00  0.00    +0.169 C 
ENDROOT
BRANCH   1   2
ATOM      2  C   UNL     1       0.567  12.951  -0.059  0.00  0.00    +0.237 C 
ATOM      3  O   UNL     1       0.924  13.561   0.927  0.00  0.00    -0.274 OA
ATOM      4  N   UNL     1       1.066  13.274  -1.268  0.00  0.00    -0.297 N 
ATOM      5  C   UNL     1       0.652  12.544  -2.475  0.00  0.00    +0.126 C 
ATOM      6  C   UNL     1       0.212  13.569  -3.532  0.00  0.00    +0.124 C 
ATOM      7  N   UNL     1       1.290  14.546  -3.737  0.00  0.00    -0.325 N 
ATOM      8  C   UNL     1       1.554  15.313  -2.513  0.00  0.00    +0.124 C 
ATOM      9  C   UNL     1       2.045  14.363  -1.415  0.00  0.00    +0.126 C 
BRANCH   7  10
ATOM     10  C   UNL     1       0.998  15.397  -4.808  0.00  0.00    +0.065 A 
ATOM     11  C   UNL     1       1.929  16.341  -5.221  0.00  0.00    +0.026 A 
ATOM     12  C   UNL     1       1.639  17.177  -6.282  0.00  0.00    +0.002 A 
ATOM     13  C   UNL     1       0.420  17.082  -6.927  0.00  0.00    +0.003 A 
ATOM     14  C   UNL     1      -0.512  16.147  -6.517  0.00  0.00    +0.040 A 
ATOM     15  C   UNL     1      -0.228  15.304  -5.459  0.00  0.00    +0.144 A 
ATOM     16  F   UNL     1      -1.139  14.391  -5.057  0.00  0.00    -0.204 F 
ENDBRANCH   7  10
ENDBRANCH   1   2
BRANCH   1  17
ATOM     17  N   UNL     1      -1.168  11.975   1.329  0.00  0.00    -0.303 N 
ATOM     18  C   UNL     1      -0.504  11.953   2.502  0.00  0.00    +0.211 C 
ATOM     19  O   UNL     1       0.701  11.815   2.514  0.00  0.00    -0.276 OA
ATOM     20  C   UNL     1      -1.259  12.100   3.797  0.00  0.00    +0.109 C 
ATOM     21  H   UNL     1      -2.132  12.085   1.319  0.00  0.00    +0.149 HD
ENDBRANCH   1  17
BRANCH   1  22
ATOM     22  C   UNL     1       0.298  10.489   0.054  0.00  0.00    +0.106 C 
BRANCH  22  23
ATOM     23  S   UNL     1      -0.914   9.139   0.059  0.00  0.00    -0.123 S 
BRANCH  23  35
ATOM     24  N   UNL     1       2.180   4.106   0.002  0.00  0.00    -0.340 N 
ATOM     25  C   UNL     1       1.164   3.167   0.007  0.00  0.00    +0.050 A 
ATOM     26  C   UNL     1       1.175   1.775   0.000  0.00  0.00    +0.026 A 
ATOM     27  C   UNL     1      -0.013   1.076   0.008  0.00  0.00    +0.002 A 
ATOM     28  C   UNL     1      -1.226   1.747   0.017  0.00  0.00    +0.001 A 
ATOM     29  C   UNL     1      -1.257   3.124   0.031  0.00  0.00    +0.010 A 
ATOM     30  C   UNL     1      -0.065   3.844   0.023  0.00  0.00    +0.008 A 
ATOM     31  C   UNL     1       0.250   5.284   0.027  0.00  0.00    +0.009 A 
ATOM     32  C   UNL     1       1.649   5.386   0.014  0.00  0.00    +0.050 A 
ATOM     33  C   UNL     1       2.243   6.645   0.015  0.00  0.00    +0.027 A 
ATOM     34  C   UNL     1       1.461   7.779   0.028  0.00  0.00    +0.017 A 
ATOM     35  C   UNL     1       0.072   7.680   0.041  0.00  0.00    +0.009 A 
ATOM     36  C   UNL     1      -0.534   6.434   0.041  0.00  0.00    +0.025 A 
BRANCH  24  38
ATOM     37  C   UNL     1       4.095   3.690  -1.460  0.00  0.00    +0.027 C 
ATOM     38  C   UNL     1       3.611   3.792  -0.013  0.00  0.00    +0.119 C 
ENDBRANCH  24  38
ENDBRANCH  23  35
ENDBRANCH  22  23
ENDBRANCH   1  22
TORSDOF 7
