REMARK  Name = ZINC46653104
REMARK  5 active torsions:
REMARK  status: ('A' for Active; 'I' for Inactive)
REMARK    1  A    between atoms: C_1  and  C_2
REMARK    2  A    between atoms: C_2  and  C_4
REMARK    3  A    between atoms: C_2  and  N_15
REMARK    4  A    between atoms: C_16  and  C_18
REMARK    5  A    between atoms: C_21  and  C_23
REMARK                            x       y       z     vdW  Elec       q    Type
REMARK                         _______ _______ _______ _____ _____    ______ ____
ROOT
ATOM      1  N   UNL     1       0.711  -0.489   1.189  0.00  0.00    -0.304 N 
ATOM      2  C   UNL     1       0.051  -0.633   2.355  0.00  0.00    +0.263 C 
ATOM      3  O   UNL     1      -1.132  -0.361   2.423  0.00  0.00    -0.268 OA
ATOM      4  H   UNL     1       1.654  -0.707   1.135  0.00  0.00    +0.150 HD
ENDROOT
BRANCH   2   5
ATOM      5  C   UNL     1       0.764  -1.121   3.549  0.00  0.00    +0.133 A 
ATOM      6  C   UNL     1       0.102  -1.276   4.738  0.00  0.00    +0.080 A 
ATOM      7  S   UNL     1       1.315  -1.840   5.759  0.00  0.00    -0.075 S 
ATOM      8  C   UNL     1       2.654  -1.851   4.581  0.00  0.00    +0.109 A 
ATOM      9  N   UNL     1       2.054  -1.422   3.486  0.00  0.00    -0.234 NA
BRANCH   8  10
ATOM     10  C   UNL     1       4.066  -2.244   4.777  0.00  0.00    +0.007 A 
ATOM     11  C   UNL     1       4.968  -2.174   3.714  0.00  0.00    +0.012 A 
ATOM     12  C   UNL     1       6.283  -2.542   3.903  0.00  0.00    +0.020 A 
ATOM     13  C   UNL     1       6.711  -2.981   5.145  0.00  0.00    +0.041 A 
ATOM     14  C   UNL     1       5.821  -3.053   6.203  0.00  0.00    +0.020 A 
ATOM     15  C   UNL     1       4.504  -2.681   6.028  0.00  0.00    +0.012 A 
ATOM     16 CL   UNL     1       8.368  -3.443   5.375  0.00  0.00    -0.084 Cl
ENDBRANCH   8  10
ENDBRANCH   2   5
BRANCH   1  18
ATOM     17  C   UNL     1      -0.019   1.526   0.010  0.00  0.00    +0.033 C 
ATOM     18  C   UNL     1       0.002  -0.004   0.002  0.00  0.00    +0.100 C 
BRANCH  18  19
ATOM     19  C   UNL     1       0.707  -0.490  -1.238  0.00  0.00    -0.025 A 
ATOM     20  C   UNL     1       2.089  -0.510  -1.282  0.00  0.00    +0.009 A 
ATOM     21  C   UNL     1       2.744  -0.956  -2.415  0.00  0.00    +0.048 A 
ATOM     22  C   UNL     1       2.014  -1.383  -3.510  0.00  0.00    +0.142 A 
ATOM     23  C   UNL     1       0.621  -1.362  -3.467  0.00  0.00    +0.076 A 
ATOM     24  C   UNL     1      -0.029  -0.920  -2.326  0.00  0.00    +0.032 A 
ATOM     25  N   UNL     1      -0.107  -1.795  -4.584  0.00  0.00    -0.280 N 
ATOM     26  C   UNL     1       0.526  -2.508  -5.541  0.00  0.00    +0.255 C 
ATOM     27  O   UNL     1      -0.076  -2.866  -6.532  0.00  0.00    -0.272 OA
ATOM     28  C   UNL     1       1.983  -2.856  -5.374  0.00  0.00    +0.325 C 
ATOM     29  O   UNL     1       2.641  -1.825  -4.633  0.00  0.00    -0.481 OA
ATOM     30  H   UNL     1      -1.050  -1.586  -4.668  0.00  0.00    +0.155 HD
ENDBRANCH  18  19
ENDBRANCH   1  18
TORSDOF 4
