REMARK  Name = ZINC10512175
REMARK  6 active torsions:
REMARK  status: ('A' for Active; 'I' for Inactive)
REMARK    1  A    between atoms: C_1  and  C_2
REMARK    2  A    between atoms: N_4  and  C_5
REMARK    3  A    between atoms: C_8  and  S_11
REMARK    4  A    between atoms: S_11  and  N_14
REMARK    5  A    between atoms: N_14  and  C_15
REMARK    6  A    between atoms: C_20  and  C_21
REMARK                            x       y       z     vdW  Elec       q    Type
REMARK                         _______ _______ _______ _____ _____    ______ ____
ROOT
ATOM      1  S   UNL     1      -0.797  -6.476   0.396  0.00  0.00    +0.072 S 
ATOM      2  O   UNL     1      -1.894  -7.066  -0.288  0.00  0.00    -0.150 OA
ATOM      3  O   UNL     1       0.548  -6.656  -0.024  0.00  0.00    -0.150 OA
ENDROOT
BRANCH   1   7
ATOM      4  C   UNL     1      -1.553  -2.011   0.441  0.00  0.00    +0.033 A 
ATOM      5  C   UNL     1      -0.258  -2.499   0.561  0.00  0.00    +0.025 A 
ATOM      6  C   UNL     1      -0.031  -3.861   0.547  0.00  0.00    +0.030 A 
ATOM      7  C   UNL     1      -1.091  -4.739   0.413  0.00  0.00    +0.109 A 
ATOM      8  C   UNL     1      -2.381  -4.256   0.292  0.00  0.00    +0.030 A 
ATOM      9  C   UNL     1      -2.616  -2.895   0.312  0.00  0.00    +0.025 A 
BRANCH   4  13
ATOM     10  C   UNL     1      -3.102   1.348   1.142  0.00  0.00    +0.109 C 
ATOM     11  C   UNL     1      -2.900  -0.142   1.035  0.00  0.00    +0.214 C 
ATOM     12  O   UNL     1      -3.740  -0.900   1.470  0.00  0.00    -0.276 OA
ATOM     13  N   UNL     1      -1.786  -0.631   0.455  0.00  0.00    -0.286 N 
ATOM     14  H   UNL     1      -1.147  -0.027   0.047  0.00  0.00    +0.155 HD
ENDBRANCH   4  13
ENDBRANCH   1   7
BRANCH   1  15
ATOM     15  N   UNL     1      -0.878  -7.002   1.964  0.00  0.00    -0.216 N 
ATOM     16  H   UNL     1      -0.109  -7.428   2.373  0.00  0.00    +0.174 HD
BRANCH  15  17
ATOM     17  C   UNL     1      -2.054  -6.832   2.697  0.00  0.00    +0.056 A 
ATOM     18  C   UNL     1      -3.287  -6.944   2.071  0.00  0.00    +0.025 A 
ATOM     19  C   UNL     1      -4.450  -6.776   2.799  0.00  0.00    +0.002 A 
ATOM     20  C   UNL     1      -4.394  -6.497   4.153  0.00  0.00    +0.001 A 
ATOM     21  C   UNL     1      -3.175  -6.382   4.791  0.00  0.00    +0.011 A 
ATOM     22  C   UNL     1      -1.994  -6.555   4.069  0.00  0.00    +0.011 A 
BRANCH  22  23
ATOM     23  C   UNL     1      -0.686  -6.440   4.747  0.00  0.00    +0.021 A 
ATOM     24  C   UNL     1      -0.228  -5.451   5.578  0.00  0.00    +0.016 A 
ATOM     25  C   UNL     1       1.043  -5.560   6.099  0.00  0.00    +0.008 A 
ATOM     26  C   UNL     1       1.801  -6.638   5.775  0.00  0.00    +0.046 A 
ATOM     27  S   UNL     1       0.706  -7.556   4.704  0.00  0.00    -0.097 S 
ENDBRANCH  22  23
ENDBRANCH  15  17
ENDBRANCH   1  15
TORSDOF 5
