REMARK  Name = ZINC17535298
REMARK  4 active torsions:
REMARK  status: ('A' for Active; 'I' for Inactive)
REMARK    1  A    between atoms: C_4  and  N_7
REMARK    2  A    between atoms: C_16  and  S_17
REMARK    3  A    between atoms: S_17  and  C_18
REMARK    4  A    between atoms: C_18  and  C_19
REMARK                            x       y       z     vdW  Elec       q    Type
REMARK                         _______ _______ _______ _____ _____    ______ ____
ROOT
ATOM      1  N   UNL     1       1.884   1.745   4.015  0.00  0.00    -0.255 N 
ATOM      2  C   UNL     1       1.241   0.945   3.144  0.00  0.00    +0.268 A 
ATOM      3  O   UNL     1       1.834   0.042   2.579  0.00  0.00    -0.267 OA
ATOM      4  C   UNL     1      -0.150   1.169   2.892  0.00  0.00    +0.076 A 
ATOM      5  C   UNL     1      -1.036   0.422   1.993  0.00  0.00    -0.023 A 
ATOM      6  C   UNL     1      -2.312   0.844   1.920  0.00  0.00    -0.004 A 
ATOM      7  S   UNL     1      -2.414   2.216   3.041  0.00  0.00    -0.073 S 
ATOM      8  C   UNL     1      -0.736   2.235   3.593  0.00  0.00    +0.117 A 
ATOM      9  N   UNL     1      -0.046   2.988   4.441  0.00  0.00    -0.215 NA
ATOM     10  C   UNL     1       1.234   2.761   4.657  0.00  0.00    +0.178 A 
ATOM     11  C   UNL     1      -3.415   0.285   1.076  0.00  0.00    +0.043 C 
ATOM     12  C   UNL     1      -3.463  -1.240   1.247  0.00  0.00    +0.005 C 
ATOM     13  C   UNL     1      -2.547  -1.868   0.201  0.00  0.00    +0.001 C 
ATOM     14  C   UNL     1      -1.356  -0.950  -0.070  0.00  0.00    +0.005 C 
ATOM     15  C   UNL     1      -0.522  -0.771   1.193  0.00  0.00    +0.037 C 
ENDROOT
BRANCH   1  19
ATOM     16  C   UNL     1       5.935   1.111   4.764  0.00  0.00    +0.000 A 
ATOM     17  C   UNL     1       4.982   0.467   5.533  0.00  0.00    +0.002 A 
ATOM     18  C   UNL     1       3.639   0.676   5.287  0.00  0.00    +0.026 A 
ATOM     19  C   UNL     1       3.246   1.532   4.267  0.00  0.00    +0.052 A 
ATOM     20  C   UNL     1       4.205   2.172   3.494  0.00  0.00    +0.026 A 
ATOM     21  C   UNL     1       5.547   1.964   3.748  0.00  0.00    +0.002 A 
ENDBRANCH   1  19
BRANCH  10  22
ATOM     22  S   UNL     1       2.119   3.781   5.789  0.00  0.00    -0.079 S 
BRANCH  22  23
ATOM     23  C   UNL     1       0.794   4.902   6.304  0.00  0.00    +0.153 C 
BRANCH  23  24
ATOM     24  C   UNL     1       1.335   5.893   7.303  0.00  0.00    +0.146 A 
ATOM     25  N   UNL     1       1.295   5.615   8.594  0.00  0.00    -0.199 NA
ATOM     26  C   UNL     1       1.776   6.486   9.479  0.00  0.00    +0.217 A 
ATOM     27  N   UNL     1       2.287   7.640   9.062  0.00  0.00    -0.181 NA
ATOM     28  C   UNL     1       2.320   7.917   7.764  0.00  0.00    +0.217 A 
ATOM     29  N   UNL     1       1.842   7.039   6.885  0.00  0.00    -0.199 NA
ATOM     30  N   UNL     1       2.849   9.114   7.326  0.00  0.00    -0.327 N 
ATOM     31  N   UNL     1       1.739   6.194  10.827  0.00  0.00    -0.327 N 
ATOM     32  H   UNL     1       2.873   9.316   6.378  0.00  0.00    +0.145 HD
ATOM     33  H   UNL     1       3.197   9.754   7.967  0.00  0.00    +0.145 HD
ATOM     34  H   UNL     1       2.086   6.830  11.471  0.00  0.00    +0.145 HD
ATOM     35  H   UNL     1       1.366   5.351  11.130  0.00  0.00    +0.145 HD
ENDBRANCH  23  24
ENDBRANCH  22  23
ENDBRANCH  10  22
TORSDOF 4
