REMARK  Name = ZINC66391987
REMARK  10 active torsions:
REMARK  status: ('A' for Active; 'I' for Inactive)
REMARK    1  A    between atoms: C_1  and  C_2
REMARK    2  A    between atoms: C_2  and  C_4
REMARK    3  A    between atoms: C_2  and  N_11
REMARK    4  A    between atoms: N_6  and  C_7
REMARK    5  A    between atoms: C_7  and  C_8
REMARK    6  A    between atoms: C_8  and  C_9
REMARK    7  A    between atoms: C_8  and  C_10
REMARK    8  A    between atoms: N_11  and  C_12
REMARK    9  A    between atoms: C_12  and  C_13
REMARK   10  A    between atoms: C_13  and  C_19
REMARK                            x       y       z     vdW  Elec       q    Type
REMARK                         _______ _______ _______ _____ _____    ______ ____
ROOT
ATOM      1  C   UNL     1      -2.079  -0.106  -1.044  0.00  0.00    -0.070 C 
ENDROOT
BRANCH   1   2
ATOM      2  C   UNL     1      -3.442  -0.760  -1.279  0.00  0.00    -0.014 C 
ATOM      3  C   UNL     1      -3.922  -0.446  -2.700  0.00  0.00    +0.038 C 
ATOM      4  C   UNL     1      -4.114   1.066  -2.843  0.00  0.00    +0.160 C 
ATOM      5  O   UNL     1      -5.046   1.521  -1.860  0.00  0.00    -0.380 OA
ATOM      6  C   UNL     1      -4.628   1.298  -0.512  0.00  0.00    +0.160 C 
ATOM      7  C   UNL     1      -4.457  -0.205  -0.275  0.00  0.00    +0.038 C 
BRANCH   2   8
ATOM      8  C   UNL     1      -3.322  -2.252  -1.103  0.00  0.00    -0.024 A 
ATOM      9  C   UNL     1      -2.092  -2.819  -0.827  0.00  0.00    +0.007 A 
ATOM     10  C   UNL     1      -1.982  -4.187  -0.665  0.00  0.00    +0.020 A 
ATOM     11  C   UNL     1      -3.103  -4.990  -0.780  0.00  0.00    +0.042 A 
ATOM     12  C   UNL     1      -4.334  -4.423  -1.056  0.00  0.00    +0.040 A 
ATOM     13  C   UNL     1      -4.445  -3.053  -1.213  0.00  0.00    +0.046 A 
ATOM     14 CL   UNL     1      -5.991  -2.340  -1.553  0.00  0.00    -0.083 Cl
ATOM     15 CL   UNL     1      -2.964  -6.708  -0.577  0.00  0.00    -0.083 Cl
ENDBRANCH   2   8
ENDBRANCH   1   2
BRANCH   1  16
ATOM     16  N   UNL     1      -1.698  -0.262   0.366  0.00  0.00    +0.387 N 
ATOM     17  H   UNL     1      -1.723  -1.240   0.615  0.00  0.00    -0.085 HD
ATOM     18  H   UNL     1      -2.344   0.250   0.948  0.00  0.00    -0.085 HD
BRANCH  16  20
ATOM     19  C   UNL     1      -0.330   1.768   0.310  0.00  0.00    -0.004 C 
ATOM     20  C   UNL     1      -0.340   0.260   0.567  0.00  0.00    +0.013 C 
BRANCH  20  21
ATOM     21  C   UNL     1       0.098  -0.010   1.984  0.00  0.00    +0.199 C 
ATOM     22  O   UNL     1      -0.648  -0.582   2.750  0.00  0.00    -0.278 OA
ATOM     23  N   UNL     1       1.319   0.383   2.398  0.00  0.00    -0.316 N 
ATOM     24  H   UNL     1       1.915   0.840   1.785  0.00  0.00    +0.149 HD
BRANCH  23  25
ATOM     25  C   UNL     1       1.744   0.120   3.775  0.00  0.00    +0.107 C 
BRANCH  25  26
ATOM     26  C   UNL     1       3.159   0.664   3.984  0.00  0.00    -0.000 C 
ATOM     27  C   UNL     1       3.145   2.188   3.849  0.00  0.00    +0.009 C 
ATOM     28  C   UNL     1       3.652   0.280   5.381  0.00  0.00    +0.009 C 
ENDBRANCH  25  26
ENDBRANCH  23  25
ENDBRANCH  20  21
ENDBRANCH  16  20
ENDBRANCH   1  16
TORSDOF 7
