REMARK  Name = ZINC39992710
REMARK  7 active torsions:
REMARK  status: ('A' for Active; 'I' for Inactive)
REMARK    1  A    between atoms: C_8  and  C_11
REMARK    2  A    between atoms: C_12  and  C_13
REMARK    3  A    between atoms: C_12  and  C_15
REMARK    4  A    between atoms: N_17  and  C_18
REMARK    5  A    between atoms: C_19  and  C_27
REMARK    6  A    between atoms: N_29  and  C_30
REMARK    7  A    between atoms: C_30  and  C_31
REMARK                            x       y       z     vdW  Elec       q    Type
REMARK                         _______ _______ _______ _____ _____    ______ ____
ROOT
ATOM      1  C   UNL     1       5.370  -8.095   0.505  0.00  0.00    +0.085 A 
ATOM      2  C   UNL     1       6.520  -8.845   0.697  0.00  0.00    +0.069 A 
ATOM      3  C   UNL     1       6.412 -10.283   0.519  0.00  0.00    -0.023 A 
ATOM      4  C   UNL     1       5.174 -10.706   0.182  0.00  0.00    -0.004 A 
ATOM      5  S   UNL     1       4.198  -9.233   0.115  0.00  0.00    -0.077 S 
ATOM      6  C   UNL     1       4.744 -12.118  -0.071  0.00  0.00    +0.043 C 
ATOM      7  C   UNL     1       6.002 -12.979  -0.260  0.00  0.00    +0.005 C 
ATOM      8  C   UNL     1       6.989 -12.669   0.870  0.00  0.00    +0.005 C 
ATOM      9  C   UNL     1       7.564 -11.263   0.688  0.00  0.00    +0.037 C 
ENDROOT
BRANCH   1  12
ATOM     10  C   UNL     1       4.018  -6.156   0.398  0.00  0.00    +0.259 C 
ATOM     11  O   UNL     1       3.062  -6.850   0.105  0.00  0.00    -0.269 OA
ATOM     12  N   UNL     1       5.221  -6.722   0.616  0.00  0.00    -0.275 N 
ATOM     13  H   UNL     1       5.982  -6.169   0.850  0.00  0.00    +0.156 HD
BRANCH  10  15
ATOM     14  C   UNL     1       2.620  -4.117   0.291  0.00  0.00    +0.031 C 
ATOM     15  C   UNL     1       3.860  -4.701   0.515  0.00  0.00    +0.114 C 
BRANCH  14  23
ATOM     16  C   UNL     1       3.401   1.677  -1.445  0.00  0.00    +0.001 A 
ATOM     17  C   UNL     1       2.757   2.232  -0.350  0.00  0.00    +0.004 A 
ATOM     18  C   UNL     1       2.282   1.429   0.670  0.00  0.00    +0.046 A 
ATOM     19  C   UNL     1       2.448   0.057   0.602  0.00  0.00    +0.128 A 
ATOM     20  C   UNL     1       3.100  -0.510  -0.509  0.00  0.00    +0.017 A 
ATOM     21  C   UNL     1       3.576   0.312  -1.533  0.00  0.00    +0.011 A 
ATOM     22  C   UNL     1       3.261  -1.968  -0.559  0.00  0.00    +0.018 C 
ATOM     23  C   UNL     1       2.494  -2.722   0.284  0.00  0.00    -0.008 C 
ATOM     24  C   UNL     1       1.512  -2.045   1.204  0.00  0.00    +0.264 C 
ATOM     25  O   UNL     1       1.995  -0.756   1.587  0.00  0.00    -0.487 OA
ENDBRANCH  14  23
BRANCH  15  26
ATOM     26  C   UNL     1       4.984  -3.884   0.861  0.00  0.00    +0.104 C 
ATOM     27  N   UNL     1       5.876  -3.236   1.135  0.00  0.00    -0.191 NA
ENDBRANCH  15  26
ENDBRANCH  10  15
ENDBRANCH   1  12
BRANCH   2  28
ATOM     28  C   UNL     1       7.792  -8.215   1.062  0.00  0.00    +0.247 C 
ATOM     29  O   UNL     1       8.080  -8.061   2.235  0.00  0.00    -0.270 OA
ATOM     30  N   UNL     1       8.642  -7.805   0.101  0.00  0.00    -0.309 N 
ATOM     31  H   UNL     1       8.413  -7.928  -0.834  0.00  0.00    +0.149 HD
BRANCH  30  32
ATOM     32  C   UNL     1       9.913  -7.175   0.466  0.00  0.00    +0.136 C 
BRANCH  32  33
ATOM     33  C   UNL     1      10.684  -6.808  -0.803  0.00  0.00    +0.135 C 
ATOM     34  C   UNL     1      12.049  -6.171  -0.438  0.00  0.00    +0.035 C 
ATOM     35  C   UNL     1      12.871  -6.481  -1.719  0.00  0.00    +0.031 C 
ATOM     36  C   UNL     1      12.304  -7.852  -2.148  0.00  0.00    +0.160 C 
ATOM     37  O   UNL     1      11.008  -7.992  -1.550  0.00  0.00    -0.375 OA
ENDBRANCH  32  33
ENDBRANCH  30  32
ENDBRANCH   2  28
TORSDOF 7
