REMARK  Name = ZINC33514203
REMARK  9 active torsions:
REMARK  status: ('A' for Active; 'I' for Inactive)
REMARK    1  A    between atoms: C_11  and  C_14
REMARK    2  A    between atoms: C_14  and  C_15
REMARK    3  A    between atoms: N_17  and  C_18
REMARK    4  A    between atoms: C_18  and  C_19
REMARK    5  A    between atoms: C_19  and  C_20
REMARK    6  A    between atoms: C_20  and  C_21
REMARK    7  A    between atoms: C_21  and  N_22
REMARK    8  A    between atoms: C_23  and  C_25
REMARK    9  A    between atoms: C_25  and  C_26
REMARK                            x       y       z     vdW  Elec       q    Type
REMARK                         _______ _______ _______ _____ _____    ______ ____
ROOT
ATOM      1  C   UNL     1       6.218   5.493  -3.065  0.00  0.00    +0.020 C 
ENDROOT
BRANCH   1   2
ATOM      2  C   UNL     1       4.699   5.670  -3.051  0.00  0.00    +0.104 C 
BRANCH   2   5
ATOM      3  C   UNL     1       2.929   6.013  -1.412  0.00  0.00    +0.217 C 
ATOM      4  O   UNL     1       2.128   6.028  -2.323  0.00  0.00    -0.275 OA
ATOM      5  N   UNL     1       4.240   5.840  -1.670  0.00  0.00    -0.315 N 
ATOM      6  H   UNL     1       4.966   5.827  -0.844  0.00  0.00    +0.149 HD
BRANCH   3   7
ATOM      7  C   UNL     1       2.457   6.189   0.009  0.00  0.00    +0.134 C 
BRANCH   7  18
ATOM      8  C   UNL     1      -0.013   1.076   0.008  0.00  0.00    +0.001 A 
ATOM      9  C   UNL     1       1.189   1.778   0.000  0.00  0.00    +0.001 A 
ATOM     10  C   UNL     1       1.202   3.142   0.006  0.00  0.00    +0.009 A 
ATOM     11  C   UNL     1      -0.006   3.847   0.021  0.00  0.00    -0.007 A 
ATOM     12  C   UNL     1      -1.230   3.135   0.030  0.00  0.00    -0.017 A 
ATOM     13  C   UNL     1      -1.207   1.731   0.017  0.00  0.00    +0.008 A 
ATOM     14  C   UNL     1      -2.445   3.846   0.044  0.00  0.00    +0.012 A 
ATOM     15  C   UNL     1      -2.465   5.202   0.050  0.00  0.00    +0.047 A 
ATOM     16  C   UNL     1      -1.285   5.954   0.043  0.00  0.00    +0.136 A 
ATOM     17  C   UNL     1      -0.047   5.304   0.028  0.00  0.00    +0.031 A 
ATOM     18  C   UNL     1       0.960   6.363   0.023  0.00  0.00    +0.007 A 
ATOM     19  C   UNL     1       0.282   7.522   0.035  0.00  0.00    +0.200 A 
ATOM     20  O   UNL     1      -1.039   7.280   0.046  0.00  0.00    -0.463 OA
ENDBRANCH   7  18
ENDBRANCH   3   7
ENDBRANCH   2   5
ENDBRANCH   1   2
BRANCH   1  21
ATOM     21  C   UNL     1       6.697   5.315  -4.508  0.00  0.00    +0.020 C 
BRANCH  21  22
ATOM     22  C   UNL     1       8.217   5.139  -4.522  0.00  0.00    +0.104 C 
BRANCH  22  23
ATOM     23  N   UNL     1       8.676   4.969  -5.903  0.00  0.00    -0.315 N 
ATOM     24  C   UNL     1       9.987   4.795  -6.161  0.00  0.00    +0.217 C 
ATOM     25  O   UNL     1      10.788   4.780  -5.250  0.00  0.00    -0.275 OA
ATOM     26  H   UNL     1       7.949   4.982  -6.729  0.00  0.00    +0.149 HD
BRANCH  24  27
ATOM     27  C   UNL     1      10.459   4.620  -7.582  0.00  0.00    +0.134 C 
BRANCH  27  28
ATOM     28  C   UNL     1      11.956   4.446  -7.596  0.00  0.00    +0.007 A 
ATOM     29  C   UNL     1      12.878   5.404  -7.787  0.00  0.00    +0.200 A 
ATOM     30  O   UNL     1      14.110   4.870  -7.732  0.00  0.00    -0.463 OA
ATOM     31  C   UNL     1      14.049   3.543  -7.504  0.00  0.00    +0.136 A 
ATOM     32  C   UNL     1      12.697   3.202  -7.399  0.00  0.00    +0.031 A 
ATOM     33  C   UNL     1      12.328   1.816  -7.144  0.00  0.00    -0.007 A 
ATOM     34  C   UNL     1      10.992   1.417  -7.033  0.00  0.00    +0.009 A 
ATOM     35  C   UNL     1      10.696   0.107  -6.793  0.00  0.00    +0.001 A 
ATOM     36  C   UNL     1      11.707  -0.840  -6.656  0.00  0.00    +0.001 A 
ATOM     37  C   UNL     1      13.018  -0.485  -6.759  0.00  0.00    +0.008 A 
ATOM     38  C   UNL     1      13.359   0.855  -7.006  0.00  0.00    -0.017 A 
ATOM     39  C   UNL     1      14.703   1.259  -7.117  0.00  0.00    +0.012 A 
ATOM     40  C   UNL     1      15.028   2.552  -7.364  0.00  0.00    +0.047 A 
ENDBRANCH  27  28
ENDBRANCH  24  27
ENDBRANCH  22  23
ENDBRANCH  21  22
ENDBRANCH   1  21
TORSDOF 9
