REMARK  Name = ZINC01658868
REMARK  3 active torsions:
REMARK  status: ('A' for Active; 'I' for Inactive)
REMARK    1  A    between atoms: C_8  and  C_21
REMARK    2  A    between atoms: N_10  and  C_11
REMARK    3  A    between atoms: C_14  and  C_17
REMARK                            x       y       z     vdW  Elec       q    Type
REMARK                         _______ _______ _______ _____ _____    ______ ____
ROOT
ATOM      1  C   UNL     1      -0.017   1.363   0.009  0.00  0.00    +0.001 A 
ATOM      2  C   UNL     1       1.169   2.084   0.002  0.00  0.00    +0.004 A 
ATOM      3  C   UNL     1       2.387   1.435  -0.015  0.00  0.00    +0.047 A 
ATOM      4  C   UNL     1       2.430   0.049  -0.025  0.00  0.00    +0.137 A 
ATOM      5  C   UNL     1       1.227  -0.681  -0.013  0.00  0.00    +0.018 A 
ATOM      6  C   UNL     1       0.002  -0.004   0.002  0.00  0.00    +0.011 A 
ATOM      7  C   UNL     1       1.275  -2.146  -0.013  0.00  0.00    +0.028 A 
ATOM      8  C   UNL     1       2.500  -2.743   0.248  0.00  0.00    +0.078 A 
ATOM      9  C   UNL     1       3.644  -1.847   0.502  0.00  0.00    +0.210 A 
ATOM     10  N   UNL     1       4.664  -2.240   1.240  0.00  0.00    -0.325 N 
ATOM     11  O   UNL     1       3.616  -0.606  -0.046  0.00  0.00    -0.439 OA
ATOM     12  H   UNL     1       4.669  -3.131   1.624  0.00  0.00    +0.169 HD
ENDROOT
BRANCH   8  13
ATOM     13  C   UNL     1       2.651  -4.210   0.272  0.00  0.00    +0.144 A 
ATOM     14  N   UNL     1       1.645  -5.110   0.043  0.00  0.00    -0.338 N 
ATOM     15  H   UNL     1       0.720  -4.900  -0.161  0.00  0.00    +0.167 HD
ATOM     16  C   UNL     1       2.193  -6.373   0.155  0.00  0.00    +0.066 A 
ATOM     17  C   UNL     1       1.684  -7.659   0.034  0.00  0.00    +0.028 A 
ATOM     18  C   UNL     1       2.516  -8.744   0.211  0.00  0.00    +0.002 A 
ATOM     19  C   UNL     1       3.859  -8.559   0.510  0.00  0.00    +0.002 A 
ATOM     20  C   UNL     1       4.379  -7.302   0.634  0.00  0.00    +0.030 A 
ATOM     21  C   UNL     1       3.554  -6.186   0.458  0.00  0.00    +0.089 A 
ATOM     22  N   UNL     1       3.772  -4.849   0.510  0.00  0.00    -0.228 NA
ENDBRANCH   8  13
BRANCH  10  23
ATOM     23  C   UNL     1       5.710  -1.397   1.461  0.00  0.00    +0.042 A 
ATOM     24  C   UNL     1       6.249  -0.656   0.401  0.00  0.00    +0.026 A 
ATOM     25  C   UNL     1       7.297   0.189   0.624  0.00  0.00    +0.015 A 
ATOM     26  C   UNL     1       7.832   0.316   1.910  0.00  0.00    +0.037 A 
ATOM     27  C   UNL     1       7.294  -0.423   2.970  0.00  0.00    +0.015 A 
ATOM     28  C   UNL     1       6.242  -1.264   2.750  0.00  0.00    +0.026 A 
BRANCH  26  29
ATOM     29  C   UNL     1       8.965   1.229   2.150  0.00  0.00    +0.242 C 
ATOM     30  O   UNL     1       9.433   1.871   1.229  0.00  0.00    -0.270 OA
ATOM     31  N   UNL     1       9.480   1.352   3.389  0.00  0.00    -0.325 N 
ATOM     32  H   UNL     1       9.107   0.840   4.123  0.00  0.00    +0.145 HD
ATOM     33  H   UNL     1      10.226   1.952   3.546  0.00  0.00    +0.145 HD
ENDBRANCH  26  29
ENDBRANCH  10  23
TORSDOF 3
