REMARK  Name = ZINC38778774
REMARK  7 active torsions:
REMARK  status: ('A' for Active; 'I' for Inactive)
REMARK    1  A    between atoms: C_4  and  C_7
REMARK    2  A    between atoms: C_9  and  C_17
REMARK    3  A    between atoms: C_17  and  C_19
REMARK    4  A    between atoms: C_19  and  O_20
REMARK    5  A    between atoms: O_20  and  C_21
REMARK    6  A    between atoms: C_21  and  C_23
REMARK    7  A    between atoms: C_32  and  C_35
REMARK                            x       y       z     vdW  Elec       q    Type
REMARK                         _______ _______ _______ _____ _____    ______ ____
ROOT
ATOM      1  O   UNL     1       4.663  -0.519   5.066  0.00  0.00    -0.456 OA
ENDROOT
BRANCH   1   2
ATOM      2  C   UNL     1       4.875  -0.792   6.363  0.00  0.00    +0.311 C 
ATOM      3  O   UNL     1       4.860  -1.937   6.749  0.00  0.00    -0.251 OA
BRANCH   2   4
ATOM      4  C   UNL     1       5.130   0.329   7.337  0.00  0.00    +0.101 C 
ATOM      5  C   UNL     1       6.382   1.099   6.911  0.00  0.00    +0.033 C 
ATOM      6  C   UNL     1       6.619   2.258   7.884  0.00  0.00    +0.107 C 
ATOM      7  N   UNL     1       6.675   1.724   9.252  0.00  0.00    -0.315 N 
ATOM      8  C   UNL     1       5.563   0.893   9.732  0.00  0.00    +0.107 C 
ATOM      9  C   UNL     1       5.338  -0.251   8.738  0.00  0.00    +0.033 C 
ATOM     10  C   UNL     1       7.756   1.999  10.072  0.00  0.00    +0.121 A 
ATOM     11  C   UNL     1       8.683   2.966   9.688  0.00  0.00    +0.044 A 
ATOM     12  C   UNL     1       9.750   3.234  10.501  0.00  0.00    +0.018 A 
ATOM     13  C   UNL     1       9.872   2.520  11.703  0.00  0.00    +0.055 A 
ATOM     14  C   UNL     1       8.906   1.565  12.025  0.00  0.00    +0.126 A 
ATOM     15  N   UNL     1       7.892   1.342  11.216  0.00  0.00    -0.240 NA
BRANCH  13  16
ATOM     16  C   UNL     1      11.006   2.774  12.613  0.00  0.00    +0.243 C 
ATOM     17  O   UNL     1      11.843   3.607  12.323  0.00  0.00    -0.270 OA
ATOM     18  N   UNL     1      11.114   2.083  13.765  0.00  0.00    -0.325 N 
ATOM     19  H   UNL     1      10.446   1.418  13.995  0.00  0.00    +0.145 HD
ATOM     20  H   UNL     1      11.859   2.250  14.363  0.00  0.00    +0.145 HD
ENDBRANCH  13  16
ENDBRANCH   2   4
ENDBRANCH   1   2
BRANCH   1  21
ATOM     21  C   UNL     1       4.428  -1.630   4.199  0.00  0.00    +0.311 C 
BRANCH  21  22
ATOM     22  C   UNL     1       4.213  -1.133   2.792  0.00  0.00    +0.199 C 
ATOM     23  O   UNL     1       4.258   0.057   2.555  0.00  0.00    -0.289 OA
BRANCH  22  25
ATOM     24  C   UNL     1       3.723  -1.735   0.290  0.00  0.00    +0.144 C 
ATOM     25  C   UNL     1       3.961  -2.051   1.750  0.00  0.00    +0.034 C 
ATOM     26  C   UNL     1       3.877  -3.428   1.851  0.00  0.00    +0.007 A 
ATOM     27  C   UNL     1       4.007  -4.323   2.938  0.00  0.00    +0.010 A 
ATOM     28  C   UNL     1       3.876  -5.655   2.744  0.00  0.00    +0.001 A 
ATOM     29  C   UNL     1       3.610  -6.210   1.482  0.00  0.00    +0.002 A 
ATOM     30  C   UNL     1       3.468  -5.443   0.380  0.00  0.00    +0.026 A 
ATOM     31  C   UNL     1       3.597  -3.982   0.503  0.00  0.00    +0.044 A 
ATOM     32  N   UNL     1       3.511  -3.023  -0.377  0.00  0.00    -0.373 N 
ATOM     33  H   UNL     1       3.334  -3.143  -1.323  0.00  0.00    +0.161 HD
BRANCH  24  37
ATOM     34  C   UNL     1       0.261   0.730  -0.139  0.00  0.00    +0.000 A 
ATOM     35  C   UNL     1       1.522   1.294  -0.195  0.00  0.00    +0.000 A 
ATOM     36  C   UNL     1       2.642   0.496  -0.056  0.00  0.00    +0.006 A 
ATOM     37  C   UNL     1       2.502  -0.865   0.140  0.00  0.00    -0.021 A 
ATOM     38  C   UNL     1       1.241  -1.429   0.197  0.00  0.00    +0.006 A 
ATOM     39  C   UNL     1       0.120  -0.631   0.056  0.00  0.00    +0.000 A 
ENDBRANCH  24  37
ENDBRANCH  22  25
ENDBRANCH  21  22
ENDBRANCH   1  21
TORSDOF 7
