REMARK  Name = ZINC60159525
REMARK  9 active torsions:
REMARK  status: ('A' for Active; 'I' for Inactive)
REMARK    1  A    between atoms: C_4  and  C_7
REMARK    2  A    between atoms: C_7  and  N_8
REMARK    3  A    between atoms: C_13  and  C_15
REMARK    4  A    between atoms: C_15  and  N_16
REMARK    5  A    between atoms: C_17  and  C_19
REMARK    6  A    between atoms: C_19  and  C_20
REMARK    7  A    between atoms: C_20  and  C_21
REMARK    8  A    between atoms: C_24  and  S_27
REMARK    9  A    between atoms: S_27  and  N_30
REMARK                            x       y       z     vdW  Elec       q    Type
REMARK                         _______ _______ _______ _____ _____    ______ ____
ROOT
ATOM      1  N   UNL     1       5.953  -0.209  -0.509  0.00  0.00    -0.317 N 
ATOM      2  C   UNL     1       6.714   0.561  -1.312  0.00  0.00    +0.213 C 
ATOM      3  O   UNL     1       7.840   0.860  -0.975  0.00  0.00    -0.276 OA
ATOM      4  H   UNL     1       5.052  -0.448  -0.778  0.00  0.00    +0.149 HD
ENDROOT
BRANCH   1   5
ATOM      5  C   UNL     1       6.485  -0.683   0.771  0.00  0.00    +0.089 C 
BRANCH   5  11
ATOM      6  N   UNL     1       5.141  -2.708   0.485  0.00  0.00    +0.385 N 
ATOM      7  C   UNL     1       4.232  -3.664   1.129  0.00  0.00    -0.078 C 
ATOM      8  C   UNL     1       2.917  -2.965   1.482  0.00  0.00    -0.019 C 
ATOM      9  C   UNL     1       3.203  -1.805   2.441  0.00  0.00    -0.003 C 
ATOM     10  C   UNL     1       4.210  -0.853   1.788  0.00  0.00    -0.014 C 
ATOM     11  C   UNL     1       5.476  -1.630   1.424  0.00  0.00    -0.051 C 
ATOM     12  H   UNL     1       4.691  -2.316  -0.329  0.00  0.00    -0.081 HD
BRANCH   6  13
ATOM     13  C   UNL     1       6.370  -3.401   0.078  0.00  0.00    -0.043 C 
BRANCH  13  17
ATOM     14  C   UNL     1       5.448  -6.287  -2.934  0.00  0.00    +0.000 A 
ATOM     15  C   UNL     1       5.781  -4.994  -3.294  0.00  0.00    +0.000 A 
ATOM     16  C   UNL     1       6.079  -4.061  -2.319  0.00  0.00    +0.002 A 
ATOM     17  C   UNL     1       6.044  -4.419  -0.985  0.00  0.00    -0.064 A 
ATOM     18  C   UNL     1       5.710  -5.711  -0.625  0.00  0.00    +0.002 A 
ATOM     19  C   UNL     1       5.413  -6.646  -1.599  0.00  0.00    +0.000 A 
ENDBRANCH  13  17
ENDBRANCH   6  13
ENDBRANCH   5  11
ENDBRANCH   1   5
BRANCH   2  20
ATOM     20  C   UNL     1       6.167   1.048  -2.628  0.00  0.00    +0.100 C 
BRANCH  20  21
ATOM     21  C   UNL     1       7.225   1.895  -3.338  0.00  0.00    +0.044 C 
BRANCH  21  22
ATOM     22  C   UNL     1       6.678   2.382  -4.655  0.00  0.00    -0.047 A 
ATOM     23  C   UNL     1       6.844   1.622  -5.797  0.00  0.00    +0.005 A 
ATOM     24  C   UNL     1       6.342   2.069  -7.005  0.00  0.00    +0.029 A 
ATOM     25  C   UNL     1       5.673   3.277  -7.070  0.00  0.00    +0.105 A 
ATOM     26  C   UNL     1       5.505   4.037  -5.928  0.00  0.00    +0.029 A 
ATOM     27  C   UNL     1       6.004   3.588  -4.719  0.00  0.00    +0.005 A 
BRANCH  25  28
ATOM     28  S   UNL     1       5.034   3.848  -8.610  0.00  0.00    +0.061 S 
ATOM     29  O   UNL     1       4.927   5.261  -8.506  0.00  0.00    -0.153 OA
ATOM     30  O   UNL     1       5.797   3.214  -9.627  0.00  0.00    -0.153 OA
BRANCH  28  31
ATOM     31  N   UNL     1       3.489   3.265  -8.745  0.00  0.00    -0.177 NA
ATOM     32  C   UNL     1       3.234   1.960  -9.370  0.00  0.00    +0.109 C 
ATOM     33  C   UNL     1       2.409   1.104  -8.404  0.00  0.00    +0.017 C 
ATOM     34  C   UNL     1       1.144   1.868  -8.005  0.00  0.00    +0.003 C 
ATOM     35  C   UNL     1       1.534   3.164  -7.290  0.00  0.00    +0.017 C 
ATOM     36  C   UNL     1       2.349   4.041  -8.238  0.00  0.00    +0.109 C 
ENDBRANCH  28  31
ENDBRANCH  25  28
ENDBRANCH  21  22
ENDBRANCH  20  21
ENDBRANCH   2  20
TORSDOF 9
