REMARK  Name = ZINC36635810
REMARK  3 active torsions:
REMARK  status: ('A' for Active; 'I' for Inactive)
REMARK    1  A    between atoms: C_6  and  N_7
REMARK    2  A    between atoms: C_11  and  N_15
REMARK    3  A    between atoms: N_15  and  C_16
REMARK                            x       y       z     vdW  Elec       q    Type
REMARK                         _______ _______ _______ _____ _____    ______ ____
ROOT
ATOM      1  N   UNL     1      -1.202  -0.723   0.010  0.00  0.00    -0.209 N 
ATOM      2  C   UNL     1      -2.398  -0.131   0.118  0.00  0.00    +0.228 C 
ATOM      3  O   UNL     1      -2.585   1.062   0.218  0.00  0.00    -0.275 OA
ATOM      4  C   UNL     1      -3.481  -1.188   0.094  0.00  0.00    +0.128 C 
ATOM      5  C   UNL     1      -2.694  -2.508  -0.048  0.00  0.00    +0.166 C 
ATOM      6  C   UNL     1      -1.250  -2.057  -0.095  0.00  0.00    +0.247 C 
ATOM      7  O   UNL     1      -0.290  -2.787  -0.207  0.00  0.00    -0.273 OA
ENDROOT
BRANCH   1  13
ATOM      8  C   UNL     1       0.775   0.044  -1.150  0.00  0.00    +0.025 A 
ATOM      9  C   UNL     1       1.961   0.753  -1.156  0.00  0.00    +0.022 A 
ATOM     10  C   UNL     1       2.378   1.415  -0.014  0.00  0.00    +0.041 A 
ATOM     11  C   UNL     1       1.609   1.368   1.135  0.00  0.00    +0.022 A 
ATOM     12  C   UNL     1       0.423   0.660   1.146  0.00  0.00    +0.025 A 
ATOM     13  C   UNL     1       0.002  -0.004   0.002  0.00  0.00    +0.044 A 
ATOM     14 CL   UNL     1       3.869   2.304  -0.024  0.00  0.00    -0.084 Cl
ENDBRANCH   1  13
BRANCH   5  15
ATOM     15  N   UNL     1      -2.933  -3.377   1.107  0.00  0.00    -0.331 N 
ATOM     16  H   UNL     1      -3.198  -2.992   1.957  0.00  0.00    +0.147 HD
BRANCH  15  17
ATOM     17  C   UNL     1      -2.781  -4.761   0.983  0.00  0.00    +0.046 A 
ATOM     18  C   UNL     1      -2.397  -5.313  -0.232  0.00  0.00    +0.026 A 
ATOM     19  C   UNL     1      -2.246  -6.681  -0.352  0.00  0.00    +0.022 A 
ATOM     20  C   UNL     1      -2.478  -7.502   0.738  0.00  0.00    +0.042 A 
ATOM     21  C   UNL     1      -2.861  -6.956   1.950  0.00  0.00    +0.041 A 
ATOM     22  C   UNL     1      -3.008  -5.587   2.077  0.00  0.00    +0.063 A 
ATOM     23 CL   UNL     1      -3.481  -4.902   3.600  0.00  0.00    -0.082 Cl
ATOM     24 CL   UNL     1      -2.288  -9.221   0.583  0.00  0.00    -0.083 Cl
ENDBRANCH  15  17
ENDBRANCH   5  15
TORSDOF 3
