REMARK  Name = ZINC02276537
REMARK  4 active torsions:
REMARK  status: ('A' for Active; 'I' for Inactive)
REMARK    1  A    between atoms: C_3  and  C_6
REMARK    2  A    between atoms: C_6  and  N_7
REMARK    3  A    between atoms: C_11  and  C_14
REMARK    4  A    between atoms: C_14  and  N_16
REMARK                            x       y       z     vdW  Elec       q    Type
REMARK                         _______ _______ _______ _____ _____    ______ ____
ROOT
ATOM      1  N   UNL     1       4.095   0.486   1.342  0.00  0.00    -0.304 N 
ATOM      2  C   UNL     1       4.309   1.614   2.085  0.00  0.00    +0.029 A 
ATOM      3  C   UNL     1       4.756   1.523   3.353  0.00  0.00    +0.020 A 
ATOM      4  C   UNL     1       5.021   0.255   3.914  0.00  0.00    +0.201 A 
ATOM      5  C   UNL     1       4.805  -0.895   3.150  0.00  0.00    +0.150 A 
ATOM      6  C   UNL     1       4.318  -0.744   1.830  0.00  0.00    +0.268 A 
ATOM      7  O   UNL     1       4.107  -1.725   1.138  0.00  0.00    -0.267 OA
ATOM      8  O   UNL     1       5.482   0.154   5.181  0.00  0.00    -0.287 OA
ATOM      9  C   UNL     1       4.986   2.726   4.230  0.00  0.00    +0.041 C 
ATOM     10  C   UNL     1       5.085   3.998   3.390  0.00  0.00    +0.005 C 
ATOM     11  C   UNL     1       3.874   4.046   2.450  0.00  0.00    +0.006 C 
ATOM     12  C   UNL     1       4.029   2.935   1.414  0.00  0.00    +0.054 C 
ENDROOT
BRANCH   5  13
ATOM     13  C   UNL     1       5.072  -2.231   3.706  0.00  0.00    +0.278 C 
ATOM     14  O   UNL     1       5.488  -2.345   4.847  0.00  0.00    -0.268 OA
BRANCH  13  15
ATOM     15  N   UNL     1       4.859  -3.323   2.959  0.00  0.00    -0.152 NA
ATOM     16  C   UNL     1       5.100  -4.528   3.461  0.00  0.00    +0.164 A 
ATOM     17  N   UNL     1       5.556  -4.861   4.702  0.00  0.00    -0.335 N 
ATOM     18  H   UNL     1       5.749  -4.164   5.348  0.00  0.00    +0.168 HD
ATOM     19  C   UNL     1       5.745  -6.188   5.043  0.00  0.00    +0.055 A 
ATOM     20  C   UNL     1       6.205  -6.700   6.268  0.00  0.00    +0.028 A 
ATOM     21  C   UNL     1       6.344  -8.054   6.460  0.00  0.00    +0.017 A 
ATOM     22  C   UNL     1       6.036  -8.957   5.456  0.00  0.00    +0.019 A 
ATOM     23  C   UNL     1       5.580  -8.482   4.238  0.00  0.00    +0.032 A 
ATOM     24  C   UNL     1       5.441  -7.128   4.046  0.00  0.00    +0.040 A 
ATOM     25  S   UNL     1       4.901  -6.123   2.685  0.00  0.00    -0.052 S 
ATOM     26 BR   UNL     1       6.237 -10.816   5.744  0.00  0.00    -0.050 Br
ENDBRANCH  13  15
ENDBRANCH   5  13
BRANCH   1  27
ATOM     27  C   UNL     1       3.599   0.625  -0.029  0.00  0.00    +0.199 C 
BRANCH  27  30
ATOM     28  C   UNL     1       6.489   0.581  -2.316  0.00  0.00    +0.041 A 
ATOM     29  C   UNL     1       5.530  -0.085  -1.519  0.00  0.00    +0.046 A 
ATOM     30  C   UNL     1       4.759   0.866  -0.961  0.00  0.00    +0.125 A 
ATOM     31  O   UNL     1       5.198   2.065  -1.375  0.00  0.00    -0.466 OA
ATOM     32  C   UNL     1       6.247   1.899  -2.196  0.00  0.00    +0.195 A 
ENDBRANCH  27  30
ENDBRANCH   1  27
TORSDOF 4
