REMARK  Name = ZINC39881984
REMARK  13 active torsions:
REMARK  status: ('A' for Active; 'I' for Inactive)
REMARK    1  A    between atoms: C_1  and  C_2
REMARK    2  A    between atoms: C_2  and  C_3
REMARK    3  A    between atoms: C_2  and  C_4
REMARK    4  A    between atoms: C_2  and  C_5
REMARK    5  A    between atoms: N_7  and  C_8
REMARK    6  A    between atoms: C_8  and  C_18
REMARK    7  A    between atoms: C_9  and  C_10
REMARK    8  A    between atoms: C_13  and  O_16
REMARK    9  A    between atoms: O_16  and  C_17
REMARK   10  A    between atoms: N_20  and  C_21
REMARK   11  A    between atoms: C_21  and  C_22
REMARK   12  A    between atoms: C_21  and  C_23
REMARK   13  A    between atoms: C_21  and  C_24
REMARK                            x       y       z     vdW  Elec       q    Type
REMARK                         _______ _______ _______ _____ _____    ______ ____
ROOT
ATOM      1  C   UNL     1       1.424  -2.398  -2.599  0.00  0.00    +0.096 C 
ATOM      2  C   UNL     1       1.790  -3.700  -2.640  0.00  0.00    +0.036 C 
ENDROOT
BRANCH   2   3
ATOM      3  C   UNL     1       2.861  -4.135  -3.549  0.00  0.00    -0.023 A 
ATOM      4  C   UNL     1       3.928  -3.277  -3.838  0.00  0.00    +0.011 A 
ATOM      5  C   UNL     1       4.928  -3.689  -4.690  0.00  0.00    +0.046 A 
ATOM      6  C   UNL     1       4.879  -4.955  -5.262  0.00  0.00    +0.120 A 
ATOM      7  C   UNL     1       3.822  -5.811  -4.978  0.00  0.00    +0.046 A 
ATOM      8  C   UNL     1       2.819  -5.411  -4.123  0.00  0.00    +0.011 A 
BRANCH   6   9
ATOM      9  O   UNL     1       5.868  -5.356  -6.102  0.00  0.00    -0.495 OA
ATOM     10  C   UNL     1       5.756  -6.669  -6.655  0.00  0.00    +0.277 C 
ENDBRANCH   6   9
ENDBRANCH   2   3
BRANCH   1  13
ATOM     11  C   UNL     1       0.069  -0.685  -1.656  0.00  0.00    +0.223 C 
ATOM     12  O   UNL     1       0.524   0.102  -2.459  0.00  0.00    -0.275 OA
ATOM     13  N   UNL     1       0.513  -1.957  -1.632  0.00  0.00    -0.281 N 
ATOM     14  H   UNL     1       0.201  -2.567  -0.945  0.00  0.00    +0.155 HD
BRANCH  11  16
ATOM     15  C   UNL     1      -1.316   1.237  -0.922  0.00  0.00    +0.020 C 
ATOM     16  C   UNL     1      -0.994  -0.240  -0.684  0.00  0.00    +0.039 C 
ATOM     17  C   UNL     1      -0.488  -0.428   0.747  0.00  0.00    +0.020 C 
ATOM     18  C   UNL     1      -2.258  -1.077  -0.893  0.00  0.00    +0.020 C 
ENDBRANCH  11  16
ENDBRANCH   1  13
BRANCH   1  19
ATOM     19  C   UNL     1       1.983  -1.448  -3.569  0.00  0.00    +0.259 C 
ATOM     20  O   UNL     1       2.805  -0.625  -3.210  0.00  0.00    -0.269 OA
ATOM     21  N   UNL     1       1.586  -1.487  -4.856  0.00  0.00    -0.306 N 
ATOM     22  H   UNL     1       0.880  -2.093  -5.128  0.00  0.00    +0.150 HD
BRANCH  21  23
ATOM     23  C   UNL     1       2.222  -0.613  -5.846  0.00  0.00    +0.027 C 
ATOM     24  C   UNL     1       3.719  -0.922  -5.911  0.00  0.00    +0.031 C 
ATOM     25  C   UNL     1       1.591  -0.854  -7.219  0.00  0.00    +0.031 C 
ATOM     26  C   UNL     1       2.020   0.848  -5.441  0.00  0.00    +0.031 C 
ENDBRANCH  21  23
ENDBRANCH   1  19
TORSDOF 6
