REMARK  Name = ZINC34730464
REMARK  8 active torsions:
REMARK  status: ('A' for Active; 'I' for Inactive)
REMARK    1  A    between atoms: C_1  and  C_2
REMARK    2  A    between atoms: C_5  and  N_9
REMARK    3  A    between atoms: C_6  and  N_8
REMARK    4  A    between atoms: N_13  and  C_16
REMARK    5  A    between atoms: C_16  and  C_17
REMARK    6  A    between atoms: C_20  and  C_23
REMARK    7  A    between atoms: C_23  and  C_24
REMARK    8  A    between atoms: C_23  and  C_25
REMARK                            x       y       z     vdW  Elec       q    Type
REMARK                         _______ _______ _______ _____ _____    ______ ____
ROOT
ATOM      1  N   UNL     1       0.058  -4.177  -0.034  0.00  0.00    -0.254 N 
ATOM      2  C   UNL     1      -1.208  -4.911  -0.041  0.00  0.00    +0.117 C 
ATOM      3  C   UNL     1      -1.009  -6.251  -0.756  0.00  0.00    +0.038 C 
ATOM      4  C   UNL     1       0.137  -7.004  -0.072  0.00  0.00    +0.111 C 
ATOM      5  N   UNL     1       1.331  -6.156  -0.064  0.00  0.00    -0.281 N 
ATOM      6  C   UNL     1       1.236  -4.818  -0.046  0.00  0.00    +0.309 C 
ATOM      7  O   UNL     1       2.259  -4.161  -0.035  0.00  0.00    -0.252 OA
ENDROOT
BRANCH   1  12
ATOM      8  C   UNL     1      -0.018   1.503   0.010  0.00  0.00    +0.044 C 
ATOM      9  C   UNL     1       0.002  -0.004   0.002  0.00  0.00    -0.049 A 
ATOM     10  C   UNL     1       0.006  -0.687  -1.200  0.00  0.00    +0.005 A 
ATOM     11  C   UNL     1       0.024  -2.069  -1.215  0.00  0.00    +0.025 A 
ATOM     12  C   UNL     1       0.040  -2.775  -0.022  0.00  0.00    +0.058 A 
ATOM     13  C   UNL     1       0.036  -2.087   1.191  0.00  0.00    +0.047 A 
ATOM     14  C   UNL     1       0.023  -0.700   1.196  0.00  0.00    +0.028 A 
BRANCH  13  15
ATOM     15  N   UNL     1       0.051  -2.793   2.399  0.00  0.00    -0.357 N 
ATOM     16  H   UNL     1       0.064  -3.763   2.393  0.00  0.00    +0.142 HD
ATOM     17  H   UNL     1       0.048  -2.313   3.241  0.00  0.00    +0.142 HD
ENDBRANCH  13  15
ENDBRANCH   1  12
BRANCH   5  18
ATOM     18  C   UNL     1       2.655  -6.782  -0.082  0.00  0.00    +0.144 C 
BRANCH  18  19
ATOM     19  C   UNL     1       3.101  -6.972  -1.508  0.00  0.00    -0.030 A 
ATOM     20  C   UNL     1       2.790  -8.139  -2.180  0.00  0.00    +0.005 A 
ATOM     21  C   UNL     1       3.199  -8.314  -3.489  0.00  0.00    +0.004 A 
ATOM     22  C   UNL     1       3.920  -7.321  -4.126  0.00  0.00    -0.045 A 
ATOM     23  C   UNL     1       4.231  -6.154  -3.455  0.00  0.00    +0.004 A 
ATOM     24  C   UNL     1       3.818  -5.977  -2.147  0.00  0.00    +0.005 A 
BRANCH  22  25
ATOM     25  C   UNL     1       4.367  -7.512  -5.553  0.00  0.00    +0.013 C 
ATOM     26  C   UNL     1       3.764  -6.411  -6.428  0.00  0.00    +0.012 C 
ATOM     27  C   UNL     1       5.894  -7.440  -5.622  0.00  0.00    +0.012 C 
ENDBRANCH  22  25
ENDBRANCH  18  19
ENDBRANCH   5  18
TORSDOF 5
