REMARK  Name = ZINC08254432
REMARK  8 active torsions:
REMARK  status: ('A' for Active; 'I' for Inactive)
REMARK    1  A    between atoms: C_1  and  O_2
REMARK    2  A    between atoms: O_2  and  C_3
REMARK    3  A    between atoms: C_8  and  N_9
REMARK    4  A    between atoms: C_15  and  C_17
REMARK    5  A    between atoms: C_25  and  C_27
REMARK    6  A    between atoms: C_27  and  N_28
REMARK    7  A    between atoms: C_30  and  C_33
REMARK    8  A    between atoms: C_37  and  N_39
REMARK                            x       y       z     vdW  Elec       q    Type
REMARK                         _______ _______ _______ _____ _____    ______ ____
ROOT
ATOM      1  C   UNL     1       1.423   1.609  -2.450  0.00  0.00    +0.062 C 
ATOM      2  C   UNL     1       2.101   1.102  -1.175  0.00  0.00    -0.065 C 
ATOM      3  C   UNL     1       1.386   3.063   0.052  0.00  0.00    -0.078 C 
ATOM      4  C   UNL     1       0.687   3.627  -1.188  0.00  0.00    -0.015 C 
ATOM      5  C   UNL     1       0.208   2.460  -2.060  0.00  0.00    -0.004 C 
ATOM      6  C   UNL     1      -0.751   1.594  -1.234  0.00  0.00    -0.010 C 
ATOM      7  C   UNL     1      -0.013   1.086   0.008  0.00  0.00    -0.046 C 
ATOM      8  N   UNL     1       1.379   1.585   0.021  0.00  0.00    +0.383 N 
ATOM      9  H   UNL     1       1.852   1.231   0.862  0.00  0.00    -0.081 HD
ENDROOT
BRANCH   1  16
ATOM     10  N   UNL     1       5.330   0.595  -5.370  0.00  0.00    -0.324 N 
ATOM     11  C   UNL     1       4.871   1.944  -5.727  0.00  0.00    +0.124 C 
ATOM     12  C   UNL     1       4.511   2.711  -4.450  0.00  0.00    +0.126 C 
ATOM     13  N   UNL     1       3.549   1.909  -3.679  0.00  0.00    -0.298 N 
ATOM     14  C   UNL     1       3.883   0.506  -3.394  0.00  0.00    +0.126 C 
ATOM     15  C   UNL     1       4.264  -0.177  -4.718  0.00  0.00    +0.124 C 
ATOM     16  C   UNL     1       2.395   2.449  -3.239  0.00  0.00    +0.217 C 
ATOM     17  O   UNL     1       2.138   3.610  -3.478  0.00  0.00    -0.275 OA
BRANCH  10  23
ATOM     18  C   UNL     1       7.143  -0.522  -6.520  0.00  0.00    +0.141 A 
ATOM     19  C   UNL     1       7.625  -1.190  -7.633  0.00  0.00    +0.047 A 
ATOM     20  C   UNL     1       6.795  -1.417  -8.716  0.00  0.00    +0.004 A 
ATOM     21  C   UNL     1       5.484  -0.979  -8.691  0.00  0.00    +0.002 A 
ATOM     22  C   UNL     1       4.994  -0.317  -7.581  0.00  0.00    +0.027 A 
ATOM     23  C   UNL     1       5.822  -0.081  -6.494  0.00  0.00    +0.072 A 
BRANCH  18  25
ATOM     24  C   UNL     1       9.300  -0.780  -5.551  0.00  0.00    +0.277 C 
ATOM     25  O   UNL     1       7.958  -0.298  -5.454  0.00  0.00    -0.493 OA
ENDBRANCH  18  25
ENDBRANCH  10  23
ENDBRANCH   1  16
BRANCH   7  26
ATOM     26  C   UNL     1      -0.730   1.580   1.266  0.00  0.00    +0.130 C 
BRANCH  26  27
ATOM     27  N   UNL     1      -0.094   0.998   2.451  0.00  0.00    -0.253 N 
ATOM     28  C   UNL     1       0.405   1.690   3.500  0.00  0.00    +0.138 A 
ATOM     29  C   UNL     1       0.895   0.757   4.368  0.00  0.00    +0.113 A 
ATOM     30  N   UNL     1       0.675  -0.440   3.796  0.00  0.00    -0.130 NA
ATOM     31  N   UNL     1       0.089  -0.257   2.666  0.00  0.00    -0.065 NA
BRANCH  29  32
ATOM     32  C   UNL     1       1.545   1.014   5.678  0.00  0.00    +0.005 A 
ATOM     33  C   UNL     1       1.607   2.310   6.185  0.00  0.00    +0.010 A 
ATOM     34  C   UNL     1       2.212   2.547   7.403  0.00  0.00    +0.002 A 
ATOM     35  C   UNL     1       2.756   1.501   8.124  0.00  0.00    +0.023 A 
ATOM     36  C   UNL     1       2.698   0.205   7.627  0.00  0.00    +0.025 A 
ATOM     37  C   UNL     1       2.088  -0.041   6.405  0.00  0.00    +0.032 A 
BRANCH  36  38
ATOM     38  N   UNL     1       3.249  -0.850   8.358  0.00  0.00    -0.358 N 
ATOM     39  H   UNL     1       3.672  -0.677   9.214  0.00  0.00    +0.142 HD
ATOM     40  H   UNL     1       3.209  -1.754   8.010  0.00  0.00    +0.142 HD
ENDBRANCH  36  38
ENDBRANCH  29  32
ENDBRANCH  26  27
ENDBRANCH   7  26
TORSDOF 7
