REMARK  Name = ZINC09426312
REMARK  6 active torsions:
REMARK  status: ('A' for Active; 'I' for Inactive)
REMARK    1  A    between atoms: C_1  and  C_2
REMARK    2  A    between atoms: C_11  and  C_13
REMARK    3  A    between atoms: N_20  and  C_21
REMARK    4  A    between atoms: C_21  and  C_22
REMARK    5  A    between atoms: C_25  and  O_28
REMARK    6  A    between atoms: O_28  and  C_29
REMARK                            x       y       z     vdW  Elec       q    Type
REMARK                         _______ _______ _______ _____ _____    ______ ____
ROOT
ATOM      1  C   UNL     1      -0.013   1.086   0.008  0.00  0.00    +0.066 C 
ATOM      2  C   UNL     1      -0.718   1.572   1.248  0.00  0.00    +0.047 A 
ATOM      3  C   UNL     1      -0.853   2.911   1.473  0.00  0.00    +0.093 A 
ATOM      4  C   UNL     1      -1.514   3.345   2.638  0.00  0.00    +0.257 A 
ATOM      5  O   UNL     1      -1.667   4.534   2.864  0.00  0.00    -0.267 OA
ATOM      6  N   UNL     1      -1.968   2.416   3.499  0.00  0.00    -0.259 N 
ATOM      7  C   UNL     1      -1.816   1.089   3.214  0.00  0.00    +0.206 A 
ATOM      8  N   UNL     1      -1.204   0.692   2.124  0.00  0.00    -0.221 NA
ATOM      9  N   UNL     1      -2.342   0.188   4.120  0.00  0.00    -0.259 N 
ATOM     10  C   UNL     1      -3.526   0.566   4.743  0.00  0.00    +0.162 C 
ATOM     11  C   UNL     1      -2.622   2.792   4.756  0.00  0.00    +0.192 C 
ATOM     12  N   UNL     1      -4.498  -0.362   5.032  0.00  0.00    -0.314 N 
ATOM     13  H   UNL     1      -1.909  -0.659   4.311  0.00  0.00    +0.158 HD
ATOM     14  H   UNL     1      -5.320  -0.084   5.467  0.00  0.00    +0.149 HD
ATOM     15  N   UNL     1      -3.751   1.847   5.076  0.00  0.00    -0.340 N 
ATOM     16  H   UNL     1      -4.626   2.159   5.514  0.00  0.00    +0.164 HD
ENDROOT
BRANCH  11  17
ATOM     17  C   UNL     1      -1.597   2.775   5.891  0.00  0.00    +0.036 C 
ATOM     18  C   UNL     1      -2.281   3.157   7.210  0.00  0.00    +0.012 C 
ATOM     19  C   UNL     1      -1.279   2.959   8.350  0.00  0.00    +0.027 C 
ATOM     20  C   UNL     1       0.024   3.623   8.013  0.00  0.00    -0.031 C 
ATOM     21  C   UNL     1       0.367   3.983   6.818  0.00  0.00    -0.031 C 
ATOM     22  C   UNL     1      -0.495   3.797   5.604  0.00  0.00    +0.034 C 
ENDBRANCH  11  17
BRANCH  12  23
ATOM     23  C   UNL     1      -4.293  -1.770   4.685  0.00  0.00    +0.139 C 
BRANCH  23  24
ATOM     24  C   UNL     1      -5.497  -2.572   5.106  0.00  0.00    -0.030 A 
ATOM     25  C   UNL     1      -5.545  -3.135   6.367  0.00  0.00    +0.009 A 
ATOM     26  C   UNL     1      -6.650  -3.866   6.758  0.00  0.00    +0.046 A 
ATOM     27  C   UNL     1      -7.708  -4.045   5.878  0.00  0.00    +0.120 A 
ATOM     28  C   UNL     1      -7.656  -3.483   4.611  0.00  0.00    +0.046 A 
ATOM     29  C   UNL     1      -6.551  -2.748   4.228  0.00  0.00    +0.009 A 
BRANCH  27  30
ATOM     30  O   UNL     1      -8.794  -4.769   6.258  0.00  0.00    -0.495 OA
ATOM     31  C   UNL     1      -8.779  -5.317   7.577  0.00  0.00    +0.277 C 
ENDBRANCH  27  30
ENDBRANCH  23  24
ENDBRANCH  12  23
TORSDOF 4
