REMARK  Name = ZINC05486807
REMARK  14 active torsions:
REMARK  status: ('A' for Active; 'I' for Inactive)
REMARK    1  A    between atoms: C_1  and  C_2
REMARK    2  A    between atoms: C_2  and  N_66
REMARK    3  A    between atoms: C_3  and  C_4
REMARK    4  A    between atoms: C_3  and  N_66
REMARK    5  A    between atoms: C_5  and  C_6
REMARK    6  A    between atoms: C_5  and  N_66
REMARK    7  A    between atoms: C_6  and  N_7
REMARK    8  A    between atoms: N_7  and  C_8
REMARK    9  A    between atoms: C_11  and  C_34
REMARK   10  A    between atoms: C_18  and  O_23
REMARK   11  A    between atoms: O_23  and  S_24
REMARK   12  A    between atoms: S_24  and  C_27
REMARK   13  A    between atoms: C_30  and  C_33
REMARK   14  A    between atoms: C_34  and  O_35
REMARK                            x       y       z     vdW  Elec       q    Type
REMARK                         _______ _______ _______ _____ _____    ______ ____
ROOT
ATOM      1  C   UNL     1       1.114  -1.778  -1.263  0.00  0.00    +0.042 A 
ATOM      2  C   UNL     1       0.445  -2.729  -0.506  0.00  0.00    +0.024 A 
ATOM      3  C   UNL     1       0.612  -4.074  -0.778  0.00  0.00    +0.011 A 
ATOM      4  C   UNL     1       1.441  -4.493  -1.800  0.00  0.00    +0.021 A 
ATOM      5  C   UNL     1       2.124  -3.563  -2.575  0.00  0.00    +0.146 A 
ATOM      6  C   UNL     1       1.954  -2.195  -2.306  0.00  0.00    +0.086 A 
ATOM      7  C   UNL     1       2.686  -1.213  -3.125  0.00  0.00    +0.202 A 
ATOM      8  O   UNL     1       2.580  -0.016  -2.932  0.00  0.00    -0.286 OA
ATOM      9  C   UNL     1       3.549  -1.752  -4.197  0.00  0.00    +0.068 A 
ATOM     10  C   UNL     1       4.276  -0.898  -5.026  0.00  0.00    +0.064 A 
ATOM     11  C   UNL     1       5.077  -1.429  -6.019  0.00  0.00    +0.158 A 
ATOM     12  C   UNL     1       5.154  -2.808  -6.189  0.00  0.00    +0.052 A 
ATOM     13  C   UNL     1       4.439  -3.657  -5.373  0.00  0.00    +0.050 A 
ATOM     14  C   UNL     1       3.627  -3.143  -4.367  0.00  0.00    +0.140 A 
ATOM     15  O   UNL     1       2.931  -3.981  -3.571  0.00  0.00    -0.454 OA
ENDROOT
BRANCH   1  16
ATOM     16  N   UNL     1       0.950  -0.425  -0.994  0.00  0.00    -0.345 N 
ATOM     17  H   UNL     1       1.354   0.237  -1.576  0.00  0.00    +0.146 HD
BRANCH  16  18
ATOM     18  C   UNL     1       0.167   0.000   0.169  0.00  0.00    +0.083 C 
BRANCH  18  19
ATOM     19  C   UNL     1       0.143   1.528   0.236  0.00  0.00    -0.060 C 
BRANCH  19  20
ATOM     20  N   UNL     1      -0.765   1.940   1.327  0.00  0.00    +0.380 N 
ATOM     21  H   UNL     1      -1.606   1.351   1.302  0.00  0.00    -0.082 HD
BRANCH  20  23
ATOM     22  C   UNL     1      -1.123   1.983   3.747  0.00  0.00    -0.017 C 
ATOM     23  C   UNL     1      -0.096   1.766   2.634  0.00  0.00    -0.082 C 
ENDBRANCH  20  23
BRANCH  20  24
ATOM     24  C   UNL     1      -1.162   3.353   1.148  0.00  0.00    -0.082 C 
ATOM     25  C   UNL     1      -2.230   3.426   0.054  0.00  0.00    -0.017 C 
ENDBRANCH  20  24
ENDBRANCH  19  20
ENDBRANCH  18  19
ENDBRANCH  16  18
ENDBRANCH   1  16
BRANCH  11  26
ATOM     26  O   UNL     1       5.788  -0.603  -6.832  0.00  0.00    -0.342 OA
BRANCH  26  27
ATOM     27  S   UNL     1       5.043  -0.178  -8.089  0.00  0.00    +0.151 S 
ATOM     28  O   UNL     1       5.985   0.496  -8.912  0.00  0.00    -0.131 OA
ATOM     29  O   UNL     1       4.318  -1.316  -8.536  0.00  0.00    -0.131 OA
BRANCH  27  30
ATOM     30  C   UNL     1       3.847   1.022  -7.605  0.00  0.00    +0.128 A 
ATOM     31  C   UNL     1       2.575   0.623  -7.240  0.00  0.00    +0.031 A 
ATOM     32  C   UNL     1       1.639   1.564  -6.856  0.00  0.00    +0.005 A 
ATOM     33  C   UNL     1       1.971   2.906  -6.846  0.00  0.00    -0.050 A 
ATOM     34  C   UNL     1       3.242   3.306  -7.216  0.00  0.00    +0.005 A 
ATOM     35  C   UNL     1       4.180   2.364  -7.596  0.00  0.00    +0.031 A 
ATOM     36  C   UNL     1       0.949   3.933  -6.432  0.00  0.00    +0.044 C 
ENDBRANCH  27  30
ENDBRANCH  26  27
ENDBRANCH  11  26
BRANCH   4  37
ATOM     37  C   UNL     1       1.606  -5.965  -2.077  0.00  0.00    +0.194 C 
BRANCH  37  38
ATOM     38  O   UNL     1       0.810  -6.715  -1.156  0.00  0.00    -0.390 OA
ATOM     39  H   UNL     1       0.868  -7.673  -1.276  0.00  0.00    +0.210 HD
ENDBRANCH  37  38
ENDBRANCH   4  37
TORSDOF 11
