REMARK  Name = ZINC09612648
REMARK  4 active torsions:
REMARK  status: ('A' for Active; 'I' for Inactive)
REMARK    1  A    between atoms: N_13  and  C_17
REMARK    2  A    between atoms: C_17  and  C_18
REMARK    3  A    between atoms: N_20  and  C_21
REMARK    4  A    between atoms: C_22  and  C_29
REMARK                            x       y       z     vdW  Elec       q    Type
REMARK                         _______ _______ _______ _____ _____    ______ ____
ROOT
ATOM      1  C   UNL     1      -1.135  -2.201   0.001  0.00  0.00    +0.214 C 
ENDROOT
BRANCH   1  14
ATOM      2  C   UNL     1      -7.645  -0.745  -1.804  0.00  0.00    +0.000 A 
ATOM      3  C   UNL     1      -6.762  -0.412  -0.794  0.00  0.00    +0.000 A 
ATOM      4  C   UNL     1      -5.778  -1.304  -0.422  0.00  0.00    +0.006 A 
ATOM      5  C   UNL     1      -5.667  -2.536  -1.053  0.00  0.00    -0.012 A 
ATOM      6  C   UNL     1      -6.549  -2.869  -2.058  0.00  0.00    -0.042 A 
ATOM      7  C   UNL     1      -7.538  -1.969  -2.432  0.00  0.00    +0.004 A 
ATOM      8  C   UNL     1      -6.490  -4.191  -2.778  0.00  0.00    +0.035 C 
ATOM      9  C   UNL     1      -5.127  -4.851  -2.584  0.00  0.00    +0.008 C 
ATOM     10  C   UNL     1      -4.815  -4.888  -1.083  0.00  0.00    +0.040 C 
ATOM     11  C   UNL     1      -4.571  -3.462  -0.605  0.00  0.00    +0.138 C 
ATOM     12  C   UNL     1      -3.232  -2.964  -1.099  0.00  0.00    +0.251 C 
ATOM     13  O   UNL     1      -2.880  -2.825  -2.251  0.00  0.00    -0.272 OA
ATOM     14  N   UNL     1      -2.510  -2.708   0.011  0.00  0.00    -0.215 N 
ATOM     15  C   UNL     1      -3.203  -2.979   1.124  0.00  0.00    +0.310 C 
ATOM     16  O   UNL     1      -2.762  -2.834   2.247  0.00  0.00    -0.252 OA
ATOM     17  N   UNL     1      -4.444  -3.429   0.859  0.00  0.00    -0.281 N 
ATOM     18  H   UNL     1      -5.120  -3.683   1.506  0.00  0.00    +0.152 HD
ENDBRANCH   1  14
BRANCH   1  19
ATOM     19  C   UNL     1      -1.156  -0.694   0.009  0.00  0.00    +0.236 C 
ATOM     20  O   UNL     1      -2.214  -0.102   0.023  0.00  0.00    -0.274 OA
ATOM     21  N   UNL     1       0.002  -0.004   0.002  0.00  0.00    -0.278 N 
ATOM     22  H   UNL     1       0.849  -0.478  -0.009  0.00  0.00    +0.155 HD
BRANCH  21  23
ATOM     23  C   UNL     1      -0.017   1.382   0.010  0.00  0.00    +0.084 A 
ATOM     24  C   UNL     1       1.056   2.257   0.004  0.00  0.00    +0.068 A 
ATOM     25  C   UNL     1       0.761   3.690   0.014  0.00  0.00    -0.023 A 
ATOM     26  C   UNL     1      -0.546   4.004   0.030  0.00  0.00    -0.004 A 
ATOM     27  S   UNL     1      -1.387   2.439   0.021  0.00  0.00    -0.077 S 
ATOM     28  C   UNL     1      -0.769   5.492   0.043  0.00  0.00    +0.043 C 
ATOM     29  C   UNL     1       0.592   6.086   0.468  0.00  0.00    +0.010 C 
ATOM     30  C   UNL     1       1.571   4.987   0.008  0.00  0.00    +0.037 C 
BRANCH  24  31
ATOM     31  C   UNL     1       2.437   1.766  -0.011  0.00  0.00    +0.244 C 
ATOM     32  O   UNL     1       3.001   1.567  -1.071  0.00  0.00    -0.270 OA
ATOM     33  N   UNL     1       3.083   1.534   1.150  0.00  0.00    -0.325 N 
ATOM     34  H   UNL     1       2.633   1.692   1.994  0.00  0.00    +0.145 HD
ATOM     35  H   UNL     1       3.996   1.209   1.140  0.00  0.00    +0.145 HD
ENDBRANCH  24  31
ENDBRANCH  21  23
ENDBRANCH   1  19
TORSDOF 4
