REMARK  Name = ZINC67393018
REMARK  10 active torsions:
REMARK  status: ('A' for Active; 'I' for Inactive)
REMARK    1  A    between atoms: C_1  and  C_2
REMARK    2  A    between atoms: N_7  and  C_9
REMARK    3  A    between atoms: C_9  and  C_10
REMARK    4  A    between atoms: C_9  and  C_11
REMARK    5  A    between atoms: C_9  and  C_12
REMARK    6  A    between atoms: C_12  and  N_13
REMARK    7  A    between atoms: C_14  and  C_16
REMARK    8  A    between atoms: N_18  and  C_19
REMARK    9  A    between atoms: C_26  and  C_28
REMARK   10  A    between atoms: C_26  and  C_29
REMARK                            x       y       z     vdW  Elec       q    Type
REMARK                         _______ _______ _______ _____ _____    ______ ____
ROOT
ATOM      1  N   UNL     1       2.190  -4.461   1.145  0.00  0.00    -0.309 N 
ATOM      2  C   UNL     1       2.326  -5.782   0.918  0.00  0.00    +0.299 C 
ATOM      3  O   UNL     1       1.939  -6.583   1.743  0.00  0.00    -0.265 OA
ATOM      4  H   UNL     1       2.499  -3.821   0.485  0.00  0.00    +0.149 HD
ENDROOT
BRANCH   2   5
ATOM      5  C   UNL     1       2.954  -6.261  -0.350  0.00  0.00    +0.303 C 
ATOM      6  O   UNL     1       3.342  -5.460  -1.176  0.00  0.00    -0.265 OA
ATOM      7  N   UNL     1       3.091  -7.583  -0.577  0.00  0.00    -0.278 N 
ATOM      8  H   UNL     1       2.843  -8.221   0.110  0.00  0.00    +0.155 HD
BRANCH   7   9
ATOM      9  C   UNL     1       3.590  -8.034  -1.803  0.00  0.00    +0.038 A 
ATOM     10  C   UNL     1       3.103  -9.209  -2.361  0.00  0.00    +0.027 A 
ATOM     11  C   UNL     1       3.595  -9.656  -3.572  0.00  0.00    +0.051 A 
ATOM     12  C   UNL     1       4.576  -8.934  -4.234  0.00  0.00    +0.167 A 
ATOM     13  C   UNL     1       5.066  -7.755  -3.676  0.00  0.00    +0.169 A 
ATOM     14  C   UNL     1       4.568  -7.304  -2.466  0.00  0.00    +0.073 A 
ATOM     15  O   UNL     1       6.014  -7.238  -4.512  0.00  0.00    -0.448 OA
ATOM     16  C   UNL     1       6.391  -8.322  -5.383  0.00  0.00    +0.248 C 
ATOM     17  O   UNL     1       5.217  -9.155  -5.419  0.00  0.00    -0.448 OA
ATOM     18  C   UNL     1       7.578  -9.091  -4.800  0.00  0.00    +0.104 C 
ATOM     19  C   UNL     1       6.721  -7.798  -6.781  0.00  0.00    +0.104 C 
ENDBRANCH   7   9
ENDBRANCH   2   5
BRANCH   1  20
ATOM     20  C   UNL     1       1.574  -3.991   2.388  0.00  0.00    +0.092 C 
BRANCH  20  21
ATOM     21  C   UNL     1       1.541  -2.461   2.394  0.00  0.00    -0.055 C 
ATOM     22  C   UNL     1       2.968  -1.920   2.296  0.00  0.00    -0.008 C 
ATOM     23  C   UNL     1       0.897  -1.971   3.693  0.00  0.00    -0.008 C 
BRANCH  21  29
ATOM     24  C   UNL     1      -0.040   1.518   0.021  0.00  0.00    +0.005 C 
ATOM     25  C   UNL     1      -0.015  -0.012   0.014  0.00  0.00    -0.031 C 
ATOM     26  C   UNL     1      -1.449  -0.547   0.038  0.00  0.00    -0.001 C 
ATOM     27  C   UNL     1      -1.412  -2.076   0.111  0.00  0.00    -0.018 C 
ATOM     28  C   UNL     1      -0.613  -2.504   1.344  0.00  0.00    -0.078 C 
ATOM     29  N   UNL     1       0.756  -1.984   1.248  0.00  0.00    +0.384 N 
ATOM     30  C   UNL     1       0.734  -0.516   1.250  0.00  0.00    -0.075 C 
ATOM     31  H   UNL     1       1.180  -2.311   0.393  0.00  0.00    -0.081 HD
ENDBRANCH  21  29
ENDBRANCH  20  21
ENDBRANCH   1  20
TORSDOF 5
