REMARK  Name = ZINC13671923
REMARK  8 active torsions:
REMARK  status: ('A' for Active; 'I' for Inactive)
REMARK    1  A    between atoms: C_1  and  C_2
REMARK    2  A    between atoms: C_2  and  N_3
REMARK    3  A    between atoms: C_11  and  C_32
REMARK    4  A    between atoms: C_14  and  N_19
REMARK    5  A    between atoms: C_20  and  C_22
REMARK    6  A    between atoms: C_23  and  C_24
REMARK    7  A    between atoms: C_27  and  O_30
REMARK    8  A    between atoms: O_30  and  C_31
REMARK                            x       y       z     vdW  Elec       q    Type
REMARK                         _______ _______ _______ _____ _____    ______ ____
ROOT
ATOM      1  N   UNL     1      -1.419  -0.486   0.026  0.00  0.00    +0.382 N 
ATOM      2  C   UNL     1      -2.085  -0.097  -1.223  0.00  0.00    -0.060 C 
ATOM      3  C   UNL     1      -3.555  -0.527  -1.173  0.00  0.00    +0.088 C 
ATOM      4  N   UNL     1      -3.610  -1.967  -0.879  0.00  0.00    -0.319 N 
ATOM      5  C   UNL     1      -2.835  -2.471   0.265  0.00  0.00    +0.088 C 
ATOM      6  C   UNL     1      -1.399  -1.950   0.147  0.00  0.00    -0.060 C 
ATOM      7  C   UNL     1      -4.371  -2.826  -1.659  0.00  0.00    +0.122 A 
ATOM      8  C   UNL     1      -5.099  -2.306  -2.739  0.00  0.00    +0.047 A 
ATOM      9  C   UNL     1      -5.851  -3.138  -3.514  0.00  0.00    -0.038 A 
ATOM     10  C   UNL     1      -5.869  -4.512  -3.197  0.00  0.00    +0.005 A 
ATOM     11  C   UNL     1      -6.621  -5.422  -3.954  0.00  0.00    +0.033 A 
ATOM     12  C   UNL     1      -6.614  -6.757  -3.614  0.00  0.00    +0.034 A 
ATOM     13  C   UNL     1      -5.864  -7.208  -2.522  0.00  0.00    +0.025 A 
ATOM     14  C   UNL     1      -5.128  -6.344  -1.774  0.00  0.00    +0.030 A 
ATOM     15  C   UNL     1      -5.112  -4.975  -2.093  0.00  0.00    +0.073 A 
ATOM     16  N   UNL     1      -4.388  -4.111  -1.371  0.00  0.00    -0.232 NA
ATOM     17  C   UNL     1      -6.642  -2.603  -4.679  0.00  0.00    +0.044 C 
ATOM     18  H   UNL     1      -1.921  -0.093   0.809  0.00  0.00    -0.082 HD
ENDROOT
BRANCH  12  19
ATOM     19  N   UNL     1      -7.362  -7.668  -4.366  0.00  0.00    -0.282 N 
ATOM     20  C   UNL     1      -7.498  -7.494  -5.696  0.00  0.00    +0.241 C 
ATOM     21  O   UNL     1      -6.891  -6.601  -6.258  0.00  0.00    -0.270 OA
ATOM     22  H   UNL     1      -7.784  -8.426  -3.931  0.00  0.00    +0.155 HD
BRANCH  20  23
ATOM     23  C   UNL     1      -8.375  -8.378  -6.463  0.00  0.00    +0.068 C 
ATOM     24  C   UNL     1      -8.511  -8.203  -7.795  0.00  0.00    +0.013 C 
BRANCH  24  25
ATOM     25  C   UNL     1      -9.393  -9.091  -8.566  0.00  0.00    -0.025 A 
ATOM     26  C   UNL     1     -10.096 -10.115  -7.921  0.00  0.00    +0.011 A 
ATOM     27  C   UNL     1     -10.920 -10.944  -8.649  0.00  0.00    +0.046 A 
ATOM     28  C   UNL     1     -11.054 -10.766 -10.021  0.00  0.00    +0.120 A 
ATOM     29  C   UNL     1     -10.358  -9.751 -10.666  0.00  0.00    +0.046 A 
ATOM     30  C   UNL     1      -9.535  -8.912  -9.947  0.00  0.00    +0.011 A 
BRANCH  28  31
ATOM     31  O   UNL     1     -11.868 -11.586 -10.733  0.00  0.00    -0.495 OA
ATOM     32  C   UNL     1     -11.960 -11.348 -12.139  0.00  0.00    +0.277 C 
ENDBRANCH  28  31
ENDBRANCH  24  25
ENDBRANCH  20  23
ENDBRANCH  12  19
BRANCH   1  34
ATOM     33  C   UNL     1      -0.062   1.552   0.024  0.00  0.00    -0.017 C 
ATOM     34  C   UNL     1      -0.041   0.022   0.024  0.00  0.00    -0.082 C 
ENDBRANCH   1  34
TORSDOF 5
