REMARK  Name = ZINC58339225
REMARK  6 active torsions:
REMARK  status: ('A' for Active; 'I' for Inactive)
REMARK    1  A    between atoms: C_1  and  C_2
REMARK    2  A    between atoms: C_2  and  C_3
REMARK    3  A    between atoms: C_3  and  N_4
REMARK    4  A    between atoms: N_4  and  C_5
REMARK    5  A    between atoms: N_4  and  C_13
REMARK    6  A    between atoms: C_5  and  C_6
REMARK                            x       y       z     vdW  Elec       q    Type
REMARK                         _______ _______ _______ _____ _____    ______ ____
ROOT
ATOM      1  N   UNL     1      -1.313  -1.996   0.072  0.00  0.00    +0.385 N 
ATOM      2  H   UNL     1      -0.686  -2.285  -0.665  0.00  0.00    -0.081 HD
ENDROOT
BRANCH   1   3
ATOM      3  C   UNL     1      -0.754  -2.390   1.372  0.00  0.00    -0.045 C 
ATOM      4  C   UNL     1      -0.500  -3.907   1.381  0.00  0.00    +0.009 C 
ATOM      5  C   UNL     1       0.370  -4.245   2.625  0.00  0.00    +0.164 C 
ATOM      6  S   UNL     1       1.551  -2.831   2.605  0.00  0.00    -0.033 S 
ATOM      7  O   UNL     1       2.708  -3.206   1.870  0.00  0.00    -0.174 OA
ATOM      8  O   UNL     1       1.695  -2.330   3.926  0.00  0.00    -0.174 OA
ATOM      9  C   UNL     1       0.575  -1.633   1.610  0.00  0.00    +0.151 C 
ENDBRANCH   1   3
BRANCH   1  10
ATOM     10  C   UNL     1      -1.478  -0.537   0.031  0.00  0.00    -0.078 C 
BRANCH  10  12
ATOM     11  C   UNL     1      -2.434   1.437   1.227  0.00  0.00    +0.002 C 
ATOM     12  C   UNL     1      -2.352  -0.090   1.205  0.00  0.00    -0.022 C 
ENDBRANCH  10  12
ENDBRANCH   1  10
BRANCH   1  13
ATOM     13  C   UNL     1      -2.619  -2.643  -0.115  0.00  0.00    -0.043 C 
BRANCH  13  14
ATOM     14  C   UNL     1      -3.136  -2.338  -1.498  0.00  0.00    -0.064 A 
ATOM     15  C   UNL     1      -3.914  -1.216  -1.713  0.00  0.00    +0.003 A 
ATOM     16  C   UNL     1      -4.389  -0.936  -2.980  0.00  0.00    +0.020 A 
ATOM     17  C   UNL     1      -4.086  -1.780  -4.034  0.00  0.00    +0.041 A 
ATOM     18  C   UNL     1      -3.308  -2.903  -3.818  0.00  0.00    +0.020 A 
ATOM     19  C   UNL     1      -2.829  -3.179  -2.551  0.00  0.00    +0.003 A 
ATOM     20 CL   UNL     1      -4.683  -1.430  -5.626  0.00  0.00    -0.084 Cl
ENDBRANCH  13  14
ENDBRANCH   1  13
TORSDOF 5
