REMARK  Name = ZINC01726097
REMARK  6 active torsions:
REMARK  status: ('A' for Active; 'I' for Inactive)
REMARK    1  A    between atoms: C_3  and  N_8
REMARK    2  A    between atoms: N_8  and  P_9
REMARK    3  A    between atoms: P_9  and  C_11
REMARK    4  A    between atoms: P_9  and  N_18
REMARK    5  A    between atoms: C_14  and  N_17
REMARK    6  A    between atoms: N_18  and  C_19
REMARK                            x       y       z     vdW  Elec       q    Type
REMARK                         _______ _______ _______ _____ _____    ______ ____
ROOT
ATOM      1  P   UNL     1       0.002  -0.004   0.002  0.00  0.00    +0.274 P 
ATOM      2  O   UNL     1      -1.386  -0.516   0.013  0.00  0.00    -0.274 OA
ENDROOT
BRANCH   1   3
ATOM      3  C   UNL     1       0.879  -0.605   1.472  0.00  0.00    +0.047 A 
ATOM      4  C   UNL     1       0.864   0.140   2.637  0.00  0.00    +0.016 A 
ATOM      5  C   UNL     1       1.526  -0.318   3.759  0.00  0.00    +0.023 A 
ATOM      6  C   UNL     1       2.218  -1.522   3.713  0.00  0.00    +0.025 A 
ATOM      7  C   UNL     1       2.236  -2.264   2.540  0.00  0.00    +0.023 A 
ATOM      8  C   UNL     1       1.567  -1.804   1.423  0.00  0.00    +0.016 A 
BRANCH   6   9
ATOM      9  N   UNL     1       2.893  -1.984   4.845  0.00  0.00    -0.358 N 
ATOM     10  H   UNL     1       3.375  -2.826   4.812  0.00  0.00    +0.142 HD
ATOM     11  H   UNL     1       2.880  -1.465   5.664  0.00  0.00    +0.142 HD
ENDBRANCH   6   9
ENDBRANCH   1   3
BRANCH   1  12
ATOM     12  N   UNL     1      -0.020   1.636   0.011  0.00  0.00    -0.277 N 
ATOM     13  H   UNL     1      -0.867   2.109   0.018  0.00  0.00    +0.155 HD
BRANCH  12  16
ATOM     14  C   UNL     1       2.351   4.444   0.003  0.00  0.00    +0.003 A 
ATOM     15  C   UNL     1       1.163   3.740   0.011  0.00  0.00    +0.023 A 
ATOM     16  C   UNL     1       1.180   2.350   0.003  0.00  0.00    +0.035 A 
ATOM     17  C   UNL     1       2.393   1.674  -0.006  0.00  0.00    +0.043 A 
ATOM     18  C   UNL     1       3.578   2.385  -0.019  0.00  0.00    +0.043 A 
ATOM     19  C   UNL     1       3.557   3.768  -0.012  0.00  0.00    +0.020 A 
ATOM     20 CL   UNL     1       5.095   1.540  -0.038  0.00  0.00    -0.083 Cl
ENDBRANCH  12  16
ENDBRANCH   1  12
BRANCH   1  21
ATOM     21  N   UNL     1       0.770  -0.533  -1.347  0.00  0.00    -0.277 N 
ATOM     22  H   UNL     1       1.567  -1.080  -1.269  0.00  0.00    +0.155 HD
BRANCH  21  23
ATOM     23  C   UNL     1       0.276  -0.195  -2.609  0.00  0.00    +0.035 A 
ATOM     24  C   UNL     1       0.925  -0.642  -3.753  0.00  0.00    +0.023 A 
ATOM     25  C   UNL     1       0.435  -0.307  -5.000  0.00  0.00    +0.003 A 
ATOM     26  C   UNL     1      -0.702   0.473  -5.111  0.00  0.00    +0.020 A 
ATOM     27  C   UNL     1      -1.351   0.921  -3.974  0.00  0.00    +0.043 A 
ATOM     28  C   UNL     1      -0.868   0.584  -2.723  0.00  0.00    +0.043 A 
ATOM     29 CL   UNL     1      -2.777   1.900  -4.118  0.00  0.00    -0.083 Cl
ENDBRANCH  21  23
ENDBRANCH   1  21
TORSDOF 6
