REMARK  Name = ZINC33939837
REMARK  13 active torsions:
REMARK  status: ('A' for Active; 'I' for Inactive)
REMARK    1  A    between atoms: C_1  and  C_2
REMARK    2  A    between atoms: C_2  and  C_3
REMARK    3  A    between atoms: C_2  and  C_4
REMARK    4  A    between atoms: C_4  and  C_5
REMARK    5  A    between atoms: C_5  and  N_6
REMARK    6  A    between atoms: C_7  and  C_30
REMARK    7  A    between atoms: C_12  and  C_29
REMARK    8  A    between atoms: C_14  and  C_20
REMARK    9  A    between atoms: N_22  and  C_23
REMARK   10  A    between atoms: N_32  and  C_33
REMARK   11  A    between atoms: C_33  and  C_34
REMARK   12  A    between atoms: C_33  and  C_35
REMARK   13  A    between atoms: C_33  and  C_36
REMARK                            x       y       z     vdW  Elec       q    Type
REMARK                         _______ _______ _______ _____ _____    ______ ____
ROOT
ATOM      1  N   UNL     1       1.432  -0.368   3.305  0.00  0.00    -0.287 N 
ATOM      2  C   UNL     1       1.030  -1.720   3.805  0.00  0.00    +0.198 C 
ATOM      3  C   UNL     1       1.146  -1.548   5.288  0.00  0.00    +0.127 C 
ATOM      4  C   UNL     1       0.054  -0.665   5.866  0.00  0.00    +0.009 C 
ATOM      5  C   UNL     1       0.283  -0.617   7.170  0.00  0.00    +0.007 C 
ATOM      6  C   UNL     1       1.567  -1.430   7.378  0.00  0.00    +0.098 C 
ATOM      7  O   UNL     1       1.430  -2.466   6.317  0.00  0.00    -0.355 OA
ATOM      8  C   UNL     1       2.667  -0.477   6.769  0.00  0.00    +0.125 C 
ATOM      9  C   UNL     1       2.505  -0.739   5.294  0.00  0.00    +0.128 C 
ATOM     10  C   UNL     1       2.228   0.252   4.238  0.00  0.00    +0.223 C 
ATOM     11  O   UNL     1       2.626   1.397   4.202  0.00  0.00    -0.275 OA
ATOM     12  C   UNL     1       1.814  -1.947   8.797  0.00  0.00    +0.047 C 
ENDROOT
BRANCH   8  13
ATOM     13  C   UNL     1       2.376   0.965   7.099  0.00  0.00    +0.220 C 
ATOM     14  O   UNL     1       1.568   1.586   6.442  0.00  0.00    -0.275 OA
ATOM     15  N   UNL     1       3.014   1.563   8.124  0.00  0.00    -0.312 N 
ATOM     16  H   UNL     1       3.660   1.067   8.650  0.00  0.00    +0.149 HD
BRANCH  15  17
ATOM     17  C   UNL     1       2.731   2.965   8.445  0.00  0.00    +0.073 C 
ATOM     18  C   UNL     1       3.596   3.873   7.568  0.00  0.00    +0.022 C 
ATOM     19  C   UNL     1       3.301   5.336   7.903  0.00  0.00    +0.002 C 
ATOM     20  C   UNL     1       3.619   5.597   9.376  0.00  0.00    +0.000 C 
ATOM     21  C   UNL     1       2.754   4.689  10.253  0.00  0.00    +0.002 C 
ATOM     22  C   UNL     1       3.049   3.225   9.918  0.00  0.00    +0.022 C 
ENDBRANCH  15  17
ENDBRANCH   8  13
BRANCH   2  23
ATOM     23  C   UNL     1       1.978  -2.781   3.310  0.00  0.00    +0.237 C 
ATOM     24  O   UNL     1       3.077  -2.470   2.901  0.00  0.00    -0.274 OA
ATOM     25  N   UNL     1       1.606  -4.077   3.323  0.00  0.00    -0.309 N 
ATOM     26  H   UNL     1       0.728  -4.326   3.651  0.00  0.00    +0.149 HD
BRANCH  25  27
ATOM     27  C   UNL     1       2.528  -5.109   2.842  0.00  0.00    +0.026 C 
ATOM     28  C   UNL     1       3.806  -5.083   3.683  0.00  0.00    +0.031 C 
ATOM     29  C   UNL     1       1.865  -6.482   2.963  0.00  0.00    +0.031 C 
ATOM     30  C   UNL     1       2.876  -4.838   1.377  0.00  0.00    +0.031 C 
ENDBRANCH  25  27
ENDBRANCH   2  23
BRANCH   1  31
ATOM     31  C   UNL     1       1.042   0.205   2.015  0.00  0.00    +0.109 C 
BRANCH  31  32
ATOM     32  C   UNL     1       2.076  -0.176   0.954  0.00  0.00    +0.022 C 
BRANCH  32  34
ATOM     33  C   UNL     1       1.718   1.950  -0.310  0.00  0.00    +0.007 C 
ATOM     34  C   UNL     1       1.668   0.423  -0.394  0.00  0.00    -0.016 C 
ATOM     35  C   UNL     1       2.632  -0.060  -1.479  0.00  0.00    +0.007 C 
ENDBRANCH  32  34
ENDBRANCH  31  32
ENDBRANCH   1  31
TORSDOF 7
