REMARK  Name = ZINC60496494
REMARK  4 active torsions:
REMARK  status: ('A' for Active; 'I' for Inactive)
REMARK    1  A    between atoms: C_3  and  S_12
REMARK    2  A    between atoms: C_6  and  S_7
REMARK    3  A    between atoms: S_7  and  N_10
REMARK    4  A    between atoms: S_12  and  N_15
REMARK                            x       y       z     vdW  Elec       q    Type
REMARK                         _______ _______ _______ _____ _____    ______ ____
ROOT
ATOM      1  C   UNL     1       6.229   3.812  -2.928  0.00  0.00    +0.030 A 
ATOM      2  C   UNL     1       5.408   2.977  -2.194  0.00  0.00    +0.033 A 
ATOM      3  C   UNL     1       4.937   3.381  -0.959  0.00  0.00    +0.141 A 
ATOM      4  C   UNL     1       5.288   4.624  -0.458  0.00  0.00    +0.151 A 
ATOM      5  C   UNL     1       6.111   5.459  -1.194  0.00  0.00    +0.068 A 
ATOM      6  C   UNL     1       6.580   5.053  -2.429  0.00  0.00    +0.108 A 
ATOM      7  F   UNL     1       4.828   5.020   0.749  0.00  0.00    -0.203 F 
ENDROOT
BRANCH   6   8
ATOM      8  S   UNL     1       7.627   6.115  -3.366  0.00  0.00    +0.056 S 
ATOM      9  O   UNL     1       8.249   6.994  -2.439  0.00  0.00    -0.153 OA
ATOM     10  O   UNL     1       8.372   5.281  -4.243  0.00  0.00    -0.153 OA
BRANCH   8  11
ATOM     11  N   UNL     1       6.648   7.050  -4.321  0.00  0.00    -0.204 NA
ATOM     12  H   UNL     1       5.685   6.940  -4.282  0.00  0.00    +0.144 HD
ATOM     13  H   UNL     1       7.038   7.707  -4.918  0.00  0.00    +0.144 HD
ENDBRANCH   8  11
ENDBRANCH   6   8
BRANCH   3  14
ATOM     14  S   UNL     1       3.890   2.317  -0.023  0.00  0.00    +0.064 S 
ATOM     15  O   UNL     1       2.792   3.107   0.411  0.00  0.00    -0.153 OA
ATOM     16  O   UNL     1       3.720   1.135  -0.793  0.00  0.00    -0.153 OA
BRANCH  14  17
ATOM     17  N   UNL     1       4.727   1.880   1.337  0.00  0.00    -0.176 NA
ATOM     18  C   UNL     1       4.507   2.591   2.605  0.00  0.00    +0.109 C 
ATOM     19  C   UNL     1       3.106   2.279   3.114  0.00  0.00    +0.017 C 
ATOM     20  C   UNL     1       3.070   0.833   3.637  0.00  0.00    +0.001 C 
ATOM     21  C   UNL     1       2.985  -0.131   2.459  0.00  0.00    +0.000 C 
ATOM     22  C   UNL     1       4.268  -0.976   2.352  0.00  0.00    +0.001 C 
ATOM     23  C   UNL     1       5.492  -0.080   2.541  0.00  0.00    +0.017 C 
ATOM     24  C   UNL     1       5.681   0.785   1.293  0.00  0.00    +0.109 C 
ENDBRANCH  14  17
ENDBRANCH   3  14
TORSDOF 4
