REMARK  Name = ZINC12315794
REMARK  8 active torsions:
REMARK  status: ('A' for Active; 'I' for Inactive)
REMARK    1  A    between atoms: C_1  and  O_2
REMARK    2  A    between atoms: O_2  and  C_3
REMARK    3  A    between atoms: C_7  and  C_9
REMARK    4  A    between atoms: C_11  and  C_14
REMARK    5  A    between atoms: C_14  and  C_15
REMARK    6  A    between atoms: C_15  and  O_30
REMARK    7  A    between atoms: C_20  and  C_21
REMARK    8  A    between atoms: C_20  and  N_57
REMARK                            x       y       z     vdW  Elec       q    Type
REMARK                         _______ _______ _______ _____ _____    ______ ____
ROOT
ATOM      1  C   UNL     1      -1.753   9.136   1.514  0.00  0.00    +0.070 C 
ATOM      2  C   UNL     1      -2.443   7.998   2.271  0.00  0.00    +0.016 C 
ATOM      3  C   UNL     1      -2.748   8.453   3.700  0.00  0.00    -0.076 C 
ATOM      4  C   UNL     1      -2.953  10.759   2.984  0.00  0.00    -0.076 C 
ATOM      5  C   UNL     1      -2.656  10.373   1.533  0.00  0.00    +0.016 C 
ATOM      6  N   UNL     1      -3.639   9.632   3.649  0.00  0.00    +0.383 N 
ATOM      7  H   UNL     1      -4.481   9.390   3.112  0.00  0.00    -0.081 HD
ENDROOT
BRANCH   1   8
ATOM      8  O   UNL     1      -0.508   9.444   2.144  0.00  0.00    -0.388 OA
ATOM      9  H   UNL     1       0.113   8.703   2.170  0.00  0.00    +0.210 HD
ENDBRANCH   1   8
BRANCH   1  10
ATOM     10  C   UNL     1      -1.502   8.709   0.067  0.00  0.00    +0.111 C 
BRANCH  10  13
ATOM     11  C   UNL     1      -0.076   5.332   0.033  0.00  0.00    +0.114 A 
ATOM     12  C   UNL     1      -1.227   6.168   0.043  0.00  0.00    +0.076 A 
ATOM     13  C   UNL     1      -0.719   7.421   0.052  0.00  0.00    +0.141 A 
ATOM     14  O   UNL     1       0.615   7.295   0.038  0.00  0.00    -0.359 OA
ATOM     15  N   UNL     1       0.958   6.136   0.028  0.00  0.00    -0.078 NA
BRANCH  11  20
ATOM     16  C   UNL     1       1.181   1.784   0.000  0.00  0.00    +0.121 A 
ATOM     17  C   UNL     1      -0.013   1.076   0.008  0.00  0.00    +0.045 A 
ATOM     18  C   UNL     1      -1.220   1.748   0.017  0.00  0.00    +0.004 A 
ATOM     19  C   UNL     1      -1.245   3.129   0.031  0.00  0.00    +0.010 A 
ATOM     20  C   UNL     1      -0.051   3.847   0.024  0.00  0.00    +0.007 A 
ATOM     21  C   UNL     1       1.165   3.169   0.008  0.00  0.00    +0.055 A 
BRANCH  16  23
ATOM     22  C   UNL     1       2.308  -0.309  -0.022  0.00  0.00    +0.277 C 
ATOM     23  O   UNL     1       2.366   1.119  -0.015  0.00  0.00    -0.495 OA
ENDBRANCH  16  23
ENDBRANCH  11  20
ENDBRANCH  10  13
ENDBRANCH   1  10
BRANCH   6  24
ATOM     24  C   UNL     1      -4.039  10.021   5.017  0.00  0.00    -0.039 C 
BRANCH  24  25
ATOM     25  C   UNL     1      -4.922   8.942   5.590  0.00  0.00    -0.018 A 
ATOM     26  C   UNL     1      -6.296   9.097   5.584  0.00  0.00    +0.005 A 
ATOM     27  C   UNL     1      -7.108   8.107   6.104  0.00  0.00    +0.004 A 
ATOM     28  C   UNL     1      -6.550   6.963   6.643  0.00  0.00    +0.049 A 
ATOM     29  C   UNL     1      -5.174   6.803   6.658  0.00  0.00    +0.166 A 
ATOM     30  C   UNL     1      -4.356   7.798   6.129  0.00  0.00    +0.168 A 
ATOM     31  O   UNL     1      -3.054   7.409   6.262  0.00  0.00    -0.452 OA
ATOM     32  C   UNL     1      -3.100   5.990   6.504  0.00  0.00    +0.466 C 
ATOM     33  O   UNL     1      -4.386   5.790   7.122  0.00  0.00    -0.453 OA
ENDBRANCH  24  25
ENDBRANCH   6  24
TORSDOF 7
