REMARK  Name = ZINC08782414
REMARK  9 active torsions:
REMARK  status: ('A' for Active; 'I' for Inactive)
REMARK    1  A    between atoms: C_1  and  C_2
REMARK    2  A    between atoms: C_4  and  C_27
REMARK    3  A    between atoms: C_7  and  N_8
REMARK    4  A    between atoms: C_9  and  C_11
REMARK    5  A    between atoms: N_16  and  C_18
REMARK    6  A    between atoms: C_21  and  O_24
REMARK    7  A    between atoms: O_24  and  C_25
REMARK    8  A    between atoms: C_27  and  C_29
REMARK    9  A    between atoms: C_27  and  C_31
REMARK                            x       y       z     vdW  Elec       q    Type
REMARK                         _______ _______ _______ _____ _____    ______ ____
ROOT
ATOM      1  C   UNL     1      -1.371  -3.015   2.991  0.00  0.00    +0.045 C 
ATOM      2  C   UNL     1      -0.213  -2.721   3.909  0.00  0.00    -0.029 A 
ATOM      3  C   UNL     1      -0.281  -3.075   5.243  0.00  0.00    +0.011 A 
ATOM      4  C   UNL     1       0.781  -2.807   6.086  0.00  0.00    -0.008 A 
ATOM      5  C   UNL     1       1.916  -2.181   5.598  0.00  0.00    +0.047 A 
ATOM      6  C   UNL     1       1.991  -1.828   4.263  0.00  0.00    +0.044 A 
ATOM      7  C   UNL     1       0.923  -2.093   3.416  0.00  0.00    +0.038 A 
ATOM      8 CL   UNL     1       3.247  -1.847   6.660  0.00  0.00    -0.083 Cl
ENDROOT
BRANCH   7   9
ATOM      9  N   UNL     1       0.994  -1.733   2.066  0.00  0.00    -0.285 N 
ATOM     10  C   UNL     1       1.782  -0.709   1.682  0.00  0.00    +0.222 C 
ATOM     11  O   UNL     1       2.488  -0.149   2.494  0.00  0.00    -0.275 OA
ATOM     12  H   UNL     1       0.476  -2.220   1.406  0.00  0.00    +0.155 HD
BRANCH  10  13
ATOM     13  C   UNL     1       1.786  -0.260   0.243  0.00  0.00    +0.102 C 
ATOM     14  C   UNL     1       0.385   0.235  -0.186  0.00  0.00    +0.110 C 
ATOM     15  C   UNL     1       0.428   1.727   0.058  0.00  0.00    +0.221 C 
ATOM     16  O   UNL     1      -0.545   2.450   0.113  0.00  0.00    -0.275 OA
ATOM     17  N   UNL     1       1.700   2.136   0.200  0.00  0.00    -0.271 N 
ATOM     18  C   UNL     1       2.639   1.016   0.065  0.00  0.00    +0.127 C 
BRANCH  17  19
ATOM     19  C   UNL     1       2.082   3.462   0.446  0.00  0.00    +0.036 A 
ATOM     20  C   UNL     1       1.130   4.473   0.429  0.00  0.00    +0.027 A 
ATOM     21  C   UNL     1       1.506   5.779   0.677  0.00  0.00    +0.047 A 
ATOM     22  C   UNL     1       2.836   6.082   0.930  0.00  0.00    +0.120 A 
ATOM     23  C   UNL     1       3.788   5.073   0.942  0.00  0.00    +0.047 A 
ATOM     24  C   UNL     1       3.412   3.766   0.700  0.00  0.00    +0.027 A 
BRANCH  22  25
ATOM     25  O   UNL     1       3.206   7.368   1.168  0.00  0.00    -0.495 OA
ATOM     26  C   UNL     1       2.174   8.356   1.141  0.00  0.00    +0.277 C 
ENDBRANCH  22  25
ENDBRANCH  17  19
ENDBRANCH  10  13
ENDBRANCH   7   9
BRANCH   4  27
ATOM     27  C   UNL     1       0.704  -3.196   7.540  0.00  0.00    +0.153 C 
BRANCH  27  28
ATOM     28  C   UNL     1      -0.350  -2.366   8.227  0.00  0.00    -0.026 A 
ATOM     29  C   UNL     1      -1.683  -2.534   7.899  0.00  0.00    +0.006 A 
ATOM     30  C   UNL     1      -2.651  -1.778   8.533  0.00  0.00    +0.020 A 
ATOM     31  C   UNL     1      -2.285  -0.845   9.486  0.00  0.00    +0.041 A 
ATOM     32  C   UNL     1      -0.951  -0.673   9.810  0.00  0.00    +0.020 A 
ATOM     33  C   UNL     1       0.016  -1.434   9.180  0.00  0.00    +0.006 A 
ATOM     34 CL   UNL     1      -3.500   0.110  10.278  0.00  0.00    -0.084 Cl
ENDBRANCH  27  28
BRANCH  27  35
ATOM     35  C   UNL     1       0.355  -4.621   7.649  0.00  0.00    +0.075 C 
ATOM     36  N   UNL     1       0.086  -5.722   7.733  0.00  0.00    -0.196 NA
ENDBRANCH  27  35
ENDBRANCH   4  27
TORSDOF 7
