REMARK  Name = ZINC10833779
REMARK  6 active torsions:
REMARK  status: ('A' for Active; 'I' for Inactive)
REMARK    1  A    between atoms: C_3  and  C_6
REMARK    2  A    between atoms: C_6  and  N_44
REMARK    3  A    between atoms: C_7  and  C_8
REMARK    4  A    between atoms: C_7  and  N_44
REMARK    5  A    between atoms: N_10  and  C_11
REMARK    6  A    between atoms: C_19  and  N_44
REMARK                            x       y       z     vdW  Elec       q    Type
REMARK                         _______ _______ _______ _____ _____    ______ ____
ROOT
ATOM      1  N   UNL     1      -0.697   1.573   1.114  0.00  0.00    +0.393 N 
ATOM      2  H   UNL     1      -0.026   1.331   1.852  0.00  0.00    -0.080 HD
ENDROOT
BRANCH   1   3
ATOM      3  C   UNL     1      -0.232   0.999  -0.166  0.00  0.00    -0.045 C 
ATOM      4  C   UNL     1       0.475  -0.334   0.127  0.00  0.00    +0.009 C 
ATOM      5  C   UNL     1       0.695  -1.073  -1.224  0.00  0.00    +0.164 C 
ATOM      6  S   UNL     1      -0.908  -0.725  -2.063  0.00  0.00    -0.033 S 
ATOM      7  O   UNL     1      -1.812  -1.787  -1.791  0.00  0.00    -0.174 OA
ATOM      8  O   UNL     1      -0.654  -0.350  -3.410  0.00  0.00    -0.174 OA
ATOM      9  C   UNL     1      -1.431   0.763  -1.116  0.00  0.00    +0.151 C 
ENDBRANCH   1   3
BRANCH   1  10
ATOM     10  C   UNL     1      -2.020   1.016   1.467  0.00  0.00    -0.002 C 
BRANCH  10  13
ATOM     11  C   UNL     1      -1.546  -2.436   2.667  0.00  0.00    +0.041 A 
ATOM     12  C   UNL     1      -1.579  -1.041   2.891  0.00  0.00    +0.042 A 
ATOM     13  C   UNL     1      -1.876  -0.464   1.712  0.00  0.00    +0.089 A 
ATOM     14  O   UNL     1      -2.016  -1.430   0.790  0.00  0.00    -0.470 OA
ATOM     15  C   UNL     1      -1.817  -2.628   1.363  0.00  0.00    +0.195 A 
ENDBRANCH  10  13
ENDBRANCH   1  10
BRANCH   1  16
ATOM     16  C   UNL     1      -0.782   3.045   1.007  0.00  0.00    +0.020 C 
BRANCH  16  17
ATOM     17  C   UNL     1       0.615   3.611   1.005  0.00  0.00    +0.201 C 
ATOM     18  O   UNL     1       1.566   2.879   1.176  0.00  0.00    -0.278 OA
ATOM     19  N   UNL     1       0.806   4.931   0.813  0.00  0.00    -0.286 N 
ATOM     20  H   UNL     1       0.044   5.527   0.745  0.00  0.00    +0.155 HD
BRANCH  19  21
ATOM     21  C   UNL     1       2.106   5.443   0.712  0.00  0.00    +0.053 A 
ATOM     22  C   UNL     1       3.160   4.792   1.339  0.00  0.00    +0.044 A 
ATOM     23  C   UNL     1       4.442   5.299   1.238  0.00  0.00    +0.043 A 
ATOM     24  C   UNL     1       4.675   6.455   0.512  0.00  0.00    +0.021 A 
ATOM     25  C   UNL     1       3.627   7.105  -0.112  0.00  0.00    +0.023 A 
ATOM     26  C   UNL     1       2.344   6.600  -0.020  0.00  0.00    +0.062 A 
ATOM     27 CL   UNL     1       1.030   7.413  -0.811  0.00  0.00    -0.082 Cl
ATOM     28 CL   UNL     1       5.761   4.486   2.020  0.00  0.00    -0.083 Cl
ENDBRANCH  19  21
ENDBRANCH  16  17
ENDBRANCH   1  16
TORSDOF 6
