REMARK  Name = ZINC11015190
REMARK  13 active torsions:
REMARK  status: ('A' for Active; 'I' for Inactive)
REMARK    1  A    between atoms: C_1  and  C_2
REMARK    2  A    between atoms: C_2  and  O_3
REMARK    3  A    between atoms: O_3  and  C_4
REMARK    4  A    between atoms: C_4  and  C_6
REMARK    5  A    between atoms: C_7  and  C_19
REMARK    6  A    between atoms: C_12  and  C_14
REMARK    7  A    between atoms: C_19  and  S_20
REMARK    8  A    between atoms: S_20  and  C_21
REMARK    9  A    between atoms: C_24  and  C_26
REMARK   10  A    between atoms: C_29  and  C_32
REMARK   11  A    between atoms: C_32  and  C_33
REMARK   12  A    between atoms: C_32  and  C_34
REMARK   13  A    between atoms: C_32  and  C_35
REMARK                            x       y       z     vdW  Elec       q    Type
REMARK                         _______ _______ _______ _____ _____    ______ ____
ROOT
ATOM      1  C   UNL     1      -0.694   1.692   3.586  0.00  0.00    +0.079 C 
ATOM      2  C   UNL     1      -0.317   1.171   4.774  0.00  0.00    +0.034 C 
ATOM      3  N   UNL     1      -0.975   1.496   5.926  0.00  0.00    -0.272 N 
ATOM      4  C   UNL     1      -2.026   2.324   5.973  0.00  0.00    +0.304 C 
ATOM      5  O   UNL     1      -2.550   2.549   7.046  0.00  0.00    -0.252 OA
ATOM      6  N   UNL     1      -2.522   2.917   4.869  0.00  0.00    -0.288 N 
ATOM      7  C   UNL     1      -1.878   2.637   3.574  0.00  0.00    +0.150 C 
ATOM      8  H   UNL     1      -0.666   1.101   6.756  0.00  0.00    +0.156 HD
ATOM      9  H   UNL     1      -3.284   3.514   4.926  0.00  0.00    +0.151 HD
ENDROOT
BRANCH   7  10
ATOM     10  C   UNL     1      -2.922   2.062   2.651  0.00  0.00    +0.015 A 
ATOM     11  C   UNL     1      -3.203   2.395   1.368  0.00  0.00    +0.013 A 
ATOM     12  C   UNL     1      -4.217   1.725   0.708  0.00  0.00    +0.008 A 
ATOM     13  C   UNL     1      -4.899   0.755   1.365  0.00  0.00    +0.045 A 
ATOM     14  S   UNL     1      -4.105   0.762   2.963  0.00  0.00    -0.099 S 
ENDBRANCH   7  10
BRANCH   1  15
ATOM     15  C   UNL     1      -0.011   1.360   2.393  0.00  0.00    +0.339 C 
ATOM     16  O   UNL     1       0.802   2.134   1.922  0.00  0.00    -0.245 OA
BRANCH  15  17
ATOM     17  O   UNL     1      -0.261   0.186   1.776  0.00  0.00    -0.462 OA
BRANCH  17  19
ATOM     18  C   UNL     1       0.052  -1.449   0.024  0.00  0.00    +0.048 C 
ATOM     19  C   UNL     1       0.466  -0.083   0.575  0.00  0.00    +0.229 C 
ENDBRANCH  17  19
ENDBRANCH  15  17
ENDBRANCH   1  15
BRANCH   2  20
ATOM     20  C   UNL     1       0.852   0.222   4.830  0.00  0.00    +0.130 C 
BRANCH  20  21
ATOM     21  S   UNL     1       2.293   1.079   5.511  0.00  0.00    -0.060 S 
BRANCH  21  22
ATOM     22  C   UNL     1       3.476  -0.226   5.463  0.00  0.00    +0.278 A 
ATOM     23  N   UNL     1       3.265  -1.451   5.038  0.00  0.00    -0.101 NA
ATOM     24  N   UNL     1       4.351  -2.133   5.144  0.00  0.00    -0.106 NA
ATOM     25  C   UNL     1       5.294  -1.376   5.649  0.00  0.00    +0.249 A 
ATOM     26  O   UNL     1       4.760  -0.153   5.862  0.00  0.00    -0.411 OA
BRANCH  25  27
ATOM     27  C   UNL     1       6.685  -1.784   5.933  0.00  0.00    +0.039 A 
ATOM     28  C   UNL     1       7.590  -0.866   6.468  0.00  0.00    +0.013 A 
ATOM     29  C   UNL     1       8.887  -1.255   6.735  0.00  0.00    +0.005 A 
ATOM     30  C   UNL     1       9.293  -2.550   6.463  0.00  0.00    -0.042 A 
ATOM     31  C   UNL     1       8.403  -3.463   5.928  0.00  0.00    +0.005 A 
ATOM     32  C   UNL     1       7.102  -3.089   5.661  0.00  0.00    +0.013 A 
BRANCH  30  33
ATOM     33  C   UNL     1      10.712  -2.966   6.753  0.00  0.00    -0.013 C 
ATOM     34  C   UNL     1      11.384  -3.424   5.457  0.00  0.00    +0.015 C 
ATOM     35  C   UNL     1      11.483  -1.780   7.336  0.00  0.00    +0.015 C 
ATOM     36  C   UNL     1      10.710  -4.118   7.761  0.00  0.00    +0.015 C 
ENDBRANCH  30  33
ENDBRANCH  25  27
ENDBRANCH  21  22
ENDBRANCH  20  21
ENDBRANCH   2  20
TORSDOF 9
