REMARK  Name = ZINC33307628
REMARK  8 active torsions:
REMARK  status: ('A' for Active; 'I' for Inactive)
REMARK    1  A    between atoms: C_1  and  C_2
REMARK    2  A    between atoms: C_7  and  N_8
REMARK    3  A    between atoms: N_8  and  S_9
REMARK    4  A    between atoms: S_9  and  C_12
REMARK    5  A    between atoms: C_14  and  C_26
REMARK    6  A    between atoms: N_15  and  C_17
REMARK    7  A    between atoms: C_17  and  C_18
REMARK    8  A    between atoms: C_28  and  C_31
REMARK                            x       y       z     vdW  Elec       q    Type
REMARK                         _______ _______ _______ _____ _____    ______ ____
ROOT
ATOM      1  C   UNL     1       4.253  -0.252   0.612  0.00  0.00    +0.127 A 
ATOM      2  C   UNL     1       4.230  -0.368  -0.786  0.00  0.00    +0.058 A 
ATOM      3  C   UNL     1       3.268   0.482  -1.249  0.00  0.00    +0.077 A 
ATOM      4  N   UNL     1       2.712   1.117  -0.165  0.00  0.00    -0.334 N 
ATOM      5  C   UNL     1       3.319   0.659   0.965  0.00  0.00    +0.115 A 
ENDROOT
BRANCH   3   6
ATOM      6  C   UNL     1       2.894   0.685  -2.658  0.00  0.00    +0.125 A 
ATOM      7  N   UNL     1       3.388   0.115  -3.751  0.00  0.00    -0.243 NA
ATOM      8  C   UNL     1       2.926   0.416  -4.942  0.00  0.00    +0.046 A 
ATOM      9  C   UNL     1       1.933   1.335  -5.072  0.00  0.00    +0.070 A 
ATOM     10  S   UNL     1       1.660   1.771  -3.360  0.00  0.00    -0.074 S 
ATOM     11  C   UNL     1       3.500  -0.252  -6.165  0.00  0.00    +0.066 C 
ENDBRANCH   3   6
BRANCH   1  12
ATOM     12  S   UNL     1       5.310  -1.136   1.710  0.00  0.00    +0.074 S 
ATOM     13  O   UNL     1       6.450  -1.522   0.955  0.00  0.00    -0.150 OA
ATOM     14  O   UNL     1       5.410  -0.355   2.894  0.00  0.00    -0.150 OA
BRANCH  12  15
ATOM     15  N   UNL     1       4.525  -2.532   2.129  0.00  0.00    -0.216 N 
ATOM     16  H   UNL     1       4.282  -2.731   3.184  0.00  0.00    +0.174 HD
BRANCH  15  23
ATOM     17  C   UNL     1       2.076  -3.946   2.437  0.00  0.00    +0.046 C 
ATOM     18  C   UNL     1       2.982  -4.168   1.254  0.00  0.00    -0.028 A 
ATOM     19  C   UNL     1       2.633  -5.081   0.278  0.00  0.00    +0.006 A 
ATOM     20  C   UNL     1       3.463  -5.286  -0.808  0.00  0.00    +0.020 A 
ATOM     21  C   UNL     1       4.647  -4.578  -0.921  0.00  0.00    +0.043 A 
ATOM     22  C   UNL     1       4.999  -3.660   0.049  0.00  0.00    +0.044 A 
ATOM     23  C   UNL     1       4.169  -3.456   1.144  0.00  0.00    +0.052 A 
ATOM     24 CL   UNL     1       5.686  -4.839  -2.287  0.00  0.00    -0.083 Cl
ENDBRANCH  15  23
ENDBRANCH  12  15
ENDBRANCH   1  12
BRANCH   4  25
ATOM     25  C   UNL     1       1.642   2.116  -0.216  0.00  0.00    +0.217 C 
BRANCH  25  26
ATOM     26  C   UNL     1       0.306   1.419  -0.255  0.00  0.00    +0.235 C 
ATOM     27  O   UNL     1       0.254   0.207  -0.242  0.00  0.00    -0.274 OA
ATOM     28  N   UNL     1      -0.830   2.142  -0.310  0.00  0.00    -0.300 N 
ATOM     29  C   UNL     1      -0.783   3.611  -0.320  0.00  0.00    +0.108 C 
ATOM     30  C   UNL     1      -1.579   4.117  -1.532  0.00  0.00    +0.019 C 
ATOM     31  C   UNL     1      -2.993   3.534  -1.486  0.00  0.00    +0.003 C 
ATOM     32  C   UNL     1      -2.921   2.007  -1.562  0.00  0.00    +0.019 C 
ATOM     33  C   UNL     1      -2.139   1.477  -0.355  0.00  0.00    +0.108 C 
ENDBRANCH  25  26
ENDBRANCH   4  25
TORSDOF 6
