REMARK  Name = ZINC37799984
REMARK  5 active torsions:
REMARK  status: ('A' for Active; 'I' for Inactive)
REMARK    1  A    between atoms: C_1  and  C_2
REMARK    2  A    between atoms: C_2  and  N_3
REMARK    3  A    between atoms: N_3  and  C_4
REMARK    4  A    between atoms: C_4  and  C_5
REMARK    5  A    between atoms: C_11  and  C_13
REMARK                            x       y       z     vdW  Elec       q    Type
REMARK                         _______ _______ _______ _____ _____    ______ ____
ROOT
ATOM      1  N   UNL     1      -1.275  -0.769   0.175  0.00  0.00    -0.298 N 
ATOM      2  C   UNL     1      -1.918  -0.655   1.354  0.00  0.00    +0.202 C 
ATOM      3  O   UNL     1      -3.097  -0.928   1.430  0.00  0.00    -0.277 OA
ENDROOT
BRANCH   2   4
ATOM      4  C   UNL     1      -1.172  -0.188   2.577  0.00  0.00    +0.017 C 
ATOM      5  C   UNL     1      -0.825   1.313   2.443  0.00  0.00    -0.005 C 
ATOM      6  C   UNL     1      -0.993   1.828   3.907  0.00  0.00    -0.026 C 
ATOM      7  C   UNL     1       0.251   1.376   4.675  0.00  0.00    +0.002 C 
ATOM      8  C   UNL     1       0.011   1.457   6.181  0.00  0.00    +0.000 C 
ATOM      9  C   UNL     1      -1.134   0.508   6.549  0.00  0.00    -0.002 C 
ATOM     10  C   UNL     1      -2.404   0.986   5.845  0.00  0.00    -0.015 C 
ATOM     11  C   UNL     1      -2.234   1.019   4.337  0.00  0.00    -0.068 C 
ATOM     12  N   UNL     1      -2.029  -0.327   3.776  0.00  0.00    +0.389 N 
ATOM     13  H   UNL     1      -2.917  -0.729   3.516  0.00  0.00    -0.084 HD
ATOM     14  H   UNL     1      -1.572  -0.916   4.456  0.00  0.00    -0.084 HD
ENDBRANCH   2   4
BRANCH   1  16
ATOM     15  C   UNL     1       0.424   0.927  -0.295  0.00  0.00    +0.024 C 
ATOM     16  C   UNL     1       0.169  -0.529   0.102  0.00  0.00    +0.105 C 
ENDBRANCH   1  16
BRANCH   1  17
ATOM     17  C   UNL     1      -2.019  -1.133  -1.033  0.00  0.00    +0.150 C 
BRANCH  17  18
ATOM     18  C   UNL     1      -2.032  -2.632  -1.183  0.00  0.00    +0.008 A 
ATOM     19  C   UNL     1      -2.931  -3.529  -0.710  0.00  0.00    +0.014 A 
ATOM     20  C   UNL     1      -2.740  -4.873  -0.972  0.00  0.00    +0.028 A 
ATOM     21  C   UNL     1      -1.657  -5.253  -1.694  0.00  0.00    +0.078 A 
ATOM     22  S   UNL     1      -0.871  -3.687  -2.035  0.00  0.00    -0.080 S 
ATOM     23 CL   UNL     1      -1.166  -6.849  -2.171  0.00  0.00    -0.076 Cl
ENDBRANCH  17  18
ENDBRANCH   1  17
TORSDOF 4
