REMARK  Name = ZINC08963851
REMARK  10 active torsions:
REMARK  status: ('A' for Active; 'I' for Inactive)
REMARK    1  A    between atoms: C_1  and  C_2
REMARK    2  A    between atoms: C_5  and  N_8
REMARK    3  A    between atoms: C_9  and  C_11
REMARK    4  A    between atoms: N_13  and  C_14
REMARK    5  A    between atoms: C_14  and  C_15
REMARK    6  A    between atoms: C_15  and  C_17
REMARK    7  A    between atoms: C_15  and  N_56
REMARK    8  A    between atoms: N_25  and  C_26
REMARK    9  A    between atoms: C_27  and  N_56
REMARK   10  A    between atoms: C_28  and  N_56
REMARK                            x       y       z     vdW  Elec       q    Type
REMARK                         _______ _______ _______ _____ _____    ______ ____
ROOT
ATOM      1  C   UNL     1       3.925  -6.616  -0.111  0.00  0.00    +0.094 C 
ENDROOT
BRANCH   1   4
ATOM      2  C   UNL     1       2.885  -4.640   0.865  0.00  0.00    +0.299 C 
ATOM      3  O   UNL     1       1.804  -5.169   0.712  0.00  0.00    -0.265 OA
ATOM      4  N   UNL     1       4.009  -5.280   0.486  0.00  0.00    -0.309 N 
ATOM      5  H   UNL     1       4.873  -4.857   0.608  0.00  0.00    +0.149 HD
BRANCH   2   7
ATOM      6  N   UNL     1       1.847  -2.638   1.852  0.00  0.00    -0.278 N 
ATOM      7  C   UNL     1       2.970  -3.278   1.473  0.00  0.00    +0.303 C 
ATOM      8  O   UNL     1       4.052  -2.749   1.626  0.00  0.00    -0.265 OA
ATOM      9  H   UNL     1       0.988  -3.083   1.782  0.00  0.00    +0.155 HD
BRANCH   6  14
ATOM     10  C   UNL     1       2.140   2.660   3.854  0.00  0.00    +0.044 C 
ATOM     11  C   UNL     1       2.063   1.252   3.322  0.00  0.00    -0.050 A 
ATOM     12  C   UNL     1       2.885   0.862   2.282  0.00  0.00    +0.005 A 
ATOM     13  C   UNL     1       2.817  -0.428   1.792  0.00  0.00    +0.023 A 
ATOM     14  C   UNL     1       1.919  -1.333   2.345  0.00  0.00    +0.034 A 
ATOM     15  C   UNL     1       1.094  -0.936   3.390  0.00  0.00    +0.023 A 
ATOM     16  C   UNL     1       1.168   0.354   3.876  0.00  0.00    +0.005 A 
ENDBRANCH   6  14
ENDBRANCH   2   7
ENDBRANCH   1   4
BRANCH   1  17
ATOM     17  C   UNL     1       5.304  -7.032  -0.625  0.00  0.00    -0.021 C 
BRANCH  17  18
ATOM     18  C   UNL     1       5.254  -8.463  -1.096  0.00  0.00    -0.059 A 
ATOM     19  C   UNL     1       4.944  -8.748  -2.413  0.00  0.00    +0.004 A 
ATOM     20  C   UNL     1       4.898 -10.055  -2.849  0.00  0.00    +0.023 A 
ATOM     21  C   UNL     1       5.155 -11.100  -1.962  0.00  0.00    +0.033 A 
ATOM     22  C   UNL     1       5.465 -10.803  -0.640  0.00  0.00    -0.025 A 
ATOM     23  C   UNL     1       5.512  -9.493  -0.210  0.00  0.00    +0.007 A 
ATOM     24  C   UNL     1       5.705 -12.110   0.088  0.00  0.00    +0.056 C 
ATOM     25  C   UNL     1       5.898 -13.117  -1.069  0.00  0.00    +0.109 C 
ATOM     26  N   UNL     1       5.151 -12.484  -2.177  0.00  0.00    -0.332 N 
ATOM     27  C   UNL     1       5.753 -12.816  -3.475  0.00  0.00    +0.129 C 
ENDBRANCH  17  18
BRANCH  17  30
ATOM     28  C   UNL     1       4.516  -5.726  -2.505  0.00  0.00    -0.096 C 
ATOM     29  C   UNL     1       6.469  -5.009  -1.266  0.00  0.00    -0.096 C 
ATOM     30  N   UNL     1       5.710  -6.178  -1.760  0.00  0.00    +0.382 N 
ATOM     31  H   UNL     1       6.311  -6.723  -2.390  0.00  0.00    -0.082 HD
ENDBRANCH  17  30
ENDBRANCH   1  17
TORSDOF 6
