REMARK  Name = ZINC16975757
REMARK  3 active torsions:
REMARK  status: ('A' for Active; 'I' for Inactive)
REMARK    1  A    between atoms: C_1  and  C_2
REMARK    2  A    between atoms: C_10  and  C_11
REMARK    3  A    between atoms: N_17  and  C_18
REMARK                            x       y       z     vdW  Elec       q    Type
REMARK                         _______ _______ _______ _____ _____    ______ ____
ROOT
ATOM      1  C   UNL     1       7.098   0.083  -0.372  0.00  0.00    +0.202 A 
ATOM      2  N   UNL     1       7.081   1.415  -0.364  0.00  0.00    -0.192 NA
ATOM      3  C   UNL     1       5.927   2.063  -0.249  0.00  0.00    +0.218 A 
ATOM      4  N   UNL     1       4.790   1.383  -0.141  0.00  0.00    -0.181 NA
ATOM      5  C   UNL     1       4.805   0.054  -0.149  0.00  0.00    +0.224 A 
ATOM      6  N   UNL     1       5.958  -0.597  -0.260  0.00  0.00    -0.191 NA
ATOM      7  N   UNL     1       3.622  -0.651  -0.037  0.00  0.00    -0.283 N 
ATOM      8  N   UNL     1       5.909   3.444  -0.240  0.00  0.00    -0.327 N 
ATOM      9  H   UNL     1       3.641  -1.747   0.047  0.00  0.00    +0.155 HD
ATOM     10  H   UNL     1       4.954   3.981  -0.145  0.00  0.00    +0.145 HD
ATOM     11  H   UNL     1       6.850   4.007  -0.329  0.00  0.00    +0.145 HD
ENDROOT
BRANCH   1  21
ATOM     12  C   UNL     1       9.891   1.425  -0.637  0.00  0.00    +0.048 C 
ATOM     13  C   UNL     1       9.596  -0.053  -0.615  0.00  0.00    +0.006 A 
ATOM     14  C   UNL     1      10.565  -1.145  -0.714  0.00  0.00    +0.024 A 
ATOM     15  C   UNL     1      11.953  -1.206  -0.848  0.00  0.00    +0.012 A 
ATOM     16  C   UNL     1      12.575  -2.421  -0.915  0.00  0.00    +0.001 A 
ATOM     17  C   UNL     1      11.835  -3.594  -0.849  0.00  0.00    +0.004 A 
ATOM     18  C   UNL     1      10.464  -3.555  -0.715  0.00  0.00    +0.047 A 
ATOM     19  C   UNL     1       9.810  -2.330  -0.646  0.00  0.00    +0.136 A 
ATOM     20  O   UNL     1       8.515  -1.980  -0.514  0.00  0.00    -0.451 OA
ATOM     21  C   UNL     1       8.379  -0.639  -0.500  0.00  0.00    +0.176 A 
ENDBRANCH   1  21
BRANCH   7  22
ATOM     22  C   UNL     1       2.400   0.030  -0.032  0.00  0.00    +0.036 A 
ATOM     23  C   UNL     1       2.248   1.191  -0.778  0.00  0.00    +0.043 A 
ATOM     24  C   UNL     1       1.039   1.862  -0.771  0.00  0.00    +0.044 A 
ATOM     25  C   UNL     1      -0.018   1.378  -0.020  0.00  0.00    +0.040 A 
ATOM     26  C   UNL     1       0.132   0.221   0.724  0.00  0.00    +0.044 A 
ATOM     27  C   UNL     1       1.338  -0.454   0.720  0.00  0.00    +0.043 A 
ATOM     28 CL   UNL     1      -1.197  -0.383   1.664  0.00  0.00    -0.083 Cl
ATOM     29 CL   UNL     1       0.847   3.314  -1.703  0.00  0.00    -0.083 Cl
ENDBRANCH   7  22
TORSDOF 2
