REMARK  Name = ZINC40408510
REMARK  11 active torsions:
REMARK  status: ('A' for Active; 'I' for Inactive)
REMARK    1  A    between atoms: C_1  and  C_2
REMARK    2  A    between atoms: C_2  and  C_4
REMARK    3  A    between atoms: C_2  and  O_28
REMARK    4  A    between atoms: C_4  and  N_5
REMARK    5  A    between atoms: N_5  and  C_6
REMARK    6  A    between atoms: N_5  and  C_13
REMARK    7  A    between atoms: C_6  and  C_7
REMARK    8  A    between atoms: C_13  and  C_14
REMARK    9  A    between atoms: C_21  and  C_25
REMARK   10  A    between atoms: C_25  and  C_26
REMARK   11  A    between atoms: C_25  and  C_27
REMARK                            x       y       z     vdW  Elec       q    Type
REMARK                         _______ _______ _______ _____ _____    ______ ____
ROOT
ATOM      1  C   UNL     1       0.510  -2.557   2.404  0.00  0.00    -0.003 C 
ENDROOT
BRANCH   1   2
ATOM      2  C   UNL     1      -0.570  -2.024   3.311  0.00  0.00    +0.094 A 
ATOM      3  N   UNL     1      -0.560  -2.357   4.627  0.00  0.00    -0.312 N 
ATOM      4  H   UNL     1       0.142  -2.934   4.966  0.00  0.00    +0.170 HD
ATOM      5  C   UNL     1      -1.505  -1.903   5.471  0.00  0.00    +0.260 A 
ATOM      6  O   UNL     1      -1.482  -2.211   6.650  0.00  0.00    -0.267 OA
ATOM      7  C   UNL     1      -2.539  -1.052   4.961  0.00  0.00    +0.072 A 
ATOM      8  C   UNL     1      -3.655  -0.441   5.659  0.00  0.00    +0.027 A 
ATOM      9  C   UNL     1      -4.513   0.332   4.972  0.00  0.00    -0.005 A 
ATOM     10  S   UNL     1      -3.868   0.290   3.311  0.00  0.00    -0.073 S 
ATOM     11  C   UNL     1      -2.466  -0.762   3.587  0.00  0.00    +0.116 A 
ATOM     12  N   UNL     1      -1.495  -1.246   2.817  0.00  0.00    -0.229 NA
BRANCH   9  13
ATOM     13  C   UNL     1      -5.730   1.059   5.484  0.00  0.00    +0.020 C 
ATOM     14  C   UNL     1      -5.566   2.561   5.242  0.00  0.00    +0.013 C 
ATOM     15  C   UNL     1      -6.972   0.556   4.745  0.00  0.00    +0.013 C 
ENDBRANCH   9  13
ENDBRANCH   1   2
BRANCH   1  16
ATOM     16  N   UNL     1       0.294  -2.058   1.040  0.00  0.00    +0.389 N 
ATOM     17  H   UNL     1      -0.639  -2.298   0.738  0.00  0.00    -0.081 HD
BRANCH  16  18
ATOM     18  C   UNL     1       0.455  -0.598   1.020  0.00  0.00    -0.046 C 
BRANCH  18  20
ATOM     19  C   UNL     1       0.017   1.471  -0.309  0.00  0.00    +0.035 C 
ATOM     20  C   UNL     1       0.043  -0.058  -0.351  0.00  0.00    +0.095 C 
BRANCH  20  21
ATOM     21  O   UNL     1       0.983  -0.491  -1.336  0.00  0.00    -0.394 OA
ATOM     22  H   UNL     1       0.780  -0.191  -2.232  0.00  0.00    +0.210 HD
ENDBRANCH  20  21
ENDBRANCH  18  20
ENDBRANCH  16  18
BRANCH  16  23
ATOM     23  C   UNL     1       1.274  -2.671   0.133  0.00  0.00    -0.042 C 
BRANCH  23  24
ATOM     24  C   UNL     1       1.074  -4.165   0.113  0.00  0.00    -0.064 A 
ATOM     25  C   UNL     1       1.828  -4.975   0.941  0.00  0.00    +0.002 A 
ATOM     26  C   UNL     1       1.644  -6.345   0.921  0.00  0.00    +0.000 A 
ATOM     27  C   UNL     1       0.706  -6.905   0.075  0.00  0.00    +0.000 A 
ATOM     28  C   UNL     1      -0.050  -6.094  -0.752  0.00  0.00    +0.000 A 
ATOM     29  C   UNL     1       0.131  -4.724  -0.730  0.00  0.00    +0.002 A 
ENDBRANCH  23  24
ENDBRANCH  16  23
ENDBRANCH   1  16
TORSDOF 8
