REMARK  Name = ZINC12891108
REMARK  12 active torsions:
REMARK  status: ('A' for Active; 'I' for Inactive)
REMARK    1  A    between atoms: C_1  and  C_2
REMARK    2  A    between atoms: C_2  and  C_3
REMARK    3  A    between atoms: C_3  and  C_5
REMARK    4  A    between atoms: C_3  and  C_6
REMARK    5  A    between atoms: C_6  and  C_8
REMARK    6  A    between atoms: C_6  and  N_23
REMARK    7  A    between atoms: N_10  and  C_11
REMARK    8  A    between atoms: C_11  and  C_12
REMARK    9  A    between atoms: C_12  and  C_13
REMARK   10  A    between atoms: C_24  and  C_26
REMARK   11  A    between atoms: N_28  and  C_40
REMARK   12  A    between atoms: C_40  and  C_41
REMARK                            x       y       z     vdW  Elec       q    Type
REMARK                         _______ _______ _______ _____ _____    ______ ____
ROOT
ATOM      1  C   UNL     1      -7.167   1.204  -0.166  0.00  0.00    +0.162 C 
ENDROOT
BRANCH   1   2
ATOM      2  C   UNL     1      -8.172   1.940  -1.014  0.00  0.00    +0.234 C 
ATOM      3  O   UNL     1      -7.926   3.059  -1.411  0.00  0.00    -0.274 OA
ATOM      4  N   UNL     1      -9.345   1.355  -1.330  0.00  0.00    -0.313 N 
ATOM      5  H   UNL     1      -9.572   0.490  -0.954  0.00  0.00    +0.149 HD
BRANCH   4   6
ATOM      6  C   UNL     1     -10.275   2.025  -2.242  0.00  0.00    +0.109 C 
BRANCH   6   7
ATOM      7  C   UNL     1     -11.519   1.154  -2.432  0.00  0.00    +0.056 C 
BRANCH   7   8
ATOM      8  C   UNL     1     -12.476   1.843  -3.370  0.00  0.00    -0.021 A 
ATOM      9  C   UNL     1     -13.515   2.618  -3.023  0.00  0.00    +0.087 A 
ATOM     10  N   UNL     1     -14.154   3.071  -4.145  0.00  0.00    -0.360 N 
ATOM     11  H   UNL     1     -14.932   3.651  -4.147  0.00  0.00    +0.165 HD
ATOM     12  C   UNL     1     -13.531   2.579  -5.270  0.00  0.00    +0.047 A 
ATOM     13  C   UNL     1     -12.452   1.788  -4.834  0.00  0.00    +0.003 A 
ATOM     14  C   UNL     1     -11.631   1.155  -5.768  0.00  0.00    +0.010 A 
ATOM     15  C   UNL     1     -11.880   1.306  -7.103  0.00  0.00    +0.001 A 
ATOM     16  C   UNL     1     -12.943   2.085  -7.538  0.00  0.00    +0.002 A 
ATOM     17  C   UNL     1     -13.766   2.720  -6.633  0.00  0.00    +0.026 A 
ENDBRANCH   7   8
ENDBRANCH   6   7
ENDBRANCH   4   6
ENDBRANCH   1   2
BRANCH   1  18
ATOM     18  N   UNL     1      -5.838   1.785  -0.369  0.00  0.00    -0.300 N 
ATOM     19  C   UNL     1      -4.736   1.041  -0.149  0.00  0.00    +0.250 C 
ATOM     20  O   UNL     1      -4.846  -0.114   0.217  0.00  0.00    -0.270 OA
ATOM     21  H   UNL     1      -5.751   2.706  -0.661  0.00  0.00    +0.150 HD
BRANCH  19  22
ATOM     22  C   UNL     1      -3.401   1.624  -0.353  0.00  0.00    +0.100 A 
ATOM     23  C   UNL     1      -3.264   2.932  -0.769  0.00  0.00    +0.103 A 
ATOM     24  N   UNL     1      -2.065   3.500  -0.955  0.00  0.00    -0.346 N 
ATOM     25  C   UNL     1      -0.880   2.821  -0.764  0.00  0.00    +0.056 A 
ATOM     26  C   UNL     1       0.338   3.454  -0.990  0.00  0.00    +0.076 A 
ATOM     27  C   UNL     1       1.523   2.767  -0.797  0.00  0.00    +0.168 A 
ATOM     28  C   UNL     1       1.507   1.433  -0.373  0.00  0.00    +0.167 A 
ATOM     29  C   UNL     1       0.308   0.793  -0.145  0.00  0.00    +0.063 A 
ATOM     30  C   UNL     1      -0.892   1.479  -0.345  0.00  0.00    +0.050 A 
ATOM     31  C   UNL     1      -2.190   0.822  -0.117  0.00  0.00    +0.202 A 
ATOM     32  O   UNL     1      -2.259  -0.338   0.251  0.00  0.00    -0.286 OA
ATOM     33  O   UNL     1       2.797   0.997  -0.262  0.00  0.00    -0.453 OA
ATOM     34  C   UNL     1       3.586   1.940  -1.012  0.00  0.00    +0.466 C 
ATOM     35  O   UNL     1       2.821   3.158  -0.947  0.00  0.00    -0.453 OA
BRANCH  24  36
ATOM     36  C   UNL     1      -2.011   4.896  -1.397  0.00  0.00    +0.118 C 
ATOM     37  C   UNL     1      -1.893   4.944  -2.921  0.00  0.00    +0.027 C 
ENDBRANCH  24  36
ENDBRANCH  19  22
ENDBRANCH   1  18
BRANCH   1  38
ATOM     38  C   UNL     1      -7.557   1.326   1.309  0.00  0.00    +0.015 C 
ATOM     39  C   UNL     1      -7.434   2.786   1.750  0.00  0.00    +0.010 C 
BRANCH  38  41
ATOM     40  C   UNL     1      -6.870  -1.019   1.832  0.00  0.00    +0.004 C 
ATOM     41  C   UNL     1      -6.626   0.457   2.156  0.00  0.00    +0.002 C 
ENDBRANCH  38  41
ENDBRANCH   1  38
TORSDOF 9
