REMARK  Name = ZINC36570993
REMARK  14 active torsions:
REMARK  status: ('A' for Active; 'I' for Inactive)
REMARK    1  A    between atoms: C_1  and  C_2
REMARK    2  A    between atoms: C_2  and  C_3
REMARK    3  A    between atoms: C_3  and  N_4
REMARK    4  A    between atoms: N_4  and  C_5
REMARK    5  A    between atoms: C_5  and  C_7
REMARK    6  A    between atoms: C_5  and  C_14
REMARK    7  A    between atoms: C_12  and  C_13
REMARK    8  A    between atoms: N_16  and  C_17
REMARK    9  A    between atoms: C_17  and  S_18
REMARK   10  A    between atoms: S_18  and  C_21
REMARK   11  A    between atoms: C_24  and  C_27
REMARK   12  A    between atoms: C_28  and  C_30
REMARK   13  A    between atoms: C_31  and  O_37
REMARK   14  A    between atoms: C_35  and  O_36
REMARK                            x       y       z     vdW  Elec       q    Type
REMARK                         _______ _______ _______ _____ _____    ______ ____
ROOT
ATOM      1  C   UNL     1      -0.384  -2.778  -1.780  0.00  0.00    +0.193 C 
ENDROOT
BRANCH   1   2
ATOM      2  C   UNL     1      -0.385  -2.295  -3.207  0.00  0.00    -0.015 A 
ATOM      3  C   UNL     1      -1.371  -1.429  -3.643  0.00  0.00    +0.006 A 
ATOM      4  C   UNL     1      -1.373  -0.987  -4.952  0.00  0.00    +0.000 A 
ATOM      5  C   UNL     1      -0.388  -1.409  -5.826  0.00  0.00    +0.000 A 
ATOM      6  C   UNL     1       0.598  -2.273  -5.390  0.00  0.00    +0.004 A 
ATOM      7  C   UNL     1       0.602  -2.713  -4.079  0.00  0.00    -0.045 A 
ATOM      8  C   UNL     1       1.681  -3.651  -3.602  0.00  0.00    +0.044 C 
ENDBRANCH   1   2
BRANCH   1   9
ATOM      9  C   UNL     1      -1.734  -2.523  -1.162  0.00  0.00    +0.239 C 
ATOM     10  O   UNL     1      -1.897  -1.567  -0.432  0.00  0.00    -0.273 OA
ATOM     11  N   UNL     1      -2.761  -3.357  -1.419  0.00  0.00    -0.294 N 
ATOM     12  H   UNL     1      -2.613  -4.164  -1.937  0.00  0.00    +0.150 HD
BRANCH  11  13
ATOM     13  C   UNL     1      -4.102  -3.044  -0.918  0.00  0.00    +0.278 C 
BRANCH  13  14
ATOM     14  S   UNL     1      -5.044  -2.183  -2.207  0.00  0.00    +0.013 S 
ATOM     15  O   UNL     1      -6.368  -1.928  -1.758  0.00  0.00    -0.168 OA
ATOM     16  O   UNL     1      -4.259  -1.143  -2.775  0.00  0.00    -0.168 OA
BRANCH  14  17
ATOM     17  C   UNL     1      -5.227  -3.365  -3.501  0.00  0.00    +0.090 A 
ATOM     18  C   UNL     1      -4.273  -3.452  -4.498  0.00  0.00    +0.027 A 
ATOM     19  C   UNL     1      -4.417  -4.379  -5.513  0.00  0.00    +0.005 A 
ATOM     20  C   UNL     1      -5.513  -5.220  -5.530  0.00  0.00    -0.050 A 
ATOM     21  C   UNL     1      -6.467  -5.134  -4.533  0.00  0.00    +0.005 A 
ATOM     22  C   UNL     1      -6.321  -4.210  -3.515  0.00  0.00    +0.027 A 
ATOM     23  C   UNL     1      -5.670  -6.231  -6.637  0.00  0.00    +0.044 C 
ENDBRANCH  14  17
ENDBRANCH  13  14
ENDBRANCH  11  13
ENDBRANCH   1   9
BRANCH   1  24
ATOM     24  N   UNL     1       0.643  -2.059  -1.022  0.00  0.00    -0.282 N 
ATOM     25  C   UNL     1       0.922  -2.420   0.246  0.00  0.00    +0.255 C 
ATOM     26  O   UNL     1       0.321  -3.343   0.762  0.00  0.00    -0.270 OA
BRANCH  25  27
ATOM     27  C   UNL     1       1.954  -1.697   1.008  0.00  0.00    +0.119 A 
ATOM     28  C   UNL     1       1.609  -0.580   1.782  0.00  0.00    +0.133 A 
ATOM     29  C   UNL     1       2.588   0.092   2.495  0.00  0.00    +0.046 A 
ATOM     30  C   UNL     1       3.902  -0.334   2.445  0.00  0.00    +0.007 A 
ATOM     31  C   UNL     1       4.254  -1.433   1.684  0.00  0.00    +0.046 A 
ATOM     32  C   UNL     1       3.290  -2.124   0.968  0.00  0.00    +0.133 A 
BRANCH  32  33
ATOM     33  O   UNL     1       3.637  -3.206   0.228  0.00  0.00    -0.506 OA
ATOM     34  H   UNL     1       3.884  -2.996  -0.683  0.00  0.00    +0.292 HD
ENDBRANCH  32  33
BRANCH  28  35
ATOM     35  O   UNL     1       0.320  -0.160   1.833  0.00  0.00    -0.506 OA
ATOM     36  H   UNL     1      -0.198  -0.564   2.542  0.00  0.00    +0.292 HD
ENDBRANCH  28  35
ENDBRANCH  25  27
BRANCH  24  37
ATOM     37  C   UNL     1       1.368  -0.947  -1.643  0.00  0.00    +0.109 C 
BRANCH  37  39
ATOM     38  C   UNL     1       1.399   1.529  -1.978  0.00  0.00    +0.005 C 
ATOM     39  C   UNL     1       0.589   0.352  -1.430  0.00  0.00    +0.016 C 
ENDBRANCH  37  39
ENDBRANCH  24  37
ENDBRANCH   1  24
TORSDOF 11
