REMARK  Name = ZINC02772900
REMARK  11 active torsions:
REMARK  status: ('A' for Active; 'I' for Inactive)
REMARK    1  A    between atoms: C_1  and  C_2
REMARK    2  A    between atoms: C_2  and  N_3
REMARK    3  A    between atoms: C_7  and  C_8
REMARK    4  A    between atoms: C_10  and  O_18
REMARK    5  A    between atoms: C_11  and  O_15
REMARK    6  A    between atoms: O_15  and  C_16
REMARK    7  A    between atoms: C_16  and  C_17
REMARK    8  A    between atoms: O_18  and  C_19
REMARK    9  A    between atoms: C_19  and  C_20
REMARK   10  A    between atoms: N_23  and  C_26
REMARK   11  A    between atoms: C_26  and  C_27
REMARK                            x       y       z     vdW  Elec       q    Type
REMARK                         _______ _______ _______ _____ _____    ______ ____
ROOT
ATOM      1  N   UNL     1       3.712  -6.275   0.251  0.00  0.00    -0.222 N 
ATOM      2  C   UNL     1       3.776  -4.931   0.159  0.00  0.00    +0.259 C 
ATOM      3  O   UNL     1       4.847  -4.354   0.155  0.00  0.00    -0.269 OA
ATOM      4  C   UNL     1       2.509  -4.179   0.061  0.00  0.00    +0.100 C 
ATOM      5  C   UNL     1       2.494  -2.800  -0.036  0.00  0.00    +0.026 C 
ATOM      6  C   UNL     1       1.259  -4.964   0.079  0.00  0.00    +0.259 C 
ATOM      7  O   UNL     1       0.175  -4.416   0.007  0.00  0.00    -0.269 OA
ATOM      8  N   UNL     1       1.352  -6.307   0.171  0.00  0.00    -0.222 N 
ATOM      9  C   UNL     1       2.539  -6.923   0.256  0.00  0.00    +0.318 C 
ATOM     10  O   UNL     1       2.553  -8.136   0.343  0.00  0.00    -0.252 OA
ENDROOT
BRANCH   5  11
ATOM     11  C   UNL     1       1.248  -2.103  -0.354  0.00  0.00    -0.019 A 
ATOM     12  C   UNL     1       0.870  -0.967   0.377  0.00  0.00    +0.057 A 
ATOM     13  C   UNL     1      -0.306  -0.315   0.072  0.00  0.00    +0.163 A 
ATOM     14  C   UNL     1      -1.121  -0.788  -0.959  0.00  0.00    +0.175 A 
ATOM     15  C   UNL     1      -0.746  -1.910  -1.688  0.00  0.00    +0.059 A 
ATOM     16  C   UNL     1       0.426  -2.569  -1.392  0.00  0.00    +0.026 A 
ATOM     17  I   UNL     1      -1.972  -2.607  -3.237  0.00  0.00    -0.040 I 
BRANCH  14  18
ATOM     18  O   UNL     1      -2.280  -0.146  -1.253  0.00  0.00    -0.488 OA
BRANCH  18  19
ATOM     19  C   UNL     1      -2.214   0.900  -2.224  0.00  0.00    +0.226 C 
ATOM     20  C   UNL     1      -3.607   1.501  -2.422  0.00  0.00    +0.048 C 
ENDBRANCH  18  19
ENDBRANCH  14  18
BRANCH  13  21
ATOM     21  O   UNL     1      -0.676   0.787   0.778  0.00  0.00    -0.489 OA
BRANCH  21  22
ATOM     22  C   UNL     1       0.202   1.212   1.823  0.00  0.00    +0.226 C 
ATOM     23  C   UNL     1      -0.376   2.456   2.500  0.00  0.00    +0.048 C 
ENDBRANCH  21  22
ENDBRANCH  13  21
ENDBRANCH   5  11
BRANCH   1  25
ATOM     24  C   UNL     1       5.338  -7.211   1.821  0.00  0.00    +0.025 C 
ATOM     25  C   UNL     1       4.955  -7.045   0.349  0.00  0.00    +0.115 C 
ENDBRANCH   1  25
BRANCH   8  26
ATOM     26  C   UNL     1       0.127  -7.110   0.185  0.00  0.00    +0.115 C 
ATOM     27  C   UNL     1      -0.350  -7.287   1.628  0.00  0.00    +0.025 C 
ENDBRANCH   8  26
TORSDOF 7
