REMARK  Name = ZINC14569829
REMARK  6 active torsions:
REMARK  status: ('A' for Active; 'I' for Inactive)
REMARK    1  A    between atoms: C_1  and  C_2
REMARK    2  A    between atoms: C_2  and  N_3
REMARK    3  A    between atoms: N_3  and  C_4
REMARK    4  A    between atoms: C_4  and  C_5
REMARK    5  A    between atoms: C_18  and  C_20
REMARK    6  A    between atoms: C_26  and  C_28
REMARK                            x       y       z     vdW  Elec       q    Type
REMARK                         _______ _______ _______ _____ _____    ______ ____
ROOT
ATOM      1  N   UNL     1       3.903   0.019   1.762  0.00  0.00    -0.293 N 
ATOM      2  C   UNL     1       2.732   0.603   1.440  0.00  0.00    +0.236 C 
ATOM      3  O   UNL     1       1.810   0.586   2.228  0.00  0.00    -0.274 OA
ENDROOT
BRANCH   2   4
ATOM      4  C   UNL     1       2.568   1.277   0.103  0.00  0.00    +0.162 C 
ATOM      5  C   UNL     1       3.206   2.682   0.138  0.00  0.00    +0.033 C 
ATOM      6  C   UNL     1       1.993   3.608   0.416  0.00  0.00    +0.021 C 
ATOM      7  C   UNL     1       0.869   2.892  -0.378  0.00  0.00    +0.108 C 
ATOM      8  N   UNL     1       1.139   1.455  -0.196  0.00  0.00    -0.289 N 
ATOM      9  C   UNL     1       0.229   0.466  -0.293  0.00  0.00    +0.222 C 
ATOM     10  O   UNL     1       0.582  -0.693  -0.231  0.00  0.00    -0.275 OA
BRANCH   9  11
ATOM     11  C   UNL     1      -1.228   0.800  -0.486  0.00  0.00    +0.048 C 
ATOM     12  C   UNL     1      -1.739   1.575   0.730  0.00  0.00    +0.019 C 
ATOM     13  C   UNL     1      -3.218   1.914   0.534  0.00  0.00    -0.009 C 
ATOM     14  C   UNL     1      -4.021   0.621   0.380  0.00  0.00    +0.007 C 
ATOM     15  C   UNL     1      -3.511  -0.155  -0.836  0.00  0.00    -0.009 C 
ATOM     16  C   UNL     1      -2.032  -0.493  -0.641  0.00  0.00    +0.019 C 
ATOM     17  C   UNL     1      -3.676   0.702  -2.093  0.00  0.00    +0.007 C 
ATOM     18  C   UNL     1      -2.873   1.995  -1.939  0.00  0.00    -0.009 C 
ATOM     19  C   UNL     1      -3.383   2.770  -0.723  0.00  0.00    +0.007 C 
ATOM     20  C   UNL     1      -1.393   1.656  -1.743  0.00  0.00    +0.019 C 
ENDBRANCH   9  11
ENDBRANCH   2   4
BRANCH   1  22
ATOM     21  C   UNL     1       3.770  -2.040   3.076  0.00  0.00    +0.024 C 
ATOM     22  C   UNL     1       4.098  -0.545   3.099  0.00  0.00    +0.105 C 
ENDBRANCH   1  22
BRANCH   1  23
ATOM     23  C   UNL     1       4.981  -0.052   0.772  0.00  0.00    +0.182 C 
BRANCH  23  24
ATOM     24  C   UNL     1       5.889   1.140   0.932  0.00  0.00    +0.128 A 
ATOM     25  N   UNL     1       6.885   1.318   0.026  0.00  0.00    -0.309 N 
ATOM     26  H   UNL     1       6.994   0.683  -0.699  0.00  0.00    +0.170 HD
ATOM     27  C   UNL     1       7.724   2.375   0.122  0.00  0.00    +0.259 A 
ATOM     28  O   UNL     1       8.619   2.549  -0.685  0.00  0.00    -0.267 OA
ATOM     29  C   UNL     1       7.518   3.303   1.243  0.00  0.00    +0.065 A 
ATOM     30  C   UNL     1       8.329   4.420   1.435  0.00  0.00    +0.017 A 
ATOM     31  C   UNL     1       8.094   5.253   2.494  0.00  0.00    +0.021 A 
ATOM     32  C   UNL     1       7.054   4.997   3.381  0.00  0.00    +0.043 A 
ATOM     33  C   UNL     1       6.238   3.899   3.213  0.00  0.00    +0.048 A 
ATOM     34  C   UNL     1       6.459   3.035   2.139  0.00  0.00    +0.080 A 
ATOM     35  N   UNL     1       5.682   1.942   1.932  0.00  0.00    -0.232 NA
ATOM     36 CL   UNL     1       6.781   6.072   4.716  0.00  0.00    -0.083 Cl
ENDBRANCH  23  24
ENDBRANCH   1  23
TORSDOF 5
