REMARK  Name = ZINC13636073
REMARK  8 active torsions:
REMARK  status: ('A' for Active; 'I' for Inactive)
REMARK    1  A    between atoms: C_1  and  C_2
REMARK    2  A    between atoms: C_2  and  C_3
REMARK    3  A    between atoms: C_3  and  C_4
REMARK    4  A    between atoms: C_4  and  O_5
REMARK    5  A    between atoms: O_5  and  C_6
REMARK    6  A    between atoms: C_13  and  C_22
REMARK    7  A    between atoms: C_25  and  O_28
REMARK    8  A    between atoms: O_28  and  C_29
REMARK                            x       y       z     vdW  Elec       q    Type
REMARK                         _______ _______ _______ _____ _____    ______ ____
ROOT
ATOM      1  C   UNL     1       0.253   1.096   5.412  0.00  0.00    +0.142 A 
ATOM      2  C   UNL     1       1.409   0.390   5.680  0.00  0.00    +0.047 A 
ATOM      3  C   UNL     1       1.810   0.183   6.988  0.00  0.00    +0.004 A 
ATOM      4  C   UNL     1       1.038   0.670   8.025  0.00  0.00    +0.006 A 
ATOM      5  C   UNL     1      -0.127   1.364   7.767  0.00  0.00    -0.016 A 
ATOM      6  C   UNL     1      -0.538   1.596   6.454  0.00  0.00    +0.074 A 
ATOM      7  N   UNL     1      -1.685   2.311   6.107  0.00  0.00    -0.334 N 
ATOM      8  C   UNL     1      -2.545   2.759   7.215  0.00  0.00    +0.105 C 
ATOM      9  C   UNL     1      -1.630   3.199   8.339  0.00  0.00    +0.029 C 
ATOM     10  C   UNL     1      -0.984   1.877   8.859  0.00  0.00    +0.049 C 
ATOM     11  C   UNL     1      -0.443   2.267  10.184  0.00  0.00    -0.023 C 
ATOM     12  C   UNL     1      -1.182   3.259  10.667  0.00  0.00    -0.030 C 
ATOM     13  C   UNL     1      -2.272   3.635   9.660  0.00  0.00    +0.033 C 
ATOM     14  H   UNL     1      -2.222   1.818   5.410  0.00  0.00    +0.147 HD
ENDROOT
BRANCH   8  15
ATOM     15  C   UNL     1      -3.420   1.623   7.678  0.00  0.00    -0.027 A 
ATOM     16  C   UNL     1      -3.025   0.316   7.462  0.00  0.00    +0.009 A 
ATOM     17  C   UNL     1      -3.822  -0.728   7.891  0.00  0.00    +0.046 A 
ATOM     18  C   UNL     1      -5.025  -0.463   8.529  0.00  0.00    +0.120 A 
ATOM     19  C   UNL     1      -5.421   0.850   8.740  0.00  0.00    +0.046 A 
ATOM     20  C   UNL     1      -4.618   1.890   8.315  0.00  0.00    +0.009 A 
BRANCH  18  21
ATOM     21  O   UNL     1      -5.814  -1.488   8.947  0.00  0.00    -0.495 OA
ATOM     22  C   UNL     1      -5.343  -2.813   8.696  0.00  0.00    +0.277 C 
ENDBRANCH  18  21
ENDBRANCH   8  15
BRANCH   1  23
ATOM     23  O   UNL     1      -0.125   1.303   4.122  0.00  0.00    -0.490 OA
BRANCH  23  24
ATOM     24  C   UNL     1       0.724   0.768   3.104  0.00  0.00    +0.229 C 
BRANCH  24  25
ATOM     25  C   UNL     1       0.141   1.099   1.729  0.00  0.00    +0.041 C 
BRANCH  25  27
ATOM     26  C   UNL     1       0.466   0.857  -0.737  0.00  0.00    +0.004 C 
ATOM     27  C   UNL     1       1.049   0.526   0.639  0.00  0.00    -0.000 C 
ENDBRANCH  25  27
ENDBRANCH  24  25
ENDBRANCH  23  24
ENDBRANCH   1  23
TORSDOF 6
