REMARK  Name = ZINC58450489
REMARK  6 active torsions:
REMARK  status: ('A' for Active; 'I' for Inactive)
REMARK    1  A    between atoms: C_1  and  C_2
REMARK    2  A    between atoms: C_11  and  N_28
REMARK    3  A    between atoms: C_13  and  C_15
REMARK    4  A    between atoms: C_15  and  S_16
REMARK    5  A    between atoms: S_16  and  C_17
REMARK    6  A    between atoms: N_21  and  C_22
REMARK                            x       y       z     vdW  Elec       q    Type
REMARK                         _______ _______ _______ _____ _____    ______ ____
ROOT
ATOM      1  C   UNL     1       0.591   1.266  -0.734  0.00  0.00    +0.008 C 
ATOM      2  C   UNL     1       0.464  -0.251  -0.580  0.00  0.00    -0.009 C 
ATOM      3  C   UNL     1      -1.014  -0.634  -0.460  0.00  0.00    +0.008 C 
ATOM      4  C   UNL     1      -1.166  -2.152  -0.556  0.00  0.00    +0.037 C 
ATOM      5  C   UNL     1      -0.236  -2.807   0.463  0.00  0.00    -0.025 A 
ATOM      6  C   UNL     1       0.801  -2.118   0.989  0.00  0.00    -0.004 A 
ATOM      7  S   UNL     1       1.596  -3.248   2.103  0.00  0.00    -0.073 S 
ATOM      8  C   UNL     1       0.540  -4.640   1.865  0.00  0.00    +0.114 A 
ATOM      9  C   UNL     1      -0.407  -4.177   0.916  0.00  0.00    +0.051 A 
ATOM     10  C   UNL     1      -1.416  -5.098   0.513  0.00  0.00    +0.128 A 
ATOM     11  N   UNL     1      -1.360  -6.304   1.076  0.00  0.00    -0.216 NA
ATOM     12  C   UNL     1      -0.446  -6.664   1.955  0.00  0.00    +0.143 A 
ATOM     13  N   UNL     1       0.521  -5.856   2.373  0.00  0.00    -0.224 NA
ATOM     14  C   UNL     1       1.197  -0.704   0.691  0.00  0.00    +0.046 C 
ENDROOT
BRANCH  10  15
ATOM     15  N   UNL     1      -2.393  -4.761  -0.406  0.00  0.00    -0.343 N 
ATOM     16  H   UNL     1      -2.279  -3.981  -0.971  0.00  0.00    +0.144 HD
ATOM     17  H   UNL     1      -3.193  -5.304  -0.484  0.00  0.00    +0.144 HD
ENDBRANCH  10  15
BRANCH  12  18
ATOM     18  C   UNL     1      -0.502  -8.063   2.513  0.00  0.00    +0.153 C 
BRANCH  18  19
ATOM     19  S   UNL     1       0.481  -9.171   1.466  0.00  0.00    -0.078 S 
BRANCH  19  20
ATOM     20  C   UNL     1       0.318 -10.745   2.240  0.00  0.00    +0.196 A 
ATOM     21  N   UNL     1      -0.374 -11.015   3.323  0.00  0.00    -0.122 NA
ATOM     22  N   UNL     1      -0.273 -12.264   3.607  0.00  0.00    -0.137 NA
ATOM     23  C   UNL     1       0.482 -12.864   2.731  0.00  0.00    +0.230 A 
ATOM     24  N   UNL     1       0.882 -11.920   1.823  0.00  0.00    -0.277 N 
BRANCH  24  25
ATOM     25  C   UNL     1       1.702 -12.115   0.702  0.00  0.00    +0.050 A 
ATOM     26  C   UNL     1       1.310 -11.632  -0.539  0.00  0.00    +0.026 A 
ATOM     27  C   UNL     1       2.119 -11.825  -1.641  0.00  0.00    +0.002 A 
ATOM     28  C   UNL     1       3.319 -12.500  -1.509  0.00  0.00    +0.000 A 
ATOM     29  C   UNL     1       3.712 -12.983  -0.275  0.00  0.00    +0.002 A 
ATOM     30  C   UNL     1       2.909 -12.787   0.832  0.00  0.00    +0.026 A 
ENDBRANCH  24  25
ENDBRANCH  19  20
ENDBRANCH  18  19
ENDBRANCH  12  18
TORSDOF 5
