REMARK  Name = ZINC12292247
REMARK  6 active torsions:
REMARK  status: ('A' for Active; 'I' for Inactive)
REMARK    1  A    between atoms: C_5  and  C_7
REMARK    2  A    between atoms: C_7  and  O_27
REMARK    3  A    between atoms: C_12  and  C_13
REMARK    4  A    between atoms: C_12  and  N_54
REMARK    5  A    between atoms: C_13  and  C_15
REMARK    6  A    between atoms: C_13  and  O_26
REMARK                            x       y       z     vdW  Elec       q    Type
REMARK                         _______ _______ _______ _____ _____    ______ ____
ROOT
ATOM      1  C   UNL     1      -6.146  -2.185  -1.596  0.00  0.00    +0.090 C 
ATOM      2  C   UNL     1      -6.110  -0.965  -2.520  0.00  0.00    +0.021 C 
ATOM      3  C   UNL     1      -4.668  -0.465  -2.641  0.00  0.00    -0.076 C 
ATOM      4  C   UNL     1      -4.140  -1.277  -0.420  0.00  0.00    -0.076 C 
ATOM      5  C   UNL     1      -5.566  -1.801  -0.232  0.00  0.00    +0.021 C 
ATOM      6  N   UNL     1      -4.177  -0.089  -1.298  0.00  0.00    +0.382 N 
ATOM      7  H   UNL     1      -4.815   0.606  -0.893  0.00  0.00    -0.082 HD
ENDROOT
BRANCH   1  12
ATOM      8  C   UNL     1      -9.243  -4.344  -1.651  0.00  0.00    +0.001 A 
ATOM      9  C   UNL     1     -10.186  -3.490  -1.110  0.00  0.00    +0.003 A 
ATOM     10  C   UNL     1      -9.823  -2.214  -0.726  0.00  0.00    +0.039 A 
ATOM     11  C   UNL     1      -8.514  -1.791  -0.879  0.00  0.00    +0.129 A 
ATOM     12  C   UNL     1      -7.571  -2.645  -1.425  0.00  0.00    +0.019 A 
ATOM     13  C   UNL     1      -7.936  -3.922  -1.808  0.00  0.00    +0.009 A 
ATOM     14  F   UNL     1      -8.157  -0.545  -0.498  0.00  0.00    -0.205 F 
ENDBRANCH   1  12
BRANCH   1  15
ATOM     15  O   UNL     1      -5.368  -3.239  -2.166  0.00  0.00    -0.384 OA
ATOM     16  H   UNL     1      -5.347  -4.045  -1.633  0.00  0.00    +0.211 HD
ENDBRANCH   1  15
BRANCH   6  17
ATOM     17  C   UNL     1      -2.827   0.503  -1.403  0.00  0.00    -0.042 C 
BRANCH  17  18
ATOM     18  C   UNL     1      -2.962   1.945  -1.898  0.00  0.00    +0.128 C 
BRANCH  18  19
ATOM     19  C   UNL     1      -1.595   2.569  -2.005  0.00  0.00    -0.017 A 
ATOM     20  C   UNL     1      -0.968   3.053  -0.872  0.00  0.00    +0.010 A 
ATOM     21  C   UNL     1       0.290   3.622  -0.962  0.00  0.00    +0.050 A 
ATOM     22  C   UNL     1       0.916   3.712  -2.193  0.00  0.00    +0.162 A 
ATOM     23  C   UNL     1       0.284   3.232  -3.331  0.00  0.00    +0.162 A 
ATOM     24  C   UNL     1      -0.975   2.663  -3.238  0.00  0.00    +0.055 A 
ATOM     25  O   UNL     1       0.910   3.325  -4.540  0.00  0.00    -0.488 OA
ATOM     26  C   UNL     1       2.068   2.505  -4.709  0.00  0.00    +0.232 C 
ATOM     27  C   UNL     1       3.302   3.190  -4.143  0.00  0.00    +0.082 C 
ATOM     28  C   UNL     1       3.219   3.379  -2.637  0.00  0.00    +0.232 C 
ATOM     29  O   UNL     1       2.156   4.272  -2.296  0.00  0.00    -0.488 OA
ENDBRANCH  18  19
BRANCH  18  30
ATOM     30  O   UNL     1      -3.757   2.692  -0.975  0.00  0.00    -0.389 OA
ATOM     31  H   UNL     1      -3.389   2.731  -0.081  0.00  0.00    +0.210 HD
ENDBRANCH  18  30
ENDBRANCH  17  18
ENDBRANCH   6  17
TORSDOF 6
