REMARK  Name = ZINC39452733
REMARK  5 active torsions:
REMARK  status: ('A' for Active; 'I' for Inactive)
REMARK    1  A    between atoms: C_1  and  C_2
REMARK    2  A    between atoms: C_2  and  O_3
REMARK    3  A    between atoms: O_3  and  C_4
REMARK    4  A    between atoms: C_23  and  C_26
REMARK    5  A    between atoms: C_31  and  O_32
REMARK                            x       y       z     vdW  Elec       q    Type
REMARK                         _______ _______ _______ _____ _____    ______ ____
ROOT
ATOM      1  C   UNL     1       1.241  -1.026   1.775  0.00  0.00    +0.130 A 
ATOM      2  C   UNL     1       0.674  -1.728   0.734  0.00  0.00    +0.046 A 
ATOM      3  C   UNL     1       0.679  -3.118   0.713  0.00  0.00    +0.006 A 
ATOM      4  C   UNL     1       1.242  -3.851   1.714  0.00  0.00    +0.028 A 
ATOM      5  C   UNL     1       1.839  -3.200   2.807  0.00  0.00    +0.075 A 
ATOM      6  C   UNL     1       1.844  -1.735   2.834  0.00  0.00    +0.043 A 
ATOM      7  C   UNL     1       2.443  -1.078   3.917  0.00  0.00    +0.029 A 
ATOM      8  C   UNL     1       3.010  -1.859   4.915  0.00  0.00    +0.068 A 
ATOM      9  C   UNL     1       2.973  -3.276   4.823  0.00  0.00    +0.100 A 
ATOM     10  N   UNL     1       2.396  -3.886   3.805  0.00  0.00    -0.244 NA
ATOM     11  C   UNL     1       3.586  -4.054   5.914  0.00  0.00    +0.082 A 
ATOM     12  C   UNL     1       4.176  -3.401   6.978  0.00  0.00    +0.122 A 
ATOM     13  N   UNL     1       4.199  -2.012   7.041  0.00  0.00    -0.237 N 
ATOM     14  C   UNL     1       3.657  -1.241   6.082  0.00  0.00    +0.271 A 
ATOM     15  O   UNL     1       3.702  -0.028   6.180  0.00  0.00    -0.266 OA
ATOM     16 BR   UNL     1       5.001  -1.197   8.495  0.00  0.00    +0.058 Br
ATOM     17  C   UNL     1       4.772  -4.150   8.019  0.00  0.00    +0.184 C 
ATOM     18  O   UNL     1       5.247  -3.574   8.977  0.00  0.00    -0.290 OA
ATOM     19  C   UNL     1       4.824  -5.653   7.951  0.00  0.00    +0.108 C 
ATOM     20  C   UNL     1       3.620  -6.167   7.152  0.00  0.00    +0.112 C 
ATOM     21  N   UNL     1       3.568  -5.435   5.877  0.00  0.00    -0.333 N 
ATOM     22  H   UNL     1       3.522  -5.909   5.032  0.00  0.00    +0.147 HD
ENDROOT
BRANCH  20  23
ATOM     23  C   UNL     1       2.353  -5.926   7.930  0.00  0.00    +0.014 A 
ATOM     24  C   UNL     1       1.522  -4.876   7.590  0.00  0.00    +0.009 A 
ATOM     25  C   UNL     1       0.359  -4.654   8.304  0.00  0.00    +0.001 A 
ATOM     26  C   UNL     1       0.024  -5.482   9.360  0.00  0.00    +0.004 A 
ATOM     27  C   UNL     1       0.851  -6.534   9.703  0.00  0.00    +0.046 A 
ATOM     28  C   UNL     1       2.016  -6.762   8.985  0.00  0.00    +0.122 A 
BRANCH  28  29
ATOM     29  O   UNL     1       2.829  -7.799   9.317  0.00  0.00    -0.506 OA
ATOM     30  H   UNL     1       3.506  -7.575   9.970  0.00  0.00    +0.292 HD
ENDBRANCH  28  29
ENDBRANCH  20  23
BRANCH   1  31
ATOM     31  O   UNL     1       1.226   0.331   1.777  0.00  0.00    -0.492 OA
BRANCH  31  33
ATOM     32  C   UNL     1       0.677   2.492   0.845  0.00  0.00    +0.048 C 
ATOM     33  C   UNL     1       0.597   0.974   0.667  0.00  0.00    +0.226 C 
ENDBRANCH  31  33
ENDBRANCH   1  31
TORSDOF 4
