REMARK  Name = ZINC58953032
REMARK  4 active torsions:
REMARK  status: ('A' for Active; 'I' for Inactive)
REMARK    1  A    between atoms: C_1  and  N_2
REMARK    2  A    between atoms: N_2  and  C_3
REMARK    3  A    between atoms: C_3  and  C_4
REMARK    4  A    between atoms: C_14  and  C_16
REMARK                            x       y       z     vdW  Elec       q    Type
REMARK                         _______ _______ _______ _____ _____    ______ ____
ROOT
ATOM      1  C   UNL     1       1.091   1.764  -0.299  0.00  0.00    +0.132 C 
ATOM      2  N   UNL     1       0.655   0.379  -0.110  0.00  0.00    -0.304 N 
ATOM      3  C   UNL     1       0.100  -0.299  -1.134  0.00  0.00    +0.219 C 
ATOM      4  O   UNL     1      -0.342  -1.414  -0.955  0.00  0.00    -0.275 OA
ENDROOT
BRANCH   3   5
ATOM      5  C   UNL     1       0.027   0.330  -2.502  0.00  0.00    +0.078 C 
ATOM      6  C   UNL     1      -1.056   1.411  -2.509  0.00  0.00    +0.032 C 
ATOM      7  C   UNL     1      -1.104   2.072  -3.890  0.00  0.00    +0.110 C 
ATOM      8  N   UNL     1      -1.287   1.028  -4.907  0.00  0.00    -0.285 N 
ATOM      9  C   UNL     1      -0.354  -0.107  -4.932  0.00  0.00    +0.110 C 
ATOM     10  C   UNL     1      -0.315  -0.743  -3.539  0.00  0.00    +0.032 C 
ATOM     11  C   UNL     1      -2.293   1.109  -5.801  0.00  0.00    +0.305 C 
ATOM     12  O   UNL     1      -3.188   1.915  -5.637  0.00  0.00    -0.252 OA
ATOM     13  N   UNL     1      -2.305   0.297  -6.877  0.00  0.00    -0.285 N 
ATOM     14  C   UNL     1      -1.406  -0.845  -7.099  0.00  0.00    +0.109 C 
ATOM     15  C   UNL     1      -1.772  -1.456  -8.468  0.00  0.00    +0.020 C 
ATOM     16  C   UNL     1      -2.479  -0.282  -9.196  0.00  0.00    +0.020 C 
ATOM     17  C   UNL     1      -3.228   0.403  -8.022  0.00  0.00    +0.109 C 
ENDBRANCH   3   5
BRANCH   2  18
ATOM     18  C   UNL     1       0.824  -0.271   1.192  0.00  0.00    +0.114 C 
BRANCH  18  19
ATOM     19  C   UNL     1      -0.423  -0.033   2.046  0.00  0.00    -0.013 C 
ATOM     20  C   UNL     1      -1.646  -0.619   1.338  0.00  0.00    +0.012 C 
ATOM     21  C   UNL     1      -2.893  -0.380   2.192  0.00  0.00    -0.010 C 
ATOM     22  C   UNL     1      -2.717  -1.058   3.552  0.00  0.00    +0.007 C 
ATOM     23  C   UNL     1      -1.494  -0.472   4.260  0.00  0.00    -0.010 C 
ATOM     24  C   UNL     1      -0.247  -0.711   3.406  0.00  0.00    +0.012 C 
ATOM     25  C   UNL     1      -1.693   1.031   4.463  0.00  0.00    +0.007 C 
ATOM     26  C   UNL     1      -1.869   1.710   3.103  0.00  0.00    -0.010 C 
ATOM     27  C   UNL     1      -3.092   1.124   2.395  0.00  0.00    +0.007 C 
ATOM     28  C   UNL     1      -0.622   1.471   2.248  0.00  0.00    +0.012 C 
ENDBRANCH  18  19
ENDBRANCH   2  18
TORSDOF 3
