REMARK  Name = ZINC03046862
REMARK  9 active torsions:
REMARK  status: ('A' for Active; 'I' for Inactive)
REMARK    1  A    between atoms: C_1  and  C_2
REMARK    2  A    between atoms: C_5  and  S_25
REMARK    3  A    between atoms: C_10  and  C_11
REMARK    4  A    between atoms: N_13  and  C_14
REMARK    5  A    between atoms: C_14  and  C_16
REMARK    6  A    between atoms: C_14  and  C_17
REMARK    7  A    between atoms: C_17  and  C_18
REMARK    8  A    between atoms: C_18  and  C_19
REMARK    9  A    between atoms: S_25  and  N_28
REMARK                            x       y       z     vdW  Elec       q    Type
REMARK                         _______ _______ _______ _____ _____    ______ ____
ROOT
ATOM      1  C   UNL     1      -0.658   5.971   3.766  0.00  0.00    +0.048 C 
ATOM      2  C   UNL     1      -1.476   4.719   3.953  0.00  0.00    +0.008 A 
ATOM      3  C   UNL     1      -1.441   3.515   3.124  0.00  0.00    +0.026 A 
ATOM      4  C   UNL     1      -0.716   3.131   1.994  0.00  0.00    +0.040 A 
ATOM      5  C   UNL     1      -0.927   1.900   1.439  0.00  0.00    +0.106 A 
ATOM      6  C   UNL     1      -1.849   1.026   1.998  0.00  0.00    +0.032 A 
ATOM      7  C   UNL     1      -2.570   1.383   3.117  0.00  0.00    +0.049 A 
ATOM      8  C   UNL     1      -2.377   2.632   3.695  0.00  0.00    +0.136 A 
ATOM      9  O   UNL     1      -2.919   3.248   4.763  0.00  0.00    -0.450 OA
ATOM     10  C   UNL     1      -2.394   4.481   4.925  0.00  0.00    +0.193 A 
ENDROOT
BRANCH  10  11
ATOM     11  C   UNL     1      -2.762   5.424   5.990  0.00  0.00    +0.280 C 
ATOM     12  O   UNL     1      -2.228   6.516   6.047  0.00  0.00    -0.267 OA
ATOM     13  N   UNL     1      -3.690   5.080   6.904  0.00  0.00    -0.306 N 
ATOM     14  H   UNL     1      -4.116   4.209   6.859  0.00  0.00    +0.149 HD
BRANCH  13  15
ATOM     15  C   UNL     1      -4.057   6.019   7.967  0.00  0.00    +0.071 C 
ATOM     16  C   UNL     1      -5.132   6.978   7.451  0.00  0.00    +0.028 C 
BRANCH  15  17
ATOM     17  C   UNL     1      -4.598   5.244   9.169  0.00  0.00    +0.026 C 
BRANCH  17  18
ATOM     18  C   UNL     1      -3.485   4.378   9.761  0.00  0.00    +0.037 C 
BRANCH  18  19
ATOM     19  C   UNL     1      -4.019   3.614  10.946  0.00  0.00    -0.047 A 
ATOM     20  C   UNL     1      -3.942   4.162  12.213  0.00  0.00    +0.003 A 
ATOM     21  C   UNL     1      -4.437   3.463  13.299  0.00  0.00    +0.000 A 
ATOM     22  C   UNL     1      -4.997   2.213  13.119  0.00  0.00    +0.000 A 
ATOM     23  C   UNL     1      -5.069   1.663  11.853  0.00  0.00    +0.000 A 
ATOM     24  C   UNL     1      -4.579   2.363  10.766  0.00  0.00    +0.003 A 
ENDBRANCH  18  19
ENDBRANCH  17  18
ENDBRANCH  15  17
ENDBRANCH  13  15
ENDBRANCH  10  11
BRANCH   5  25
ATOM     25  S   UNL     1      -0.017   1.417   0.010  0.00  0.00    +0.061 S 
ATOM     26  O   UNL     1       0.002  -0.004   0.002  0.00  0.00    -0.153 OA
ATOM     27  O   UNL     1       1.172   2.195   0.003  0.00  0.00    -0.153 OA
BRANCH  25  28
ATOM     28  N   UNL     1      -0.897   1.885  -1.312  0.00  0.00    -0.176 NA
ATOM     29  C   UNL     1      -1.885   0.979  -1.913  0.00  0.00    +0.114 C 
ATOM     30  C   UNL     1      -1.583   0.833  -3.404  0.00  0.00    +0.082 C 
ATOM     31  C   UNL     1      -1.523   2.219  -4.048  0.00  0.00    +0.173 C 
ATOM     32  C   UNL     1      -0.407   3.044  -3.403  0.00  0.00    +0.082 C 
ATOM     33  C   UNL     1      -0.701   3.213  -1.909  0.00  0.00    +0.114 C 
ATOM     34  O   UNL     1      -1.274   2.088  -5.453  0.00  0.00    -0.346 OA
ATOM     35  C   UNL     1      -2.384   2.698  -6.142  0.00  0.00    +0.191 C 
ATOM     36  C   UNL     1      -2.981   3.649  -5.074  0.00  0.00    +0.191 C 
ATOM     37  O   UNL     1      -2.780   2.888  -3.859  0.00  0.00    -0.346 OA
ENDBRANCH  25  28
ENDBRANCH   5  25
TORSDOF 7
