REMARK  Name = ZINC66785102
REMARK  5 active torsions:
REMARK  status: ('A' for Active; 'I' for Inactive)
REMARK    1  A    between atoms: C_1  and  C_2
REMARK    2  A    between atoms: C_10  and  C_11
REMARK    3  A    between atoms: N_13  and  N_14
REMARK    4  A    between atoms: C_15  and  C_17
REMARK    5  A    between atoms: C_17  and  C_18
REMARK                            x       y       z     vdW  Elec       q    Type
REMARK                         _______ _______ _______ _____ _____    ______ ____
ROOT
ATOM      1  C   UNL     1       0.032  -0.382   2.484  0.00  0.00    +0.296 C 
ATOM      2  O   UNL     1       0.018   0.806   2.745  0.00  0.00    -0.265 OA
ATOM      3  N   UNL     1       0.054  -1.291   3.479  0.00  0.00    -0.228 N 
ATOM      4  H   UNL     1       0.065  -2.238   3.270  0.00  0.00    +0.173 HD
ENDROOT
BRANCH   1  14
ATOM      5  C   UNL     1      -0.018   1.503   0.010  0.00  0.00    +0.048 C 
ATOM      6  C   UNL     1       0.002  -0.004   0.002  0.00  0.00    +0.008 A 
ATOM      7  C   UNL     1       0.009  -0.877  -1.171  0.00  0.00    +0.025 A 
ATOM      8  C   UNL     1      -0.001  -0.654  -2.551  0.00  0.00    +0.012 A 
ATOM      9  C   UNL     1       0.009  -1.717  -3.409  0.00  0.00    +0.002 A 
ATOM     10  C   UNL     1       0.029  -3.016  -2.920  0.00  0.00    +0.024 A 
ATOM     11  C   UNL     1       0.039  -3.258  -1.562  0.00  0.00    +0.084 A 
ATOM     12  C   UNL     1       0.029  -2.191  -0.669  0.00  0.00    +0.154 A 
ATOM     13  O   UNL     1       0.034  -2.113   0.676  0.00  0.00    -0.448 OA
ATOM     14  C   UNL     1       0.024  -0.826   1.083  0.00  0.00    +0.195 A 
ATOM     15 CL   UNL     1       0.064  -4.889  -0.969  0.00  0.00    -0.080 Cl
ENDBRANCH   1  14
BRANCH   3  16
ATOM     16  N   UNL     1       0.061  -0.867   4.814  0.00  0.00    -0.234 N 
ATOM     17  C   UNL     1       0.084  -1.776   5.809  0.00  0.00    +0.233 C 
ATOM     18  O   UNL     1       0.097  -2.960   5.549  0.00  0.00    -0.274 OA
ATOM     19  H   UNL     1       0.051   0.080   5.023  0.00  0.00    +0.173 HD
BRANCH  17  20
ATOM     20  C   UNL     1       0.092  -1.320   7.246  0.00  0.00    +0.135 C 
BRANCH  20  21
ATOM     21  C   UNL     1       0.117  -2.523   8.154  0.00  0.00    -0.003 A 
ATOM     22  C   UNL     1      -1.064  -3.031   8.661  0.00  0.00    +0.007 A 
ATOM     23  C   UNL     1      -1.041  -4.134   9.494  0.00  0.00    +0.000 A 
ATOM     24  C   UNL     1       0.163  -4.730   9.821  0.00  0.00    +0.003 A 
ATOM     25  C   UNL     1       1.345  -4.223   9.315  0.00  0.00    +0.038 A 
ATOM     26  C   UNL     1       1.323  -3.122   8.476  0.00  0.00    +0.127 A 
ATOM     27  F   UNL     1       2.477  -2.629   7.977  0.00  0.00    -0.205 F 
ENDBRANCH  20  21
ENDBRANCH  17  20
ENDBRANCH   3  16
TORSDOF 4
