REMARK  Name = ZINC00977691
REMARK  6 active torsions:
REMARK  status: ('A' for Active; 'I' for Inactive)
REMARK    1  A    between atoms: C_4  and  C_7
REMARK    2  A    between atoms: C_7  and  C_8
REMARK    3  A    between atoms: C_7  and  C_14
REMARK    4  A    between atoms: C_7  and  O_25
REMARK    5  A    between atoms: N_16  and  N_17
REMARK    6  A    between atoms: C_18  and  C_19
REMARK                            x       y       z     vdW  Elec       q    Type
REMARK                         _______ _______ _______ _____ _____    ______ ____
ROOT
ATOM      1  C   UNL     1       0.002  -0.004   0.002  0.00  0.00    +0.194 C 
ENDROOT
BRANCH   1   5
ATOM      2  C   UNL     1       2.955   0.308  -3.069  0.00  0.00    +0.000 A 
ATOM      3  C   UNL     1       2.953  -0.783  -2.220  0.00  0.00    +0.000 A 
ATOM      4  C   UNL     1       1.997  -0.884  -1.226  0.00  0.00    +0.007 A 
ATOM      5  C   UNL     1       1.044   0.106  -1.081  0.00  0.00    -0.003 A 
ATOM      6  C   UNL     1       1.043   1.195  -1.933  0.00  0.00    +0.007 A 
ATOM      7  C   UNL     1       2.001   1.298  -2.924  0.00  0.00    +0.000 A 
ENDBRANCH   1   5
BRANCH   1   8
ATOM      8  C   UNL     1      -1.284  -0.521  -0.589  0.00  0.00    -0.003 A 
ATOM      9  C   UNL     1      -1.845  -1.689  -0.109  0.00  0.00    +0.007 A 
ATOM     10  C   UNL     1      -3.028  -2.160  -0.647  0.00  0.00    +0.000 A 
ATOM     11  C   UNL     1      -3.644  -1.469  -1.673  0.00  0.00    +0.000 A 
ATOM     12  C   UNL     1      -3.080  -0.303  -2.158  0.00  0.00    +0.000 A 
ATOM     13  C   UNL     1      -1.900   0.171  -1.615  0.00  0.00    +0.007 A 
ENDBRANCH   1   8
BRANCH   1  14
ATOM     14  C   UNL     1      -0.235   1.354   0.611  0.00  0.00    +0.273 C 
ATOM     15  O   UNL     1      -1.144   2.049   0.209  0.00  0.00    -0.270 OA
ATOM     16  N   UNL     1       0.564   1.796   1.603  0.00  0.00    -0.204 N 
ATOM     17  H   UNL     1       1.291   1.240   1.925  0.00  0.00    +0.177 HD
BRANCH  16  18
ATOM     18  N   UNL     1       0.344   3.058   2.170  0.00  0.00    -0.187 NA
ATOM     19  C   UNL     1       1.114   3.485   3.127  0.00  0.00    +0.145 C 
BRANCH  19  20
ATOM     20  C   UNL     1       0.884   4.806   3.720  0.00  0.00    +0.033 A 
ATOM     21  C   UNL     1       1.579   5.440   4.735  0.00  0.00    +0.018 A 
ATOM     22  C   UNL     1       1.169   6.694   5.124  0.00  0.00    +0.023 A 
ATOM     23  C   UNL     1       0.103   7.267   4.505  0.00  0.00    +0.055 A 
ATOM     24  S   UNL     1      -0.362   6.019   3.315  0.00  0.00    -0.080 S 
ATOM     25 BR   UNL     1      -0.683   8.958   4.818  0.00  0.00    -0.043 Br
ENDBRANCH  19  20
ENDBRANCH  16  18
ENDBRANCH   1  14
BRANCH   1  26
ATOM     26  O   UNL     1       0.458  -0.906   1.012  0.00  0.00    -0.371 OA
ATOM     27  H   UNL     1      -0.164  -1.026   1.743  0.00  0.00    +0.212 HD
ENDBRANCH   1  26
TORSDOF 6
