REMARK  Name = ZINC66770891
REMARK  2 active torsions:
REMARK  status: ('A' for Active; 'I' for Inactive)
REMARK    1  A    between atoms: C_8  and  C_11
REMARK    2  A    between atoms: C_17  and  C_19
REMARK                            x       y       z     vdW  Elec       q    Type
REMARK                         _______ _______ _______ _____ _____    ______ ____
ROOT
ATOM      1  C   UNL     1       3.279  -3.841   0.263  0.00  0.00    +0.230 C 
ATOM      2  O   UNL     1       2.953  -4.014   1.418  0.00  0.00    -0.274 OA
ATOM      3  N   UNL     1       4.100  -4.720  -0.345  0.00  0.00    -0.293 N 
ATOM      4  C   UNL     1       4.579  -4.629  -1.736  0.00  0.00    +0.108 C 
ATOM      5  C   UNL     1       4.931  -6.085  -2.131  0.00  0.00    +0.021 C 
ATOM      6  C   UNL     1       5.521  -6.633  -0.805  0.00  0.00    +0.029 C 
ATOM      7  C   UNL     1       4.672  -5.926   0.273  0.00  0.00    +0.110 C 
ENDROOT
BRANCH   7   8
ATOM      8  C   UNL     1       5.541  -5.540   1.442  0.00  0.00    +0.018 A 
ATOM      9  C   UNL     1       6.028  -4.250   1.544  0.00  0.00    +0.009 A 
ATOM     10  C   UNL     1       6.825  -3.893   2.615  0.00  0.00    +0.004 A 
ATOM     11  C   UNL     1       7.141  -4.825   3.586  0.00  0.00    +0.049 A 
ATOM     12  C   UNL     1       6.656  -6.120   3.489  0.00  0.00    +0.162 A 
ATOM     13  C   UNL     1       5.847  -6.477   2.416  0.00  0.00    +0.167 A 
ATOM     14  O   UNL     1       5.351  -7.740   2.308  0.00  0.00    -0.485 OA
ATOM     15  C   UNL     1       5.982  -8.750   3.103  0.00  0.00    +0.270 C 
ATOM     16  C   UNL     1       6.157  -8.202   4.526  0.00  0.00    +0.270 C 
ATOM     17  O   UNL     1       6.978  -7.028   4.451  0.00  0.00    -0.485 OA
ENDBRANCH   7   8
BRANCH   1  25
ATOM     18  C   UNL     1      -0.017   1.372   0.010  0.00  0.00    +0.000 A 
ATOM     19  C   UNL     1       1.161   2.097   0.002  0.00  0.00    +0.001 A 
ATOM     20  C   UNL     1       2.366   1.421  -0.021  0.00  0.00    +0.015 A 
ATOM     21  C   UNL     1       2.381   0.038  -0.034  0.00  0.00    +0.012 A 
ATOM     22  C   UNL     1       1.208  -0.710  -0.011  0.00  0.00    -0.032 A 
ATOM     23  C   UNL     1       0.002  -0.004   0.002  0.00  0.00    +0.005 A 
ATOM     24  C   UNL     1       1.372  -2.210   0.015  0.00  0.00    +0.060 C 
ATOM     25  C   UNL     1       2.765  -2.643  -0.494  0.00  0.00    +0.142 C 
ATOM     26  S   UNL     1       3.725  -1.127  -0.084  0.00  0.00    -0.112 S 
ENDBRANCH   1  25
TORSDOF 2
