REMARK  Name = ZINC55081617
REMARK  8 active torsions:
REMARK  status: ('A' for Active; 'I' for Inactive)
REMARK    1  A    between atoms: C_1  and  C_2
REMARK    2  A    between atoms: C_2  and  C_3
REMARK    3  A    between atoms: C_9  and  C_12
REMARK    4  A    between atoms: C_12  and  N_13
REMARK    5  A    between atoms: N_16  and  C_19
REMARK    6  A    between atoms: C_19  and  C_20
REMARK    7  A    between atoms: C_20  and  C_21
REMARK    8  A    between atoms: C_20  and  C_22
REMARK                            x       y       z     vdW  Elec       q    Type
REMARK                         _______ _______ _______ _____ _____    ______ ____
ROOT
ATOM      1  N   UNL     1       0.753  -2.257  -5.286  0.00  0.00    -0.305 NA
ATOM      2  C   UNL     1       2.175  -1.889  -5.331  0.00  0.00    +0.066 C 
ATOM      3  C   UNL     1       2.881  -2.724  -6.402  0.00  0.00    -0.063 C 
ATOM      4  N   UNL     1       2.253  -2.479  -7.707  0.00  0.00    +0.381 N 
ATOM      5  C   UNL     1       0.839  -2.873  -7.654  0.00  0.00    -0.063 C 
ATOM      6  C   UNL     1       0.116  -2.040  -6.593  0.00  0.00    +0.066 C 
ATOM      7  H   UNL     1       2.320  -1.498  -7.933  0.00  0.00    -0.082 HD
ENDROOT
BRANCH   1   8
ATOM      8  C   UNL     1       0.051  -1.516  -4.229  0.00  0.00    +0.095 C 
BRANCH   8  14
ATOM      9  C   UNL     1      -1.261  -1.356  -1.544  0.00  0.00    -0.010 C 
ATOM     10  C   UNL     1      -1.126  -2.762  -0.959  0.00  0.00    +0.011 C 
ATOM     11  C   UNL     1      -0.303  -3.634  -1.913  0.00  0.00    +0.075 C 
ATOM     12  C   UNL     1      -0.946  -3.588  -3.281  0.00  0.00    +0.138 C 
ATOM     13  O   UNL     1      -1.205  -4.605  -3.878  0.00  0.00    -0.297 OA
ATOM     14  C   UNL     1      -1.254  -2.235  -3.884  0.00  0.00    +0.069 C 
ATOM     15  C   UNL     1      -2.043  -1.415  -2.857  0.00  0.00    +0.016 C 
BRANCH   9  17
ATOM     16  C   UNL     1      -1.159  -0.296   0.716  0.00  0.00    +0.004 C 
ATOM     17  C   UNL     1      -2.003  -0.460  -0.550  0.00  0.00    +0.000 C 
ENDBRANCH   9  17
ENDBRANCH   8  14
ENDBRANCH   1   8
BRANCH   4  18
ATOM     18  C   UNL     1       2.942  -3.266  -8.738  0.00  0.00    -0.076 C 
BRANCH  18  19
ATOM     19  C   UNL     1       4.376  -2.757  -8.895  0.00  0.00    -0.034 C 
ATOM     20  C   UNL     1       5.116  -3.623  -9.917  0.00  0.00    +0.005 C 
ATOM     21  C   UNL     1       4.351  -1.306  -9.379  0.00  0.00    +0.005 C 
ENDBRANCH  18  19
ENDBRANCH   4  18
TORSDOF 5
