REMARK  Name = ZINC21577475
REMARK  8 active torsions:
REMARK  status: ('A' for Active; 'I' for Inactive)
REMARK    1  A    between atoms: C_1  and  C_2
REMARK    2  A    between atoms: C_2  and  C_3
REMARK    3  A    between atoms: C_3  and  C_4
REMARK    4  A    between atoms: N_9  and  C_12
REMARK    5  A    between atoms: C_17  and  N_18
REMARK    6  A    between atoms: N_18  and  C_19
REMARK    7  A    between atoms: C_19  and  N_21
REMARK    8  A    between atoms: C_22  and  C_24
REMARK                            x       y       z     vdW  Elec       q    Type
REMARK                         _______ _______ _______ _____ _____    ______ ____
ROOT
ATOM      1  C   UNL     1       1.313  -2.030  -0.209  0.00  0.00    +0.051 A 
ATOM      2  C   UNL     1       2.546  -2.655  -0.321  0.00  0.00    +0.026 A 
ATOM      3  C   UNL     1       3.705  -1.902  -0.320  0.00  0.00    +0.022 A 
ATOM      4  C   UNL     1       3.639  -0.524  -0.212  0.00  0.00    +0.043 A 
ATOM      5  C   UNL     1       2.413   0.107  -0.105  0.00  0.00    +0.045 A 
ATOM      6  C   UNL     1       1.245  -0.641  -0.106  0.00  0.00    +0.055 A 
ATOM      7 CL   UNL     1       5.099   0.415  -0.211  0.00  0.00    -0.083 Cl
ENDROOT
BRANCH   1  13
ATOM      8  C   UNL     1      -1.915  -6.311  -0.281  0.00  0.00    +0.216 C 
ATOM      9  O   UNL     1      -2.115  -6.851  -1.348  0.00  0.00    -0.276 OA
ATOM     10  N   UNL     1      -1.540  -5.017  -0.241  0.00  0.00    -0.298 N 
ATOM     11  C   UNL     1      -1.368  -4.242  -1.479  0.00  0.00    +0.126 C 
ATOM     12  C   UNL     1       0.008  -3.567  -1.444  0.00  0.00    +0.124 C 
ATOM     13  N   UNL     1       0.138  -2.792  -0.203  0.00  0.00    -0.325 N 
ATOM     14  C   UNL     1       0.081  -3.663   0.978  0.00  0.00    +0.124 C 
ATOM     15  C   UNL     1      -1.292  -4.342   1.042  0.00  0.00    +0.126 C 
BRANCH   8  16
ATOM     16  C   UNL     1      -2.085  -7.086   1.000  0.00  0.00    +0.096 C 
BRANCH  16  18
ATOM     17  C   UNL     1      -2.685  -9.306   1.976  0.00  0.00    +0.004 C 
ATOM     18  C   UNL     1      -2.512  -8.519   0.676  0.00  0.00    +0.006 C 
ENDBRANCH  16  18
ENDBRANCH   8  16
ENDBRANCH   1  13
BRANCH   6  19
ATOM     19  N   UNL     1       0.002  -0.004   0.002  0.00  0.00    -0.295 N 
ATOM     20  H   UNL     1      -0.831  -0.309  -0.648  0.00  0.00    +0.154 HD
BRANCH  19  21
ATOM     21  C   UNL     1      -0.173   0.983   0.903  0.00  0.00    +0.141 C 
ATOM     22  S   UNL     1       1.076   1.364   2.010  0.00  0.00    -0.018 S 
BRANCH  21  23
ATOM     23  N   UNL     1      -1.330   1.674   0.929  0.00  0.00    -0.264 N 
ATOM     24  C   UNL     1      -1.506   2.661   1.830  0.00  0.00    +0.250 C 
ATOM     25  O   UNL     1      -0.621   2.928   2.619  0.00  0.00    -0.270 OA
ATOM     26  H   UNL     1      -2.131   1.432   0.215  0.00  0.00    +0.157 HD
BRANCH  24  27
ATOM     27  C   UNL     1      -2.774   3.418   1.858  0.00  0.00    +0.039 A 
ATOM     28  C   UNL     1      -3.790   3.117   0.949  0.00  0.00    +0.014 A 
ATOM     29  C   UNL     1      -4.974   3.823   0.984  0.00  0.00    +0.022 A 
ATOM     30  C   UNL     1      -5.152   4.837   1.911  0.00  0.00    +0.059 A 
ATOM     31  C   UNL     1      -4.145   5.145   2.812  0.00  0.00    +0.060 A 
ATOM     32  C   UNL     1      -2.958   4.441   2.790  0.00  0.00    +0.034 A 
ATOM     33 CL   UNL     1      -4.378   6.417   3.970  0.00  0.00    -0.082 Cl
ATOM     34 CL   UNL     1      -6.643   5.726   1.943  0.00  0.00    -0.082 Cl
ENDBRANCH  24  27
ENDBRANCH  21  23
ENDBRANCH  19  21
ENDBRANCH   6  19
TORSDOF 7
