REMARK  Name = ZINC13642806
REMARK  6 active torsions:
REMARK  status: ('A' for Active; 'I' for Inactive)
REMARK    1  A    between atoms: C_1  and  C_2
REMARK    2  A    between atoms: C_2  and  N_3
REMARK    3  A    between atoms: C_4  and  C_6
REMARK    4  A    between atoms: C_13  and  C_22
REMARK    5  A    between atoms: N_34  and  C_35
REMARK    6  A    between atoms: C_35  and  C_36
REMARK                            x       y       z     vdW  Elec       q    Type
REMARK                         _______ _______ _______ _____ _____    ______ ____
ROOT
ATOM      1  C   UNL     1       5.711   2.105  -1.544  0.00  0.00    +0.058 A 
ATOM      2  C   UNL     1       7.080   1.922  -1.360  0.00  0.00    +0.015 A 
ATOM      3  C   UNL     1       7.540   1.143  -0.322  0.00  0.00    +0.001 A 
ATOM      4  C   UNL     1       6.637   0.537   0.537  0.00  0.00    +0.006 A 
ATOM      5  C   UNL     1       5.280   0.704   0.368  0.00  0.00    -0.019 A 
ATOM      6  C   UNL     1       4.786   1.498  -0.671  0.00  0.00    +0.044 A 
ATOM      7  N   UNL     1       3.441   1.747  -0.890  0.00  0.00    -0.336 N 
ATOM      8  C   UNL     1       2.485   1.047  -0.016  0.00  0.00    +0.105 C 
ATOM      9  C   UNL     1       3.083   1.027   1.375  0.00  0.00    +0.029 C 
ATOM     10  C   UNL     1       4.299   0.055   1.266  0.00  0.00    +0.049 C 
ATOM     11  C   UNL     1       4.601  -0.264   2.683  0.00  0.00    -0.023 C 
ATOM     12  C   UNL     1       3.478  -0.165   3.386  0.00  0.00    -0.030 C 
ATOM     13  C   UNL     1       2.328   0.273   2.475  0.00  0.00    +0.033 C 
ATOM     14  H   UNL     1       3.201   1.620  -1.862  0.00  0.00    +0.147 HD
ENDROOT
BRANCH   8  15
ATOM     15  C   UNL     1       1.170   1.783   0.001  0.00  0.00    -0.026 A 
ATOM     16  C   UNL     1       1.155   3.170   0.009  0.00  0.00    +0.007 A 
ATOM     17  C   UNL     1      -0.039   3.857   0.024  0.00  0.00    +0.027 A 
ATOM     18  C   UNL     1      -1.244   3.160   0.031  0.00  0.00    +0.050 A 
ATOM     19  C   UNL     1      -1.227   1.758   0.017  0.00  0.00    +0.008 A 
ATOM     20  C   UNL     1      -0.013   1.076   0.008  0.00  0.00    +0.016 A 
ATOM     21  C   UNL     1      -2.636   1.322   0.034  0.00  0.00    +0.008 A 
ATOM     22  C   UNL     1      -3.253   0.074   0.032  0.00  0.00    +0.010 A 
ATOM     23  C   UNL     1      -4.628  -0.010   0.045  0.00  0.00    +0.001 A 
ATOM     24  C   UNL     1      -5.398   1.143   0.058  0.00  0.00    +0.002 A 
ATOM     25  C   UNL     1      -4.801   2.385   0.060  0.00  0.00    +0.026 A 
ATOM     26  C   UNL     1      -3.413   2.490   0.048  0.00  0.00    +0.050 A 
ATOM     27  N   UNL     1      -2.562   3.581   0.046  0.00  0.00    -0.340 N 
BRANCH  27  28
ATOM     28  C   UNL     1      -2.995   4.980   0.057  0.00  0.00    +0.119 C 
ATOM     29  C   UNL     1      -3.159   5.475  -1.381  0.00  0.00    +0.027 C 
ENDBRANCH  27  28
ENDBRANCH   8  15
BRANCH   1  31
ATOM     30  N   UNL     1       6.108   3.522  -3.497  0.00  0.00    -0.312 N 
ATOM     31  C   UNL     1       5.227   2.939  -2.659  0.00  0.00    +0.246 C 
ATOM     32  O   UNL     1       4.033   3.102  -2.824  0.00  0.00    -0.270 OA
ATOM     33  H   UNL     1       7.060   3.392  -3.366  0.00  0.00    +0.149 HD
BRANCH  30  35
ATOM     34  C   UNL     1       6.821   4.888  -5.396  0.00  0.00    +0.024 C 
ATOM     35  C   UNL     1       5.627   4.351  -4.605  0.00  0.00    +0.101 C 
ENDBRANCH  30  35
ENDBRANCH   1  31
TORSDOF 4
