REMARK  Name = ZINC15298733
REMARK  10 active torsions:
REMARK  status: ('A' for Active; 'I' for Inactive)
REMARK    1  A    between atoms: C_1  and  C_2
REMARK    2  A    between atoms: C_5  and  C_8
REMARK    3  A    between atoms: C_8  and  N_9
REMARK    4  A    between atoms: N_9  and  C_10
REMARK    5  A    between atoms: N_9  and  C_11
REMARK    6  A    between atoms: C_11  and  C_13
REMARK    7  A    between atoms: C_11  and  C_14
REMARK    8  A    between atoms: N_16  and  C_17
REMARK    9  A    between atoms: C_17  and  C_18
REMARK   10  A    between atoms: N_20  and  C_21
REMARK                            x       y       z     vdW  Elec       q    Type
REMARK                         _______ _______ _______ _____ _____    ______ ____
ROOT
ATOM      1  C   UNL     1       3.216  -6.494   0.068  0.00  0.00    +0.200 C 
ATOM      2  O   UNL     1       3.942  -5.536   0.230  0.00  0.00    -0.278 OA
ATOM      3  N   UNL     1       3.692  -7.741   0.258  0.00  0.00    -0.308 N 
ATOM      4  H   UNL     1       3.112  -8.507   0.129  0.00  0.00    +0.149 HD
ENDROOT
BRANCH   1   5
ATOM      5  C   UNL     1       1.781  -6.291  -0.345  0.00  0.00    +0.016 C 
ATOM      6  C   UNL     1       0.898  -6.206   0.902  0.00  0.00    -0.004 C 
BRANCH   5   7
ATOM      7  N   UNL     1       1.665  -5.045  -1.113  0.00  0.00    +0.388 N 
ATOM      8  C   UNL     1       2.450  -5.156  -2.350  0.00  0.00    -0.095 C 
ATOM      9  H   UNL     1       2.014  -4.276  -0.561  0.00  0.00    -0.081 HD
BRANCH   7  10
ATOM     10  C   UNL     1       0.254  -4.806  -1.449  0.00  0.00    -0.042 C 
BRANCH  10  15
ATOM     11  C   UNL     1      -0.267   0.324  -4.058  0.00  0.00    +0.044 C 
ATOM     12  C   UNL     1      -0.131  -1.014  -3.377  0.00  0.00    -0.050 A 
ATOM     13  C   UNL     1       0.097  -2.152  -4.129  0.00  0.00    +0.003 A 
ATOM     14  C   UNL     1       0.222  -3.379  -3.505  0.00  0.00    +0.002 A 
ATOM     15  C   UNL     1       0.119  -3.468  -2.129  0.00  0.00    -0.064 A 
ATOM     16  C   UNL     1      -0.107  -2.330  -1.377  0.00  0.00    +0.002 A 
ATOM     17  C   UNL     1      -0.228  -1.103  -2.001  0.00  0.00    +0.003 A 
ENDBRANCH  10  15
ENDBRANCH   7  10
ENDBRANCH   5   7
ENDBRANCH   1   5
BRANCH   3  18
ATOM     18  C   UNL     1       5.087  -7.938   0.660  0.00  0.00    +0.200 C 
BRANCH  18  19
ATOM     19  C   UNL     1       5.365  -9.412   0.804  0.00  0.00    +0.234 C 
ATOM     20  O   UNL     1       4.484 -10.219   0.592  0.00  0.00    -0.274 OA
ATOM     21  N   UNL     1       6.591  -9.835   1.169  0.00  0.00    -0.282 N 
ATOM     22  H   UNL     1       7.312  -9.195   1.278  0.00  0.00    +0.155 HD
BRANCH  21  23
ATOM     23  C   UNL     1       6.826 -11.199   1.391  0.00  0.00    +0.072 A 
ATOM     24  C   UNL     1       6.062 -12.151   0.730  0.00  0.00    +0.029 A 
ATOM     25  C   UNL     1       6.294 -13.496   0.950  0.00  0.00    +0.043 A 
ATOM     26  C   UNL     1       7.286 -13.895   1.828  0.00  0.00    +0.161 A 
ATOM     27  C   UNL     1       8.051 -12.947   2.490  0.00  0.00    +0.195 A 
ATOM     28  C   UNL     1       7.826 -11.599   2.268  0.00  0.00    +0.182 A 
ATOM     29  F   UNL     1       8.575 -10.674   2.909  0.00  0.00    -0.200 F 
ATOM     30  F   UNL     1       9.019 -13.339   3.348  0.00  0.00    -0.199 F 
ATOM     31  F   UNL     1       7.510 -15.211   2.040  0.00  0.00    -0.202 F 
ENDBRANCH  21  23
ENDBRANCH  18  19
ENDBRANCH   3  18
TORSDOF 7
