REMARK  Name = ZINC42666930
REMARK  12 active torsions:
REMARK  status: ('A' for Active; 'I' for Inactive)
REMARK    1  A    between atoms: C_1  and  C_2
REMARK    2  A    between atoms: C_2  and  C_4
REMARK    3  A    between atoms: C_2  and  N_15
REMARK    4  A    between atoms: N_6  and  C_7
REMARK    5  A    between atoms: C_11  and  S_13
REMARK    6  A    between atoms: S_13  and  C_14
REMARK    7  A    between atoms: N_15  and  C_16
REMARK    8  A    between atoms: C_20  and  N_22
REMARK    9  A    between atoms: C_23  and  C_25
REMARK   10  A    between atoms: C_25  and  C_26
REMARK   11  A    between atoms: C_25  and  C_27
REMARK   12  A    between atoms: C_25  and  C_28
REMARK                            x       y       z     vdW  Elec       q    Type
REMARK                         _______ _______ _______ _____ _____    ______ ____
ROOT
ATOM      1  N   UNL     1       0.377  -0.927   1.218  0.00  0.00    -0.333 N 
ATOM      2  H   UNL     1       1.317  -1.120   1.077  0.00  0.00    +0.147 HD
ENDROOT
BRANCH   1   3
ATOM      3  C   UNL     1      -0.163  -0.987   2.504  0.00  0.00    +0.029 A 
ATOM      4  C   UNL     1      -1.511  -0.716   2.706  0.00  0.00    +0.023 A 
ATOM      5  C   UNL     1      -2.046  -0.776   3.978  0.00  0.00    +0.004 A 
ATOM      6  C   UNL     1      -1.244  -1.104   5.054  0.00  0.00    +0.023 A 
ATOM      7  C   UNL     1       0.105  -1.376   4.859  0.00  0.00    +0.035 A 
ATOM      8  C   UNL     1       0.644  -1.323   3.582  0.00  0.00    +0.046 A 
BRANCH   7   9
ATOM      9  N   UNL     1       0.916  -1.708   5.949  0.00  0.00    -0.285 N 
ATOM     10  C   UNL     1       0.413  -2.433   6.968  0.00  0.00    +0.223 C 
ATOM     11  O   UNL     1      -0.764  -2.725   6.981  0.00  0.00    -0.275 OA
ATOM     12  H   UNL     1       1.842  -1.418   5.971  0.00  0.00    +0.155 HD
BRANCH  10  13
ATOM     13  C   UNL     1       1.313  -2.880   8.091  0.00  0.00    +0.039 C 
ATOM     14  C   UNL     1       0.498  -3.679   9.110  0.00  0.00    +0.020 C 
ATOM     15  C   UNL     1       2.432  -3.759   7.530  0.00  0.00    +0.020 C 
ATOM     16  C   UNL     1       1.922  -1.654   8.775  0.00  0.00    +0.020 C 
ENDBRANCH  10  13
ENDBRANCH   7   9
ENDBRANCH   1   3
BRANCH   1  18
ATOM     17  C   UNL     1      -0.556   0.951  -0.040  0.00  0.00    +0.038 C 
ATOM     18  C   UNL     1      -0.476  -0.572   0.081  0.00  0.00    +0.154 C 
BRANCH  18  19
ATOM     19  C   UNL     1       0.108  -1.146  -1.184  0.00  0.00    +0.237 C 
ATOM     20  O   UNL     1       1.136  -1.789  -1.140  0.00  0.00    -0.273 OA
ATOM     21  N   UNL     1      -0.511  -0.946  -2.364  0.00  0.00    -0.284 N 
ATOM     22  H   UNL     1      -1.367  -0.490  -2.391  0.00  0.00    +0.155 HD
BRANCH  21  23
ATOM     23  C   UNL     1       0.080  -1.395  -3.550  0.00  0.00    +0.034 A 
ATOM     24  C   UNL     1      -0.059  -0.657  -4.719  0.00  0.00    +0.023 A 
ATOM     25  C   UNL     1       0.524  -1.100  -5.891  0.00  0.00    +0.003 A 
ATOM     26  C   UNL     1       1.247  -2.277  -5.905  0.00  0.00    +0.015 A 
ATOM     27  C   UNL     1       1.390  -3.021  -4.739  0.00  0.00    +0.009 A 
ATOM     28  C   UNL     1       0.810  -2.575  -3.558  0.00  0.00    +0.038 A 
BRANCH  27  29
ATOM     29  S   UNL     1       2.311  -4.522  -4.757  0.00  0.00    -0.129 S 
ATOM     30  C   UNL     1       2.864  -4.677  -6.477  0.00  0.00    +0.090 C 
ENDBRANCH  27  29
ENDBRANCH  21  23
ENDBRANCH  18  19
ENDBRANCH   1  18
TORSDOF 7
