REMARK  Name = ZINC20721173
REMARK  4 active torsions:
REMARK  status: ('A' for Active; 'I' for Inactive)
REMARK    1  A    between atoms: C_8  and  C_10
REMARK    2  A    between atoms: N_13  and  C_16
REMARK    3  A    between atoms: C_16  and  C_18
REMARK    4  A    between atoms: C_16  and  C_29
REMARK                            x       y       z     vdW  Elec       q    Type
REMARK                         _______ _______ _______ _____ _____    ______ ____
ROOT
ATOM      1  C   UNL     1      -5.801   3.663   1.330  0.00  0.00    +0.072 C 
ATOM      2  C   UNL     1      -5.515   4.494   0.077  0.00  0.00    -0.006 C 
ATOM      3  C   UNL     1      -4.058   4.964   0.103  0.00  0.00    -0.076 C 
ATOM      4  N   UNL     1      -3.167   3.798   0.153  0.00  0.00    +0.392 N 
ATOM      5  C   UNL     1      -3.391   3.011   1.372  0.00  0.00    -0.076 C 
ATOM      6  C   UNL     1      -4.827   2.482   1.383  0.00  0.00    -0.006 C 
ATOM      7  H   UNL     1      -3.406   3.157  -0.709  0.00  0.00    -0.080 HD
ENDROOT
BRANCH   1  15
ATOM      8  C   UNL     1     -11.248   1.286   0.540  0.00  0.00    +0.002 A 
ATOM      9  C   UNL     1     -11.541   1.956   1.719  0.00  0.00    +0.004 A 
ATOM     10  C   UNL     1     -10.574   2.704   2.358  0.00  0.00    +0.048 A 
ATOM     11  C   UNL     1      -9.299   2.788   1.819  0.00  0.00    +0.155 A 
ATOM     12  C   UNL     1      -8.998   2.112   0.627  0.00  0.00    +0.110 A 
ATOM     13  C   UNL     1      -9.987   1.359  -0.008  0.00  0.00    +0.031 A 
ATOM     14  N   UNL     1      -7.694   2.381   0.348  0.00  0.00    -0.213 NA
ATOM     15  C   UNL     1      -7.216   3.147   1.281  0.00  0.00    +0.200 A 
ATOM     16  O   UNL     1      -8.164   3.419   2.192  0.00  0.00    -0.439 OA
ENDBRANCH   1  15
BRANCH   4  17
ATOM     17  C   UNL     1      -1.760   4.205   0.040  0.00  0.00    +0.080 C 
BRANCH  17  18
ATOM     18  C   UNL     1      -1.539   4.883  -1.288  0.00  0.00    -0.025 A 
ATOM     19  C   UNL     1      -2.243   4.685  -2.413  0.00  0.00    +0.086 A 
ATOM     20  N   UNL     1      -1.751   5.474  -3.417  0.00  0.00    -0.360 N 
ATOM     21  H   UNL     1      -2.205   5.437  -4.418  0.00  0.00    +0.165 HD
ATOM     22  C   UNL     1      -0.696   6.225  -2.947  0.00  0.00    +0.047 A 
ATOM     23  C   UNL     1      -0.517   5.888  -1.593  0.00  0.00    +0.003 A 
ATOM     24  C   UNL     1       0.493   6.501  -0.850  0.00  0.00    +0.025 A 
ATOM     25  C   UNL     1       1.310   7.434  -1.450  0.00  0.00    +0.019 A 
ATOM     26  C   UNL     1       1.133   7.766  -2.787  0.00  0.00    +0.017 A 
ATOM     27  C   UNL     1       0.140   7.170  -3.533  0.00  0.00    +0.027 A 
ATOM     28 BR   UNL     1       2.679   8.267  -0.447  0.00  0.00    -0.050 Br
ENDBRANCH  17  18
BRANCH  17  29
ATOM     29  C   UNL     1      -0.876   2.989   0.137  0.00  0.00    +0.347 C 
ATOM     30  O   UNL     1      -1.287   1.913  -0.226  0.00  0.00    -0.248 OA
ATOM     31  O   UNL     1       0.368   3.102   0.627  0.00  0.00    -0.248 OA
ENDBRANCH  17  29
ENDBRANCH   4  17
TORSDOF 4
