REMARK  Name = ZINC36207991
REMARK  15 active torsions:
REMARK  status: ('A' for Active; 'I' for Inactive)
REMARK    1  A    between atoms: C_1  and  C_2
REMARK    2  A    between atoms: C_5  and  C_32
REMARK    3  A    between atoms: C_6  and  C_8
REMARK    4  A    between atoms: C_17  and  C_19
REMARK    5  A    between atoms: C_19  and  N_20
REMARK    6  A    between atoms: N_20  and  C_21
REMARK    7  A    between atoms: N_20  and  C_28
REMARK    8  A    between atoms: C_21  and  C_22
REMARK    9  A    between atoms: C_22  and  C_24
REMARK   10  A    between atoms: C_22  and  O_27
REMARK   11  A    between atoms: C_24  and  O_25
REMARK   12  A    between atoms: O_25  and  C_26
REMARK   13  A    between atoms: C_28  and  C_29
REMARK   14  A    between atoms: C_29  and  C_30
REMARK   15  A    between atoms: C_29  and  C_31
REMARK                            x       y       z     vdW  Elec       q    Type
REMARK                         _______ _______ _______ _____ _____    ______ ____
ROOT
ATOM      1  C   UNL     1       0.780  -2.409   2.412  0.00  0.00    +0.004 A 
ATOM      2  C   UNL     1      -0.295  -1.996   3.125  0.00  0.00    +0.056 A 
ATOM      3  S   UNL     1      -0.193  -2.958   4.622  0.00  0.00    -0.076 S 
ATOM      4  C   UNL     1       1.276  -3.884   4.260  0.00  0.00    +0.116 A 
ATOM      5  C   UNL     1       1.651  -3.430   2.985  0.00  0.00    +0.080 A 
ATOM      6  C   UNL     1       2.829  -4.027   2.435  0.00  0.00    +0.260 A 
ATOM      7  O   UNL     1       3.236  -3.695   1.335  0.00  0.00    -0.267 OA
ATOM      8  N   UNL     1       3.482  -4.962   3.151  0.00  0.00    -0.312 N 
ATOM      9  H   UNL     1       4.281  -5.370   2.784  0.00  0.00    +0.170 HD
ATOM     10  C   UNL     1       3.043  -5.344   4.378  0.00  0.00    +0.094 A 
ATOM     11  N   UNL     1       1.976  -4.810   4.910  0.00  0.00    -0.229 NA
ENDROOT
BRANCH   1  17
ATOM     12  C   UNL     1       2.018   1.489  -0.450  0.00  0.00    +0.044 C 
ATOM     13  C   UNL     1       1.658   0.033  -0.307  0.00  0.00    -0.050 A 
ATOM     14  C   UNL     1       1.591  -0.776  -1.428  0.00  0.00    +0.003 A 
ATOM     15  C   UNL     1       1.262  -2.113  -1.304  0.00  0.00    +0.004 A 
ATOM     16  C   UNL     1       0.997  -2.649  -0.060  0.00  0.00    -0.043 A 
ATOM     17  C   UNL     1       1.064  -1.840   1.073  0.00  0.00    -0.013 A 
ATOM     18  C   UNL     1       1.402  -0.493   0.943  0.00  0.00    +0.012 A 
ATOM     19  C   UNL     1       0.637  -4.106   0.074  0.00  0.00    +0.044 C 
ENDBRANCH   1  17
BRANCH  10  20
ATOM     20  C   UNL     1       3.806  -6.394   5.143  0.00  0.00    -0.003 C 
BRANCH  20  21
ATOM     21  N   UNL     1       3.249  -6.515   6.497  0.00  0.00    +0.386 N 
ATOM     22  H   UNL     1       2.255  -6.678   6.438  0.00  0.00    -0.081 HD
BRANCH  21  23
ATOM     23  C   UNL     1       3.889  -7.640   7.191  0.00  0.00    -0.044 C 
BRANCH  23  24
ATOM     24  C   UNL     1       3.224  -7.844   8.554  0.00  0.00    +0.124 C 
BRANCH  24  25
ATOM     25  O   UNL     1       1.864  -8.240   8.366  0.00  0.00    -0.391 OA
ATOM     26  H   UNL     1       1.759  -9.064   7.871  0.00  0.00    +0.210 HD
ENDBRANCH  24  25
BRANCH  24  27
ATOM     27  C   UNL     1       3.970  -8.932   9.328  0.00  0.00    +0.188 C 
BRANCH  27  28
ATOM     28  O   UNL     1       3.422  -9.041  10.644  0.00  0.00    -0.381 OA
ATOM     29  C   UNL     1       4.051 -10.036  11.454  0.00  0.00    +0.194 C 
ENDBRANCH  27  28
ENDBRANCH  24  27
ENDBRANCH  23  24
ENDBRANCH  21  23
BRANCH  21  30
ATOM     30  C   UNL     1       3.499  -5.274   7.242  0.00  0.00    -0.075 C 
BRANCH  30  31
ATOM     31  C   UNL     1       4.920  -4.784   6.955  0.00  0.00    -0.034 C 
ATOM     32  C   UNL     1       5.116  -3.399   7.574  0.00  0.00    +0.005 C 
ATOM     33  C   UNL     1       5.928  -5.761   7.563  0.00  0.00    +0.005 C 
ENDBRANCH  30  31
ENDBRANCH  21  30
ENDBRANCH  20  21
ENDBRANCH  10  20
TORSDOF 10
