REMARK  Name = ZINC38612372
REMARK  8 active torsions:
REMARK  status: ('A' for Active; 'I' for Inactive)
REMARK    1  A    between atoms: C_1  and  C_2
REMARK    2  A    between atoms: C_2  and  O_3
REMARK    3  A    between atoms: O_3  and  C_4
REMARK    4  A    between atoms: C_4  and  C_6
REMARK    5  A    between atoms: C_8  and  N_16
REMARK    6  A    between atoms: N_16  and  C_17
REMARK    7  A    between atoms: C_17  and  N_19
REMARK    8  A    between atoms: N_19  and  C_20
REMARK                            x       y       z     vdW  Elec       q    Type
REMARK                         _______ _______ _______ _____ _____    ______ ____
ROOT
ATOM      1  C   UNL     1       0.967  -2.400  -2.472  0.00  0.00    +0.234 C 
ATOM      2  C   UNL     1       0.267  -2.348  -3.812  0.00  0.00    +0.052 C 
ATOM      3  C   UNL     1       0.317  -3.639  -4.313  0.00  0.00    +0.018 A 
ATOM      4  C   UNL     1      -0.162  -4.217  -5.512  0.00  0.00    +0.011 A 
ATOM      5  C   UNL     1       0.033  -5.538  -5.746  0.00  0.00    +0.001 A 
ATOM      6  C   UNL     1       0.699  -6.354  -4.828  0.00  0.00    +0.002 A 
ATOM      7  C   UNL     1       1.183  -5.869  -3.659  0.00  0.00    +0.026 A 
ATOM      8  C   UNL     1       1.020  -4.496  -3.343  0.00  0.00    +0.045 A 
ATOM      9  N   UNL     1       1.393  -3.792  -2.291  0.00  0.00    -0.367 N 
ATOM     10  H   UNL     1       1.871  -4.138  -1.522  0.00  0.00    +0.161 HD
ENDROOT
BRANCH   1  11
ATOM     11  C   UNL     1       0.016  -2.001  -1.373  0.00  0.00    +0.336 C 
ATOM     12  O   UNL     1      -0.635  -2.844  -0.802  0.00  0.00    -0.248 OA
BRANCH  11  13
ATOM     13  O   UNL     1      -0.107  -0.710  -1.029  0.00  0.00    -0.463 OA
BRANCH  13  15
ATOM     14  C   UNL     1      -1.050   1.102   0.264  0.00  0.00    +0.048 C 
ATOM     15  C   UNL     1      -0.940  -0.415   0.094  0.00  0.00    +0.229 C 
ENDBRANCH  13  15
ENDBRANCH  11  13
ENDBRANCH   1  11
BRANCH   2  16
ATOM     16  N   UNL     1      -0.296  -1.260  -4.402  0.00  0.00    -0.298 N 
ATOM     17  H   UNL     1      -0.933  -1.375  -5.124  0.00  0.00    +0.154 HD
BRANCH  16  18
ATOM     18  C   UNL     1       0.030  -0.021  -3.983  0.00  0.00    +0.135 C 
ATOM     19  S   UNL     1       1.270   0.190  -2.821  0.00  0.00    -0.019 S 
BRANCH  18  20
ATOM     20  N   UNL     1      -0.619   1.051  -4.478  0.00  0.00    -0.323 N 
ATOM     21  H   UNL     1      -1.368   0.928  -5.082  0.00  0.00    +0.148 HD
BRANCH  20  22
ATOM     22  C   UNL     1      -0.193   2.402  -4.105  0.00  0.00    +0.072 C 
ATOM     23  C   UNL     1      -0.748   2.748  -2.722  0.00  0.00    +0.022 C 
ATOM     24  C   UNL     1      -0.303   4.159  -2.332  0.00  0.00    +0.002 C 
ATOM     25  C   UNL     1      -0.831   5.163  -3.359  0.00  0.00    +0.000 C 
ATOM     26  C   UNL     1      -0.276   4.816  -4.742  0.00  0.00    +0.002 C 
ATOM     27  C   UNL     1      -0.721   3.405  -5.132  0.00  0.00    +0.022 C 
ENDBRANCH  20  22
ENDBRANCH  18  20
ENDBRANCH  16  18
ENDBRANCH   2  16
TORSDOF 7
