REMARK  Name = ZINC39491290
REMARK  12 active torsions:
REMARK  status: ('A' for Active; 'I' for Inactive)
REMARK    1  A    between atoms: C_1  and  C_2
REMARK    2  A    between atoms: C_2  and  C_4
REMARK    3  A    between atoms: C_2  and  C_27
REMARK    4  A    between atoms: C_4  and  N_5
REMARK    5  A    between atoms: C_7  and  C_18
REMARK    6  A    between atoms: C_12  and  C_14
REMARK    7  A    between atoms: C_14  and  O_16
REMARK    8  A    between atoms: O_16  and  C_17
REMARK    9  A    between atoms: C_18  and  N_19
REMARK   10  A    between atoms: N_19  and  C_20
REMARK   11  A    between atoms: C_25  and  O_26
REMARK   12  A    between atoms: C_32  and  O_33
REMARK                            x       y       z     vdW  Elec       q    Type
REMARK                         _______ _______ _______ _____ _____    ______ ____
ROOT
ATOM      1  N   UNL     1      -2.082  -0.162   1.273  0.00  0.00    -0.346 N 
ATOM      2  C   UNL     1      -2.151  -0.957   2.385  0.00  0.00    +0.092 A 
ATOM      3  C   UNL     1      -2.811  -0.319   3.364  0.00  0.00    -0.005 A 
ATOM      4  C   UNL     1      -3.195   0.993   2.835  0.00  0.00    +0.005 A 
ATOM      5  C   UNL     1      -2.704   1.039   1.515  0.00  0.00    +0.049 A 
ATOM      6  C   UNL     1      -2.911   2.180   0.742  0.00  0.00    +0.027 A 
ATOM      7  C   UNL     1      -3.581   3.248   1.260  0.00  0.00    +0.017 A 
ATOM      8  C   UNL     1      -4.072   3.216   2.573  0.00  0.00    +0.060 A 
ATOM      9  C   UNL     1      -3.884   2.083   3.360  0.00  0.00    +0.025 A 
ENDROOT
BRANCH   8  10
ATOM     10  C   UNL     1      -4.794   4.381   3.118  0.00  0.00    +0.339 C 
ATOM     11  O   UNL     1      -5.219   4.353   4.256  0.00  0.00    -0.245 OA
BRANCH  10  12
ATOM     12  O   UNL     1      -4.983   5.475   2.355  0.00  0.00    -0.464 OA
ATOM     13  C   UNL     1      -5.691   6.565   2.947  0.00  0.00    +0.280 C 
ENDBRANCH  10  12
ENDBRANCH   8  10
BRANCH   1  14
ATOM     14  C   UNL     1      -1.433  -0.534   0.013  0.00  0.00    +0.129 C 
BRANCH  14  16
ATOM     15  C   UNL     1      -0.019   1.526   0.010  0.00  0.00    +0.014 C 
ATOM     16  C   UNL     1       0.002  -0.004   0.002  0.00  0.00    +0.039 C 
BRANCH  16  17
ATOM     17  C   UNL     1       0.707  -0.490  -1.238  0.00  0.00    -0.001 A 
ATOM     18  C   UNL     1       0.223  -0.152  -2.487  0.00  0.00    +0.007 A 
ATOM     19  C   UNL     1       0.869  -0.598  -3.624  0.00  0.00    +0.001 A 
ATOM     20  C   UNL     1       2.002  -1.383  -3.516  0.00  0.00    +0.004 A 
ATOM     21  C   UNL     1       2.491  -1.724  -2.270  0.00  0.00    +0.046 A 
ATOM     22  C   UNL     1       1.847  -1.273  -1.126  0.00  0.00    +0.120 A 
BRANCH  22  23
ATOM     23  O   UNL     1       2.329  -1.602   0.101  0.00  0.00    -0.506 OA
ATOM     24  H   UNL     1       1.969  -2.425   0.457  0.00  0.00    +0.292 HD
ENDBRANCH  22  23
ENDBRANCH  16  17
ENDBRANCH  14  16
ENDBRANCH   1  14
BRANCH   3  25
ATOM     25  C   UNL     1      -3.102  -0.850   4.744  0.00  0.00    +0.139 C 
BRANCH  25  26
ATOM     26  N   UNL     1      -4.480  -1.342   4.797  0.00  0.00    -0.337 N 
ATOM     27  H   UNL     1      -5.045  -1.291   4.010  0.00  0.00    +0.147 HD
BRANCH  26  28
ATOM     28  C   UNL     1      -4.984  -1.887   5.984  0.00  0.00    +0.069 A 
ATOM     29  C   UNL     1      -4.181  -1.956   7.113  0.00  0.00    +0.026 A 
ATOM     30  C   UNL     1      -4.680  -2.494   8.284  0.00  0.00    +0.002 A 
ATOM     31  C   UNL     1      -5.980  -2.963   8.334  0.00  0.00    +0.004 A 
ATOM     32  C   UNL     1      -6.786  -2.897   7.213  0.00  0.00    +0.047 A 
ATOM     33  C   UNL     1      -6.295  -2.355   6.037  0.00  0.00    +0.138 A 
BRANCH  33  34
ATOM     34  O   UNL     1      -7.089  -2.285   4.935  0.00  0.00    -0.505 OA
ATOM     35  H   UNL     1      -7.042  -3.066   4.366  0.00  0.00    +0.292 HD
ENDBRANCH  33  34
ENDBRANCH  26  28
ENDBRANCH  25  26
ENDBRANCH   3  25
TORSDOF 10
