REMARK  Name = ZINC04759429
REMARK  6 active torsions:
REMARK  status: ('A' for Active; 'I' for Inactive)
REMARK    1  A    between atoms: C_1  and  C_2
REMARK    2  A    between atoms: C_2  and  N_3
REMARK    3  A    between atoms: C_5  and  C_12
REMARK    4  A    between atoms: C_12  and  C_22
REMARK    5  A    between atoms: N_24  and  C_31
REMARK    6  A    between atoms: C_31  and  C_32
REMARK                            x       y       z     vdW  Elec       q    Type
REMARK                         _______ _______ _______ _____ _____    ______ ____
ROOT
ATOM      1  C   UNL     1      -1.442  -0.449   0.014  0.00  0.00    +0.127 C 
ATOM      2  C   UNL     1      -0.064   0.137  -0.188  0.00  0.00    -0.002 A 
ATOM      3  C   UNL     1       1.183  -0.431  -0.331  0.00  0.00    +0.007 A 
ATOM      4  C   UNL     1       2.293   0.377  -0.506  0.00  0.00    +0.000 A 
ATOM      5  C   UNL     1       2.145   1.752  -0.537  0.00  0.00    +0.002 A 
ATOM      6  C   UNL     1       0.897   2.323  -0.394  0.00  0.00    +0.023 A 
ATOM      7  C   UNL     1      -0.225   1.516  -0.218  0.00  0.00    +0.038 A 
ATOM      8  N   UNL     1      -1.570   1.848  -0.049  0.00  0.00    -0.284 N 
ATOM      9  C   UNL     1      -2.349   0.761   0.088  0.00  0.00    +0.237 C 
ATOM     10  O   UNL     1      -3.551   0.752   0.246  0.00  0.00    -0.274 OA
ATOM     11  H   UNL     1      -1.905   2.758  -0.037  0.00  0.00    +0.155 HD
ENDROOT
BRANCH   1  14
ATOM     12  N   UNL     1      -1.730  -2.444  -3.067  0.00  0.00    -0.347 N 
ATOM     13  C   UNL     1      -1.048  -1.627  -2.208  0.00  0.00    +0.092 A 
ATOM     14  C   UNL     1      -1.822  -1.322  -1.154  0.00  0.00    +0.002 A 
ATOM     15  C   UNL     1      -3.103  -2.004  -1.353  0.00  0.00    +0.005 A 
ATOM     16  C   UNL     1      -2.993  -2.691  -2.575  0.00  0.00    +0.049 A 
ATOM     17  C   UNL     1      -4.071  -3.439  -3.037  0.00  0.00    +0.026 A 
ATOM     18  C   UNL     1      -5.232  -3.493  -2.297  0.00  0.00    +0.002 A 
ATOM     19  C   UNL     1      -5.338  -2.809  -1.095  0.00  0.00    +0.001 A 
ATOM     20  C   UNL     1      -4.291  -2.069  -0.622  0.00  0.00    +0.010 A 
BRANCH  12  22
ATOM     21  C   UNL     1      -1.620  -2.070  -5.482  0.00  0.00    +0.027 C 
ATOM     22  C   UNL     1      -1.198  -2.977  -4.324  0.00  0.00    +0.118 C 
ENDBRANCH  12  22
ENDBRANCH   1  14
BRANCH   1  23
ATOM     23  C   UNL     1      -1.499  -1.235   1.299  0.00  0.00    +0.002 A 
ATOM     24  C   UNL     1      -1.691  -2.558   1.418  0.00  0.00    +0.092 A 
ATOM     25  N   UNL     1      -1.682  -2.914   2.739  0.00  0.00    -0.347 N 
ATOM     26  C   UNL     1      -1.477  -1.800   3.522  0.00  0.00    +0.049 A 
ATOM     27  C   UNL     1      -1.348  -0.700   2.654  0.00  0.00    +0.005 A 
ATOM     28  C   UNL     1      -1.137   0.578   3.176  0.00  0.00    +0.010 A 
ATOM     29  C   UNL     1      -1.046   0.752   4.528  0.00  0.00    +0.001 A 
ATOM     30  C   UNL     1      -1.167  -0.331   5.388  0.00  0.00    +0.002 A 
ATOM     31  C   UNL     1      -1.381  -1.599   4.895  0.00  0.00    +0.026 A 
BRANCH  25  32
ATOM     32  C   UNL     1      -1.862  -4.277   3.245  0.00  0.00    +0.118 C 
ATOM     33  C   UNL     1      -3.332  -4.496   3.607  0.00  0.00    +0.027 C 
ENDBRANCH  25  32
ENDBRANCH   1  23
TORSDOF 4
