REMARK  Name = ZINC63433666
REMARK  5 active torsions:
REMARK  status: ('A' for Active; 'I' for Inactive)
REMARK    1  A    between atoms: C_6  and  C_10
REMARK    2  A    between atoms: C_10  and  S_11
REMARK    3  A    between atoms: S_11  and  C_12
REMARK    4  A    between atoms: C_17  and  C_30
REMARK    5  A    between atoms: N_23  and  C_24
REMARK                            x       y       z     vdW  Elec       q    Type
REMARK                         _______ _______ _______ _____ _____    ______ ____
ROOT
ATOM      1  C   UNL     1       3.822  -3.175  -4.678  0.00  0.00    +0.222 C 
ATOM      2  N   UNL     1       5.275  -3.318  -4.536  0.00  0.00    -0.317 N 
ATOM      3  C   UNL     1       5.780  -3.930  -3.394  0.00  0.00    +0.042 A 
ATOM      4  C   UNL     1       7.029  -3.609  -2.890  0.00  0.00    +0.036 A 
ATOM      5  C   UNL     1       7.497  -4.257  -1.749  0.00  0.00    +0.039 A 
ATOM      6  C   UNL     1       6.712  -5.224  -1.117  0.00  0.00    +0.014 A 
ATOM      7  C   UNL     1       5.467  -5.543  -1.613  0.00  0.00    +0.015 A 
ATOM      8  C   UNL     1       4.989  -4.897  -2.751  0.00  0.00    +0.058 A 
ATOM      9  C   UNL     1       3.651  -5.192  -3.300  0.00  0.00    +0.251 C 
ATOM     10  O   UNL     1       3.007  -6.132  -2.875  0.00  0.00    -0.270 OA
ATOM     11  N   UNL     1       3.151  -4.410  -4.273  0.00  0.00    -0.267 N 
ATOM     12  H   UNL     1       5.873  -2.992  -5.227  0.00  0.00    +0.149 HD
ENDROOT
BRANCH   5  13
ATOM     13  C   UNL     1       8.832  -3.918  -1.203  0.00  0.00    +0.247 C 
ATOM     14  O   UNL     1       9.195  -2.760  -1.162  0.00  0.00    -0.270 OA
ATOM     15  N   UNL     1       9.643  -4.896  -0.753  0.00  0.00    -0.298 N 
ATOM     16  C   UNL     1       9.277  -6.309  -0.919  0.00  0.00    +0.108 C 
ATOM     17  C   UNL     1      10.429  -7.040  -1.614  0.00  0.00    +0.019 C 
ATOM     18  C   UNL     1      11.721  -6.814  -0.825  0.00  0.00    +0.003 C 
ATOM     19  C   UNL     1      12.046  -5.319  -0.793  0.00  0.00    +0.019 C 
ATOM     20  C   UNL     1      10.915  -4.569  -0.093  0.00  0.00    +0.108 C 
ENDBRANCH   5  13
BRANCH  11  21
ATOM     21  C   UNL     1       1.909  -4.806  -4.940  0.00  0.00    +0.079 C 
ATOM     22  C   UNL     1       0.783  -4.898  -3.907  0.00  0.00    +0.022 C 
ATOM     23  C   UNL     1      -0.515  -5.312  -4.604  0.00  0.00    +0.002 C 
ATOM     24  C   UNL     1      -0.323  -6.675  -5.272  0.00  0.00    +0.000 C 
ATOM     25  C   UNL     1       0.802  -6.583  -6.304  0.00  0.00    +0.002 C 
ATOM     26  C   UNL     1       2.100  -6.170  -5.608  0.00  0.00    +0.022 C 
ENDBRANCH  11  21
BRANCH   1  27
ATOM     27  S   UNL     1       3.248  -1.809  -3.630  0.00  0.00    -0.115 S 
BRANCH  27  28
ATOM     28  C   UNL     1       3.718  -2.316  -1.953  0.00  0.00    +0.119 C 
BRANCH  28  34
ATOM     29  C   UNL     1       0.620   2.357  -1.998  0.00  0.00    +0.002 A 
ATOM     30  C   UNL     1       1.875   2.977  -2.124  0.00  0.00    +0.002 A 
ATOM     31  C   UNL     1       3.034   2.321  -1.913  0.00  0.00    +0.027 A 
ATOM     32  C   UNL     1       3.005   0.901  -1.535  0.00  0.00    +0.060 A 
ATOM     33  N   UNL     1       3.942   0.036  -1.275  0.00  0.00    -0.363 N 
ATOM     34  C   UNL     1       3.287  -1.239  -0.955  0.00  0.00    +0.184 C 
ATOM     35  N   UNL     1       1.842  -1.001  -1.063  0.00  0.00    -0.363 N 
ATOM     36  C   UNL     1       1.676   0.245  -1.401  0.00  0.00    +0.060 A 
ATOM     37  C   UNL     1       0.480   1.060  -1.657  0.00  0.00    +0.027 A 
ATOM     38  H   UNL     1       4.897   0.202  -1.290  0.00  0.00    +0.162 HD
ATOM     39  H   UNL     1       1.140  -1.653  -0.912  0.00  0.00    +0.162 HD
ENDBRANCH  28  34
ENDBRANCH  27  28
ENDBRANCH   1  27
TORSDOF 5
