REMARK  Name = ZINC17085928
REMARK  11 active torsions:
REMARK  status: ('A' for Active; 'I' for Inactive)
REMARK    1  A    between atoms: C_1  and  C_2
REMARK    2  A    between atoms: C_2  and  O_3
REMARK    3  A    between atoms: O_3  and  C_4
REMARK    4  A    between atoms: C_6  and  C_19
REMARK    5  A    between atoms: C_9  and  O_10
REMARK    6  A    between atoms: O_10  and  C_11
REMARK    7  A    between atoms: C_11  and  C_13
REMARK    8  A    between atoms: C_28  and  C_32
REMARK    9  A    between atoms: C_32  and  C_33
REMARK   10  A    between atoms: C_32  and  C_34
REMARK   11  A    between atoms: C_32  and  C_35
REMARK                            x       y       z     vdW  Elec       q    Type
REMARK                         _______ _______ _______ _____ _____    ______ ____
ROOT
ATOM      1  C   UNL     1      -2.832   3.636   5.188  0.00  0.00    +0.190 C 
ATOM      2  N   UNL     1      -1.796   2.607   4.986  0.00  0.00    -0.316 N 
ATOM      3  C   UNL     1      -1.497   2.281   3.688  0.00  0.00    +0.080 A 
ATOM      4  C   UNL     1      -2.391   2.482   2.626  0.00  0.00    +0.068 A 
ATOM      5  C   UNL     1      -1.918   2.071   1.313  0.00  0.00    -0.023 A 
ATOM      6  C   UNL     1      -0.671   1.550   1.278  0.00  0.00    -0.004 A 
ATOM      7  S   UNL     1      -0.111   1.589   2.959  0.00  0.00    -0.078 S 
ATOM      8  C   UNL     1       0.066   1.051   0.074  0.00  0.00    +0.046 C 
ATOM      9  C   UNL     1      -0.657   1.559  -1.183  0.00  0.00    -0.000 C 
ATOM     10  C   UNL     1      -2.156   1.287  -1.031  0.00  0.00    +0.009 C 
ATOM     11  C   UNL     1      -2.746   2.205   0.040  0.00  0.00    +0.037 C 
ATOM     12  C   UNL     1      -3.711   3.073   2.944  0.00  0.00    +0.248 C 
ATOM     13  O   UNL     1      -4.584   3.165   2.101  0.00  0.00    -0.270 OA
ATOM     14  N   UNL     1      -3.905   3.507   4.207  0.00  0.00    -0.289 N 
ATOM     15  H   UNL     1      -1.306   2.142   5.854  0.00  0.00    +0.149 HD
ATOM     16  H   UNL     1      -4.937   3.769   4.484  0.00  0.00    +0.151 HD
ENDROOT
BRANCH   1  19
ATOM     17  C   UNL     1      -2.381   7.317   4.467  0.00  0.00    +0.163 A 
ATOM     18  C   UNL     1      -2.954   6.061   4.584  0.00  0.00    +0.056 A 
ATOM     19  C   UNL     1      -2.204   5.000   5.055  0.00  0.00    -0.006 A 
ATOM     20  C   UNL     1      -0.878   5.186   5.401  0.00  0.00    +0.011 A 
ATOM     21  C   UNL     1      -0.298   6.435   5.281  0.00  0.00    +0.050 A 
ATOM     22  C   UNL     1      -1.046   7.504   4.814  0.00  0.00    +0.173 A 
BRANCH  17  23
ATOM     23  O   UNL     1      -3.118   8.364   4.009  0.00  0.00    -0.489 OA
BRANCH  23  25
ATOM     24  C   UNL     1      -5.145   9.385   3.179  0.00  0.00    +0.048 C 
ATOM     25  C   UNL     1      -4.481   8.098   3.672  0.00  0.00    +0.226 C 
ENDBRANCH  23  25
ENDBRANCH  17  23
BRANCH  22  26
ATOM     26  O   UNL     1      -0.477   8.733   4.696  0.00  0.00    -0.419 OA
BRANCH  26  27
ATOM     27  C   UNL     1      -0.706   9.612   5.691  0.00  0.00    +0.345 C 
ATOM     28  O   UNL     1      -1.311   9.260   6.684  0.00  0.00    -0.245 OA
BRANCH  27  29
ATOM     29  C   UNL     1      -0.221  11.002   5.575  0.00  0.00    +0.059 A 
ATOM     30  C   UNL     1       0.480  11.408   4.438  0.00  0.00    +0.015 A 
ATOM     31  C   UNL     1       0.925  12.710   4.334  0.00  0.00    +0.001 A 
ATOM     32  C   UNL     1       0.687  13.609   5.358  0.00  0.00    +0.000 A 
ATOM     33  C   UNL     1      -0.001  13.212   6.491  0.00  0.00    +0.001 A 
ATOM     34  C   UNL     1      -0.457  11.915   6.605  0.00  0.00    +0.015 A 
ENDBRANCH  27  29
ENDBRANCH  26  27
ENDBRANCH  22  26
ENDBRANCH   1  19
BRANCH   9  35
ATOM     35  C   UNL     1      -0.123   0.823  -2.414  0.00  0.00    -0.035 C 
ATOM     36  C   UNL     1      -0.370  -0.679  -2.257  0.00  0.00    +0.011 C 
ATOM     37  C   UNL     1      -0.845   1.331  -3.663  0.00  0.00    +0.011 C 
ATOM     38  C   UNL     1       1.378   1.081  -2.551  0.00  0.00    +0.011 C 
ENDBRANCH   9  35
TORSDOF 7
