REMARK  Name = ZINC14183139
REMARK  14 active torsions:
REMARK  status: ('A' for Active; 'I' for Inactive)
REMARK    1  A    between atoms: C_1  and  C_2
REMARK    2  A    between atoms: C_2  and  O_3
REMARK    3  A    between atoms: O_3  and  C_4
REMARK    4  A    between atoms: C_4  and  C_6
REMARK    5  A    between atoms: C_7  and  C_30
REMARK    6  A    between atoms: C_8  and  C_26
REMARK    7  A    between atoms: C_10  and  N_11
REMARK    8  A    between atoms: C_12  and  C_14
REMARK    9  A    between atoms: C_14  and  N_59
REMARK   10  A    between atoms: C_18  and  C_21
REMARK   11  A    between atoms: C_21  and  O_23
REMARK   12  A    between atoms: O_23  and  C_24
REMARK   13  A    between atoms: C_24  and  C_25
REMARK   14  A    between atoms: N_28  and  C_29
REMARK                            x       y       z     vdW  Elec       q    Type
REMARK                         _______ _______ _______ _____ _____    ______ ____
ROOT
ATOM      1  N   UNL     1      -0.382   0.941  -9.687  0.00  0.00    -0.281 N 
ATOM      2  C   UNL     1      -0.862   1.330  -8.490  0.00  0.00    +0.201 C 
ATOM      3  O   UNL     1      -1.987   1.775  -8.403  0.00  0.00    -0.278 OA
ATOM      4  H   UNL     1       0.518   0.585  -9.757  0.00  0.00    +0.155 HD
ENDROOT
BRANCH   1   9
ATOM      5  C   UNL     1      -0.856   0.708 -12.136  0.00  0.00    +0.091 A 
ATOM      6  C   UNL     1      -1.829   0.908 -13.103  0.00  0.00    -0.015 A 
ATOM      7  C   UNL     1      -3.026   1.435 -12.702  0.00  0.00    +0.079 A 
ATOM      8  S   UNL     1      -2.792   1.647 -10.947  0.00  0.00    -0.068 S 
ATOM      9  C   UNL     1      -1.171   1.049 -10.816  0.00  0.00    +0.087 A 
ATOM     10  C   UNL     1      -1.574   0.563 -14.548  0.00  0.00    +0.046 C 
BRANCH   7  11
ATOM     11  C   UNL     1      -4.205   1.747 -13.511  0.00  0.00    +0.251 C 
ATOM     12  O   UNL     1      -4.194   1.536 -14.710  0.00  0.00    -0.270 OA
ATOM     13  N   UNL     1      -5.304   2.267 -12.929  0.00  0.00    -0.314 N 
ATOM     14  C   UNL     1      -6.484   2.579 -13.739  0.00  0.00    +0.128 C 
ATOM     15  H   UNL     1      -5.314   2.435 -11.974  0.00  0.00    +0.149 HD
ENDBRANCH   7  11
BRANCH   5  16
ATOM     16  C   UNL     1       0.458   0.154 -12.483  0.00  0.00    +0.342 C 
ATOM     17  O   UNL     1       0.635  -1.049 -12.464  0.00  0.00    -0.245 OA
BRANCH  16  18
ATOM     18  O   UNL     1       1.468   0.979 -12.824  0.00  0.00    -0.461 OA
BRANCH  18  20
ATOM     19  C   UNL     1       3.756   1.448 -13.514  0.00  0.00    +0.048 C 
ATOM     20  C   UNL     1       2.740   0.361 -13.156  0.00  0.00    +0.229 C 
ENDBRANCH  18  20
ENDBRANCH  16  18
ENDBRANCH   5  16
ENDBRANCH   1   9
BRANCH   2  21
ATOM     21  C   UNL     1      -0.002   1.212  -7.258  0.00  0.00    +0.019 C 
BRANCH  21  27
ATOM     22  C   UNL     1      -0.005   1.523  -4.857  0.00  0.00    -0.078 C 
ATOM     23  C   UNL     1      -0.826   2.061  -3.683  0.00  0.00    -0.018 C 
ATOM     24  C   UNL     1      -0.993   3.575  -3.836  0.00  0.00    +0.011 C 
ATOM     25  C   UNL     1      -1.665   3.874  -5.178  0.00  0.00    +0.081 C 
ATOM     26  C   UNL     1      -0.819   3.284  -6.309  0.00  0.00    -0.064 C 
ATOM     27  N   UNL     1      -0.717   1.821  -6.118  0.00  0.00    +0.386 N 
ATOM     28  H   UNL     1      -1.663   1.425  -6.068  0.00  0.00    -0.081 HD
BRANCH  25  29
ATOM     29  C   UNL     1      -1.780   5.366  -5.362  0.00  0.00    +0.308 C 
ATOM     30  O   UNL     1      -1.240   5.902  -6.301  0.00  0.00    -0.251 OA
BRANCH  29  31
ATOM     31  O   UNL     1      -2.481   6.098  -4.483  0.00  0.00    -0.465 OA
BRANCH  31  32
ATOM     32  C   UNL     1      -2.549   7.529  -4.723  0.00  0.00    +0.229 C 
ATOM     33  C   UNL     1      -3.384   8.191  -3.625  0.00  0.00    +0.048 C 
ENDBRANCH  31  32
ENDBRANCH  29  31
ENDBRANCH  25  29
ENDBRANCH  21  27
ENDBRANCH   2  21
TORSDOF 10
