REMARK  Name = ZINC14741480
REMARK  12 active torsions:
REMARK  status: ('A' for Active; 'I' for Inactive)
REMARK    1  A    between atoms: C_1  and  C_2
REMARK    2  A    between atoms: C_2  and  C_3
REMARK    3  A    between atoms: C_2  and  C_4
REMARK    4  A    between atoms: C_4  and  N_5
REMARK    5  A    between atoms: C_7  and  O_29
REMARK    6  A    between atoms: C_14  and  C_16
REMARK    7  A    between atoms: C_16  and  C_17
REMARK    8  A    between atoms: C_20  and  N_23
REMARK    9  A    between atoms: O_29  and  C_30
REMARK   10  A    between atoms: C_30  and  C_31
REMARK   11  A    between atoms: C_35  and  O_37
REMARK   12  A    between atoms: O_37  and  C_38
REMARK                            x       y       z     vdW  Elec       q    Type
REMARK                         _______ _______ _______ _____ _____    ______ ____
ROOT
ATOM      1  N   UNL     1      -2.140  -0.394   1.365  0.00  0.00    -0.297 N 
ATOM      2  C   UNL     1      -2.167  -1.010   2.696  0.00  0.00    +0.141 C 
ATOM      3  C   UNL     1      -3.537  -1.653   2.922  0.00  0.00    +0.153 C 
ATOM      4  C   UNL     1      -3.534  -3.090   2.412  0.00  0.00    +0.141 C 
ATOM      5  N   UNL     1      -3.296  -3.146   0.972  0.00  0.00    -0.290 N 
ATOM      6  C   UNL     1      -2.030  -2.665   0.409  0.00  0.00    +0.203 C 
ATOM      7  C   UNL     1      -2.111  -1.160   0.263  0.00  0.00    +0.233 C 
ATOM      8  O   UNL     1      -2.146  -0.652  -0.837  0.00  0.00    -0.274 OA
ATOM      9  C   UNL     1      -4.245  -3.645   0.155  0.00  0.00    +0.220 C 
ATOM     10  O   UNL     1      -5.293  -4.044   0.617  0.00  0.00    -0.275 OA
ENDROOT
BRANCH   1  11
ATOM     11  C   UNL     1      -2.150   1.066   1.238  0.00  0.00    +0.111 C 
BRANCH  11  13
ATOM     12  C   UNL     1       0.008   1.076  -0.021  0.00  0.00    +0.009 C 
ATOM     13  C   UNL     1      -0.711   1.587   1.229  0.00  0.00    +0.000 C 
ATOM     14  C   UNL     1      -0.723   3.117   1.221  0.00  0.00    +0.009 C 
ENDBRANCH  11  13
ENDBRANCH   1  11
BRANCH   9  15
ATOM     15  C   UNL     1      -4.005  -3.705  -1.331  0.00  0.00    +0.131 C 
BRANCH  15  16
ATOM     16  C   UNL     1      -5.211  -4.299  -2.011  0.00  0.00    -0.039 A 
ATOM     17  C   UNL     1      -5.290  -5.666  -2.207  0.00  0.00    +0.006 A 
ATOM     18  C   UNL     1      -6.397  -6.213  -2.825  0.00  0.00    +0.024 A 
ATOM     19  C   UNL     1      -7.426  -5.389  -3.261  0.00  0.00    +0.038 A 
ATOM     20  C   UNL     1      -7.342  -4.017  -3.068  0.00  0.00    +0.024 A 
ATOM     21  C   UNL     1      -6.235  -3.476  -2.444  0.00  0.00    +0.006 A 
BRANCH  19  22
ATOM     22  N   UNL     1      -8.547  -5.941  -3.892  0.00  0.00    -0.254 N 
ATOM     23  C   UNL     1      -8.704  -7.354  -4.268  0.00  0.00    +0.134 C 
ATOM     24  C   UNL     1     -10.101  -7.410  -4.916  0.00  0.00    +0.125 C 
ATOM     25  N   UNL     1     -10.579  -6.022  -4.844  0.00  0.00    -0.297 N 
ATOM     26  C   UNL     1      -9.645  -5.264  -4.255  0.00  0.00    +0.307 C 
ATOM     27  O   UNL     1      -9.781  -4.071  -4.066  0.00  0.00    -0.252 OA
ATOM     28  H   UNL     1     -11.436  -5.705  -5.171  0.00  0.00    +0.150 HD
ENDBRANCH  19  22
ENDBRANCH  15  16
ENDBRANCH   9  15
BRANCH   3  29
ATOM     29  O   UNL     1      -3.839  -1.647   4.319  0.00  0.00    -0.369 OA
BRANCH  29  30
ATOM     30  C   UNL     1      -5.235  -1.566   4.611  0.00  0.00    +0.195 C 
BRANCH  30  31
ATOM     31  C   UNL     1      -5.437  -1.567   6.105  0.00  0.00    -0.018 A 
ATOM     32  C   UNL     1      -5.606  -2.763   6.778  0.00  0.00    +0.006 A 
ATOM     33  C   UNL     1      -5.785  -2.767   8.149  0.00  0.00    +0.004 A 
ATOM     34  C   UNL     1      -5.807  -1.575   8.848  0.00  0.00    +0.045 A 
ATOM     35  C   UNL     1      -5.643  -0.374   8.174  0.00  0.00    +0.120 A 
ATOM     36  C   UNL     1      -5.457  -0.373   6.799  0.00  0.00    +0.051 A 
BRANCH  35  37
ATOM     37  O   UNL     1      -5.664   0.799   8.859  0.00  0.00    -0.495 OA
ATOM     38  C   UNL     1      -5.859   0.722  10.272  0.00  0.00    +0.277 C 
ENDBRANCH  35  37
ENDBRANCH  30  31
ENDBRANCH  29  30
ENDBRANCH   3  29
TORSDOF 9
