REMARK  Name = ZINC15954869
REMARK  10 active torsions:
REMARK  status: ('A' for Active; 'I' for Inactive)
REMARK    1  A    between atoms: C_1  and  C_2
REMARK    2  A    between atoms: C_2  and  C_3
REMARK    3  A    between atoms: C_2  and  N_4
REMARK    4  A    between atoms: C_24  and  C_26
REMARK    5  A    between atoms: C_29  and  O_34
REMARK    6  A    between atoms: C_30  and  O_32
REMARK    7  A    between atoms: O_32  and  C_33
REMARK    8  A    between atoms: O_34  and  C_35
REMARK    9  A    between atoms: C_35  and  C_36
REMARK   10  A    between atoms: C_35  and  C_37
REMARK                            x       y       z     vdW  Elec       q    Type
REMARK                         _______ _______ _______ _____ _____    ______ ____
ROOT
ATOM      1  N   UNL     1      -0.112   4.262  -0.302  0.00  0.00    -0.289 N 
ATOM      2  C   UNL     1      -1.384   3.571  -0.175  0.00  0.00    +0.204 C 
ATOM      3  C   UNL     1      -1.210   2.092  -0.053  0.00  0.00    +0.234 C 
ATOM      4  O   UNL     1      -2.209   1.410   0.035  0.00  0.00    -0.274 OA
ATOM      5  N   UNL     1      -0.029   1.470  -0.037  0.00  0.00    -0.276 N 
ATOM      6  C   UNL     1       1.249   2.181  -0.052  0.00  0.00    +0.167 C 
ATOM      7  C   UNL     1       1.071   3.652  -0.251  0.00  0.00    +0.237 C 
ATOM      8  O   UNL     1       2.067   4.333  -0.374  0.00  0.00    -0.274 OA
ATOM      9  C   UNL     1       1.983   1.925   1.272  0.00  0.00    +0.069 C 
ATOM     10  C   UNL     1       1.908   0.455   1.593  0.00  0.00    -0.015 A 
ATOM     11  C   UNL     1       2.720  -0.305   2.522  0.00  0.00    +0.003 A 
ATOM     12  C   UNL     1       3.773   0.051   3.371  0.00  0.00    +0.010 A 
ATOM     13  C   UNL     1       4.324  -0.951   4.130  0.00  0.00    +0.001 A 
ATOM     14  C   UNL     1       3.867  -2.258   4.067  0.00  0.00    +0.002 A 
ATOM     15  C   UNL     1       2.828  -2.638   3.236  0.00  0.00    +0.026 A 
ATOM     16  C   UNL     1       2.248  -1.641   2.454  0.00  0.00    +0.047 A 
ATOM     17  N   UNL     1       1.228  -1.665   1.547  0.00  0.00    -0.356 N 
ATOM     18  H   UNL     1       0.718  -2.453   1.302  0.00  0.00    +0.166 HD
ATOM     19  C   UNL     1       1.032  -0.410   1.036  0.00  0.00    +0.046 A 
ATOM     20  C   UNL     1       0.004  -0.007   0.004  0.00  0.00    +0.154 C 
ENDROOT
BRANCH  20  21
ATOM     21  C   UNL     1      -1.351  -0.539   0.394  0.00  0.00    -0.018 A 
ATOM     22  C   UNL     1      -1.838  -0.319   1.669  0.00  0.00    +0.009 A 
ATOM     23  C   UNL     1      -3.081  -0.803   2.031  0.00  0.00    +0.050 A 
ATOM     24  C   UNL     1      -3.841  -1.513   1.115  0.00  0.00    +0.162 A 
ATOM     25  C   UNL     1      -3.352  -1.735  -0.168  0.00  0.00    +0.162 A 
ATOM     26  C   UNL     1      -2.107  -1.241  -0.526  0.00  0.00    +0.055 A 
BRANCH  25  27
ATOM     27  O   UNL     1      -4.094  -2.431  -1.070  0.00  0.00    -0.491 OA
ATOM     28  C   UNL     1      -3.528  -2.620  -2.368  0.00  0.00    +0.277 C 
ENDBRANCH  25  27
BRANCH  24  29
ATOM     29  O   UNL     1      -5.064  -1.991   1.470  0.00  0.00    -0.486 OA
BRANCH  29  30
ATOM     30  C   UNL     1      -5.554  -1.624   2.762  0.00  0.00    +0.167 C 
ATOM     31  C   UNL     1      -7.083  -1.687   2.764  0.00  0.00    +0.051 C 
ATOM     32  C   UNL     1      -5.003  -2.593   3.810  0.00  0.00    +0.051 C 
ENDBRANCH  29  30
ENDBRANCH  24  29
ENDBRANCH  20  21
BRANCH   1  34
ATOM     33  C   UNL     1      -0.892   6.045  -1.783  0.00  0.00    +0.028 C 
ATOM     34  C   UNL     1      -0.131   5.714  -0.498  0.00  0.00    +0.070 C 
ATOM     35  C   UNL     1      -0.826   6.379   0.692  0.00  0.00    +0.028 C 
ENDBRANCH   1  34
TORSDOF 5
