REMARK  Name = ZINC59263199
REMARK  8 active torsions:
REMARK  status: ('A' for Active; 'I' for Inactive)
REMARK    1  A    between atoms: C_1  and  N_2
REMARK    2  A    between atoms: C_6  and  C_7
REMARK    3  A    between atoms: N_15  and  C_16
REMARK    4  A    between atoms: C_16  and  C_17
REMARK    5  A    between atoms: C_17  and  C_19
REMARK    6  A    between atoms: C_17  and  N_25
REMARK    7  A    between atoms: N_25  and  C_26
REMARK    8  A    between atoms: N_25  and  C_27
REMARK                            x       y       z     vdW  Elec       q    Type
REMARK                         _______ _______ _______ _____ _____    ______ ____
ROOT
ATOM      1  C   UNL     1       0.453  -0.431   3.894  0.00  0.00    +0.124 C 
ATOM      2  C   UNL     1       1.717  -0.340   4.775  0.00  0.00    +0.030 C 
ATOM      3  C   UNL     1       1.203  -0.789   6.168  0.00  0.00    +0.021 C 
ATOM      4  C   UNL     1       0.165  -1.873   5.781  0.00  0.00    +0.110 C 
ATOM      5  N   UNL     1      -0.475  -1.362   4.552  0.00  0.00    -0.277 N 
ATOM      6  C   UNL     1      -1.703  -1.693   4.106  0.00  0.00    +0.303 C 
ATOM      7  O   UNL     1      -2.128  -1.207   3.076  0.00  0.00    -0.253 OA
ATOM      8  N   UNL     1      -2.461  -2.563   4.803  0.00  0.00    -0.300 N 
ATOM      9  H   UNL     1      -2.123  -2.951   5.625  0.00  0.00    +0.150 HD
ENDROOT
BRANCH   1  15
ATOM     10  C   UNL     1       1.054   1.274   1.375  0.00  0.00    +0.148 C 
ATOM     11  N   UNL     1       1.079  -0.189   1.427  0.00  0.00    -0.352 N 
ATOM     12  C   UNL     1       1.375  -1.016   0.383  0.00  0.00    +0.085 A 
ATOM     13  C   UNL     1       1.294  -2.290   0.818  0.00  0.00    +0.019 A 
ATOM     14  C   UNL     1       0.936  -2.248   2.180  0.00  0.00    +0.024 A 
ATOM     15  C   UNL     1       0.817  -0.950   2.527  0.00  0.00    +0.039 A 
ENDBRANCH   1  15
BRANCH   8  16
ATOM     16  C   UNL     1      -3.796  -2.923   4.319  0.00  0.00    +0.095 C 
BRANCH  16  17
ATOM     17  C   UNL     1      -4.387  -4.014   5.214  0.00  0.00    -0.021 C 
BRANCH  17  18
ATOM     18  C   UNL     1      -3.566  -5.271   5.083  0.00  0.00    -0.059 A 
ATOM     19  C   UNL     1      -3.750  -6.105   3.996  0.00  0.00    +0.002 A 
ATOM     20  C   UNL     1      -2.997  -7.258   3.875  0.00  0.00    +0.000 A 
ATOM     21  C   UNL     1      -2.061  -7.577   4.841  0.00  0.00    +0.000 A 
ATOM     22  C   UNL     1      -1.877  -6.742   5.927  0.00  0.00    +0.000 A 
ATOM     23  C   UNL     1      -2.627  -5.587   6.046  0.00  0.00    +0.002 A 
ENDBRANCH  17  18
BRANCH  17  24
ATOM     24  N   UNL     1      -5.771  -4.287   4.805  0.00  0.00    +0.382 N 
ATOM     25  C   UNL     1      -6.322  -5.369   5.632  0.00  0.00    -0.096 C 
ATOM     26  C   UNL     1      -6.582  -3.075   4.981  0.00  0.00    -0.096 C 
ATOM     27  H   UNL     1      -5.786  -4.564   3.835  0.00  0.00    -0.082 HD
ENDBRANCH  17  24
ENDBRANCH  16  17
ENDBRANCH   8  16
TORSDOF 5
