REMARK  Name = ZINC07592664
REMARK  13 active torsions:
REMARK  status: ('A' for Active; 'I' for Inactive)
REMARK    1  A    between atoms: C_1  and  C_2
REMARK    2  A    between atoms: C_2  and  O_3
REMARK    3  A    between atoms: O_3  and  C_4
REMARK    4  A    between atoms: C_7  and  C_10
REMARK    5  A    between atoms: C_10  and  N_57
REMARK    6  A    between atoms: C_11  and  N_57
REMARK    7  A    between atoms: C_12  and  C_13
REMARK    8  A    between atoms: C_12  and  N_57
REMARK    9  A    between atoms: C_14  and  C_26
REMARK   10  A    between atoms: C_15  and  C_21
REMARK   11  A    between atoms: C_26  and  O_28
REMARK   12  A    between atoms: O_28  and  C_29
REMARK   13  A    between atoms: C_29  and  C_30
REMARK                            x       y       z     vdW  Elec       q    Type
REMARK                         _______ _______ _______ _____ _____    ______ ____
ROOT
ATOM      1  C   UNL     1       1.357  10.021   3.225  0.00  0.00    +0.008 C 
ATOM      2  C   UNL     1       2.437  10.266   2.452  0.00  0.00    +0.079 C 
ATOM      3  C   UNL     1       3.715  10.698   3.142  0.00  0.00    +0.179 C 
ATOM      4  N   UNL     1       3.673  10.816   4.609  0.00  0.00    -0.285 N 
ATOM      5  C   UNL     1       2.517  10.537   5.243  0.00  0.00    +0.304 C 
ATOM      6  O   UNL     1       2.473  10.632   6.454  0.00  0.00    -0.252 OA
ATOM      7  N   UNL     1       1.414  10.164   4.582  0.00  0.00    -0.274 N 
ATOM      8  H   UNL     1       4.460  11.089   5.108  0.00  0.00    +0.151 HD
ATOM      9  H   UNL     1       0.612   9.981   5.096  0.00  0.00    +0.156 HD
ENDROOT
BRANCH   3  10
ATOM     10  C   UNL     1       4.793   9.707   2.786  0.00  0.00    +0.130 A 
ATOM     11  C   UNL     1       5.742   9.880   1.849  0.00  0.00    +0.047 A 
ATOM     12  C   UNL     1       6.535   8.710   1.849  0.00  0.00    +0.041 A 
ATOM     13  C   UNL     1       6.024   7.892   2.787  0.00  0.00    +0.195 A 
ATOM     14  O   UNL     1       4.972   8.504   3.355  0.00  0.00    -0.466 OA
ENDBRANCH   3  10
BRANCH   2  15
ATOM     15  C   UNL     1       2.377  10.123   1.046  0.00  0.00    +0.339 C 
ATOM     16  O   UNL     1       1.380   9.661   0.523  0.00  0.00    -0.245 OA
BRANCH  15  17
ATOM     17  O   UNL     1       3.425  10.500   0.284  0.00  0.00    -0.462 OA
BRANCH  17  18
ATOM     18  C   UNL     1       3.296  10.328  -1.128  0.00  0.00    +0.229 C 
ATOM     19  C   UNL     1       4.574  10.807  -1.819  0.00  0.00    +0.048 C 
ENDBRANCH  17  18
ENDBRANCH  15  17
ENDBRANCH   2  15
BRANCH   1  20
ATOM     20  C   UNL     1       0.065   9.590   2.580  0.00  0.00    -0.026 C 
BRANCH  20  22
ATOM     21  C   UNL     1      -0.060   7.428   3.663  0.00  0.00    -0.095 C 
ATOM     22  N   UNL     1       0.104   8.127   2.371  0.00  0.00    +0.384 N 
ATOM     23  H   UNL     1       1.013   7.872   1.967  0.00  0.00    -0.081 HD
BRANCH  22  24
ATOM     24  C   UNL     1      -0.968   7.721   1.438  0.00  0.00    -0.043 C 
BRANCH  24  28
ATOM     25  C   UNL     1      -0.409   3.614   0.400  0.00  0.00    +0.121 A 
ATOM     26  C   UNL     1       0.205   4.609  -0.347  0.00  0.00    +0.046 A 
ATOM     27  C   UNL     1       0.018   5.936  -0.013  0.00  0.00    +0.005 A 
ATOM     28  C   UNL     1      -0.771   6.273   1.072  0.00  0.00    -0.064 A 
ATOM     29  C   UNL     1      -1.379   5.283   1.821  0.00  0.00    +0.005 A 
ATOM     30  C   UNL     1      -1.200   3.954   1.487  0.00  0.00    +0.046 A 
BRANCH  25  31
ATOM     31  O   UNL     1      -0.232   2.308   0.069  0.00  0.00    -0.492 OA
BRANCH  31  33
ATOM     32  C   UNL     1       0.677   0.518  -1.278  0.00  0.00    +0.048 C 
ATOM     33  C   UNL     1       0.596   2.031  -1.062  0.00  0.00    +0.225 C 
ENDBRANCH  31  33
ENDBRANCH  25  31
ENDBRANCH  24  28
ENDBRANCH  22  24
ENDBRANCH  20  22
ENDBRANCH   1  20
TORSDOF 10
