REMARK  Name = ZINC13623341
REMARK  11 active torsions:
REMARK  status: ('A' for Active; 'I' for Inactive)
REMARK    1  A    between atoms: C_1  and  C_2
REMARK    2  A    between atoms: C_2  and  C_3
REMARK    3  A    between atoms: C_3  and  C_5
REMARK    4  A    between atoms: C_3  and  C_6
REMARK    5  A    between atoms: C_9  and  O_13
REMARK    6  A    between atoms: O_13  and  C_14
REMARK    7  A    between atoms: C_14  and  C_15
REMARK    8  A    between atoms: N_17  and  N_18
REMARK    9  A    between atoms: C_19  and  C_21
REMARK   10  A    between atoms: N_26  and  C_28
REMARK   11  A    between atoms: C_28  and  C_29
REMARK                            x       y       z     vdW  Elec       q    Type
REMARK                         _______ _______ _______ _____ _____    ______ ____
ROOT
ATOM      1  C   UNL     1      -3.763   5.791   0.065  0.00  0.00    +0.267 C 
ATOM      2  O   UNL     1      -4.716   5.041   0.070  0.00  0.00    -0.271 OA
ATOM      3  N   UNL     1      -3.955   7.125   0.073  0.00  0.00    -0.232 N 
ATOM      4  H   UNL     1      -3.193   7.725   0.069  0.00  0.00    +0.173 HD
ENDROOT
BRANCH   3   5
ATOM      5  N   UNL     1      -5.256   7.645   0.088  0.00  0.00    -0.234 N 
ATOM      6  C   UNL     1      -5.448   8.979   0.096  0.00  0.00    +0.234 C 
ATOM      7  O   UNL     1      -4.495   9.729   0.090  0.00  0.00    -0.274 OA
ATOM      8  H   UNL     1      -6.018   7.045   0.092  0.00  0.00    +0.173 HD
BRANCH   6   9
ATOM      9  C   UNL     1      -6.847   9.539   0.111  0.00  0.00    +0.102 C 
ATOM     10  C   UNL     1      -7.577   9.240  -1.219  0.00  0.00    +0.110 C 
ATOM     11  C   UNL     1      -8.403  10.481  -1.475  0.00  0.00    +0.217 C 
ATOM     12  O   UNL     1      -9.328  10.551  -2.258  0.00  0.00    -0.276 OA
ATOM     13  N   UNL     1      -7.964  11.495  -0.710  0.00  0.00    -0.296 N 
ATOM     14  C   UNL     1      -6.825  11.084   0.118  0.00  0.00    +0.121 C 
BRANCH  13  15
ATOM     15  C   UNL     1      -8.548  12.839  -0.704  0.00  0.00    +0.142 C 
BRANCH  15  16
ATOM     16  C   UNL     1      -7.855  13.693  -1.734  0.00  0.00    -0.030 A 
ATOM     17  C   UNL     1      -6.741  14.432  -1.384  0.00  0.00    +0.005 A 
ATOM     18  C   UNL     1      -6.103  15.212  -2.330  0.00  0.00    +0.000 A 
ATOM     19  C   UNL     1      -6.584  15.259  -3.625  0.00  0.00    +0.000 A 
ATOM     20  C   UNL     1      -7.701  14.524  -3.975  0.00  0.00    +0.000 A 
ATOM     21  C   UNL     1      -8.337  13.741  -3.029  0.00  0.00    +0.005 A 
ENDBRANCH  15  16
ENDBRANCH  13  15
ENDBRANCH   6   9
ENDBRANCH   3   5
BRANCH   1  22
ATOM     22  C   UNL     1      -2.364   5.231   0.050  0.00  0.00    +0.326 C 
BRANCH  22  23
ATOM     23  O   UNL     1      -2.422   3.804   0.044  0.00  0.00    -0.482 OA
BRANCH  23  27
ATOM     24  C   UNL     1       1.175   1.783   0.000  0.00  0.00    -0.043 A 
ATOM     25  C   UNL     1       1.160   3.166   0.007  0.00  0.00    +0.007 A 
ATOM     26  C   UNL     1      -0.043   3.844   0.022  0.00  0.00    +0.047 A 
ATOM     27  C   UNL     1      -1.237   3.138   0.030  0.00  0.00    +0.135 A 
ATOM     28  C   UNL     1      -1.219   1.750   0.017  0.00  0.00    +0.060 A 
ATOM     29  C   UNL     1      -0.013   1.076   0.008  0.00  0.00    +0.022 A 
ATOM     30 BR   UNL     1      -2.844   0.783   0.020  0.00  0.00    -0.047 Br
BRANCH  24  31
ATOM     31  C   UNL     1       2.490   1.045  -0.015  0.00  0.00    +0.016 C 
ATOM     32  C   UNL     1       3.299   1.419   1.229  0.00  0.00    +0.012 C 
BRANCH  31  34
ATOM     33  C   UNL     1       4.552   0.590  -1.350  0.00  0.00    +0.004 C 
ATOM     34  C   UNL     1       3.276   1.431  -1.270  0.00  0.00    +0.004 C 
ENDBRANCH  31  34
ENDBRANCH  24  31
ENDBRANCH  23  27
ENDBRANCH  22  23
ENDBRANCH   1  22
TORSDOF 9
