REMARK  Name = ZINC22840232
REMARK  13 active torsions:
REMARK  status: ('A' for Active; 'I' for Inactive)
REMARK    1  A    between atoms: C_1  and  C_2
REMARK    2  A    between atoms: C_2  and  N_3
REMARK    3  A    between atoms: C_7  and  C_8
REMARK    4  A    between atoms: N_11  and  C_14
REMARK    5  A    between atoms: C_12  and  C_13
REMARK    6  A    between atoms: C_16  and  S_17
REMARK    7  A    between atoms: S_17  and  C_18
REMARK    8  A    between atoms: C_18  and  C_19
REMARK    9  A    between atoms: N_21  and  C_22
REMARK   10  A    between atoms: C_23  and  C_31
REMARK   11  A    between atoms: C_31  and  O_33
REMARK   12  A    between atoms: O_33  and  C_34
REMARK   13  A    between atoms: C_34  and  C_35
REMARK                            x       y       z     vdW  Elec       q    Type
REMARK                         _______ _______ _______ _____ _____    ______ ____
ROOT
ATOM      1  C   UNL     1       6.722  -1.597   0.377  0.00  0.00    +0.173 C 
ENDROOT
BRANCH   1   2
ATOM      2  C   UNL     1       8.032  -2.335   0.485  0.00  0.00    +0.228 C 
ATOM      3  O   UNL     1       8.041  -3.546   0.556  0.00  0.00    -0.275 OA
ATOM      4  N   UNL     1       9.192  -1.650   0.504  0.00  0.00    -0.279 N 
ATOM      5  H   UNL     1       9.183  -0.552   0.441  0.00  0.00    +0.155 HD
BRANCH   4   6
ATOM      6  C   UNL     1      10.396  -2.329   0.605  0.00  0.00    +0.086 A 
ATOM      7  C   UNL     1      11.682  -1.806   0.639  0.00  0.00    +0.091 A 
ATOM      8  C   UNL     1      12.786  -2.744   0.750  0.00  0.00    -0.021 A 
ATOM      9  C   UNL     1      12.431  -4.046   0.808  0.00  0.00    -0.004 A 
ATOM     10  S   UNL     1      10.663  -4.037   0.724  0.00  0.00    -0.077 S 
ATOM     11  C   UNL     1      13.345  -5.227   0.922  0.00  0.00    +0.043 C 
ATOM     12  C   UNL     1      14.772  -4.769   0.588  0.00  0.00    +0.005 C 
ATOM     13  C   UNL     1      15.073  -3.486   1.368  0.00  0.00    +0.005 C 
ATOM     14  C   UNL     1      14.251  -2.327   0.801  0.00  0.00    +0.037 C 
BRANCH   7  15
ATOM     15  C   UNL     1      11.916  -0.362   0.567  0.00  0.00    +0.342 C 
ATOM     16  O   UNL     1      11.961   0.299   1.587  0.00  0.00    -0.245 OA
BRANCH  15  17
ATOM     17  O   UNL     1      12.083   0.235  -0.632  0.00  0.00    -0.461 OA
BRANCH  17  18
ATOM     18  C   UNL     1      12.312   1.669  -0.628  0.00  0.00    +0.229 C 
ATOM     19  C   UNL     1      12.476   2.163  -2.067  0.00  0.00    +0.048 C 
ENDBRANCH  17  18
ENDBRANCH  15  17
ENDBRANCH   7  15
ENDBRANCH   4   6
ENDBRANCH   1   2
BRANCH   1  20
ATOM     20  S   UNL     1       5.357  -2.786   0.377  0.00  0.00    -0.081 S 
BRANCH  20  27
ATOM     21  N   UNL     1       2.677  -2.075   0.200  0.00  0.00    -0.246 N 
ATOM     22  C   UNL     1       1.905  -0.971   0.097  0.00  0.00    +0.271 C 
ATOM     23  O   UNL     1       0.690  -0.925   0.033  0.00  0.00    -0.268 OA
ATOM     24  C   UNL     1       2.842   0.164   0.079  0.00  0.00    +0.129 C 
ATOM     25  C   UNL     1       2.525   1.500  -0.014  0.00  0.00    +0.044 C 
ATOM     26  N   UNL     1       4.094  -0.382   0.168  0.00  0.00    -0.221 NA
ATOM     27  C   UNL     1       3.990  -1.683   0.244  0.00  0.00    +0.164 C 
BRANCH  25  28
ATOM     28  C   UNL     1       1.138   1.909  -0.256  0.00  0.00    +0.018 A 
ATOM     29  C   UNL     1       0.204   1.258  -1.097  0.00  0.00    +0.142 A 
ATOM     30  N   UNL     1      -0.915   1.927  -1.052  0.00  0.00    -0.179 NA
ATOM     31  N   UNL     1      -0.760   3.017  -0.187  0.00  0.00    -0.271 N 
ATOM     32  C   UNL     1       0.495   3.005   0.294  0.00  0.00    +0.043 A 
ATOM     33  C   UNL     1       1.093   4.001   1.255  0.00  0.00    +0.066 C 
ATOM     34  C   UNL     1      -1.791   4.007   0.135  0.00  0.00    +0.172 C 
ENDBRANCH  25  28
BRANCH  21  36
ATOM     35  C   UNL     1       2.097  -4.022  -1.163  0.00  0.00    +0.025 C 
ATOM     36  C   UNL     1       2.193  -3.457   0.256  0.00  0.00    +0.112 C 
ENDBRANCH  21  36
ENDBRANCH  20  27
ENDBRANCH   1  20
TORSDOF 9
