REMARK  Name = ZINC49529666
REMARK  5 active torsions:
REMARK  status: ('A' for Active; 'I' for Inactive)
REMARK    1  A    between atoms: C_1  and  C_2
REMARK    2  A    between atoms: C_2  and  C_3
REMARK    3  A    between atoms: C_3  and  C_5
REMARK    4  A    between atoms: C_3  and  N_10
REMARK    5  A    between atoms: N_10  and  C_11
REMARK                            x       y       z     vdW  Elec       q    Type
REMARK                         _______ _______ _______ _____ _____    ______ ____
ROOT
ATOM      1  C   UNL     1      -0.099   1.210  -2.842  0.00  0.00    +0.050 C 
ATOM      2  C   UNL     1      -0.803   1.505  -4.147  0.00  0.00    -0.030 A 
ATOM      3  C   UNL     1      -0.582   1.097  -5.443  0.00  0.00    +0.004 A 
ATOM      4  C   UNL     1      -1.411   1.542  -6.458  0.00  0.00    +0.001 A 
ATOM      5  C   UNL     1      -2.460   2.395  -6.165  0.00  0.00    +0.017 A 
ATOM      6  C   UNL     1      -2.683   2.805  -4.867  0.00  0.00    +0.039 A 
ATOM      7  C   UNL     1      -1.852   2.361  -3.839  0.00  0.00    +0.049 A 
ATOM      8  N   UNL     1      -1.871   2.629  -2.470  0.00  0.00    -0.285 N 
ATOM      9  C   UNL     1      -0.879   1.997  -1.812  0.00  0.00    +0.208 C 
ATOM     10  O   UNL     1      -0.654   2.048  -0.622  0.00  0.00    -0.277 OA
ATOM     11 BR   UNL     1      -4.120   3.973  -4.480  0.00  0.00    -0.048 Br
ATOM     12  H   UNL     1      -2.522   3.205  -2.040  0.00  0.00    +0.155 HD
ENDROOT
BRANCH   1  13
ATOM     13  N   UNL     1      -0.153  -0.227  -2.541  0.00  0.00    +0.394 N 
ATOM     14  H   UNL     1       0.274  -0.745  -3.294  0.00  0.00    -0.083 HD
ATOM     15  H   UNL     1      -1.116  -0.513  -2.440  0.00  0.00    -0.083 HD
BRANCH  13  16
ATOM     16  C   UNL     1       0.570  -0.494  -1.291  0.00  0.00    -0.033 C 
BRANCH  16  17
ATOM     17  C   UNL     1       2.030  -0.167  -1.476  0.00  0.00    -0.024 A 
ATOM     18  C   UNL     1       2.887   0.431  -0.613  0.00  0.00    +0.009 A 
ATOM     19  C   UNL     1       4.198   0.631  -1.001  0.00  0.00    +0.008 A 
ATOM     20  C   UNL     1       4.589   0.223  -2.233  0.00  0.00    +0.045 A 
ATOM     21  S   UNL     1       3.081  -0.475  -2.886  0.00  0.00    -0.103 S 
ENDBRANCH  16  17
BRANCH  16  23
ATOM     22  C   UNL     1      -1.043  -2.268  -0.591  0.00  0.00    +0.002 C 
ATOM     23  C   UNL     1       0.421  -1.971  -0.920  0.00  0.00    -0.014 C 
ENDBRANCH  16  23
ENDBRANCH  13  16
ENDBRANCH   1  13
TORSDOF 4
