REMARK  Name = ZINC66599042
REMARK  10 active torsions:
REMARK  status: ('A' for Active; 'I' for Inactive)
REMARK    1  A    between atoms: C_1  and  C_2
REMARK    2  A    between atoms: C_5  and  C_9
REMARK    3  A    between atoms: C_6  and  C_8
REMARK    4  A    between atoms: C_9  and  C_10
REMARK    5  A    between atoms: C_10  and  C_12
REMARK    6  A    between atoms: C_10  and  N_13
REMARK    7  A    between atoms: N_16  and  C_17
REMARK    8  A    between atoms: C_17  and  C_19
REMARK    9  A    between atoms: C_17  and  C_20
REMARK   10  A    between atoms: C_22  and  C_25
REMARK                            x       y       z     vdW  Elec       q    Type
REMARK                         _______ _______ _______ _____ _____    ______ ____
ROOT
ATOM      1  N   UNL     1      -2.601  -4.319   1.760  0.00  0.00    -0.297 N 
ATOM      2  C   UNL     1      -3.903  -3.970   1.735  0.00  0.00    +0.300 C 
ATOM      3  O   UNL     1      -4.570  -4.182   0.741  0.00  0.00    -0.253 OA
ATOM      4  N   UNL     1      -4.465  -3.387   2.812  0.00  0.00    -0.291 N 
ATOM      5  H   UNL     1      -2.069  -4.150   2.553  0.00  0.00    +0.151 HD
ATOM      6  H   UNL     1      -3.933  -3.218   3.606  0.00  0.00    +0.151 HD
ENDROOT
BRANCH   1   7
ATOM      7  C   UNL     1      -1.990  -4.953   0.589  0.00  0.00    +0.076 C 
ATOM      8  C   UNL     1      -2.220  -6.464   0.649  0.00  0.00    +0.028 C 
BRANCH   7   9
ATOM      9  C   UNL     1      -0.487  -4.665   0.580  0.00  0.00    +0.057 C 
BRANCH   9  14
ATOM     10  C   UNL     1       0.388   1.001  -0.143  0.00  0.00    +0.044 C 
ATOM     11  C   UNL     1       0.160  -0.477   0.045  0.00  0.00    -0.050 A 
ATOM     12  C   UNL     1       0.246  -1.034   1.308  0.00  0.00    +0.003 A 
ATOM     13  C   UNL     1       0.037  -2.389   1.480  0.00  0.00    +0.004 A 
ATOM     14  C   UNL     1      -0.260  -3.187   0.391  0.00  0.00    -0.043 A 
ATOM     15  C   UNL     1      -0.347  -2.630  -0.871  0.00  0.00    -0.047 A 
ATOM     16  C   UNL     1      -0.142  -1.274  -1.043  0.00  0.00    +0.007 A 
ATOM     17  C   UNL     1      -0.670  -3.500  -2.058  0.00  0.00    +0.044 C 
ENDBRANCH   9  14
ENDBRANCH   7   9
ENDBRANCH   1   7
BRANCH   4  18
ATOM     18  C   UNL     1      -5.880  -3.008   2.785  0.00  0.00    +0.127 C 
ATOM     19  C   UNL     1      -6.026  -1.627   2.144  0.00  0.00    +0.035 C 
BRANCH  18  20
ATOM     20  C   UNL     1      -6.416  -2.967   4.193  0.00  0.00    +0.099 A 
ATOM     21  N   UNL     1      -7.541  -3.458   4.649  0.00  0.00    -0.247 NA
ATOM     22  C   UNL     1      -7.875  -3.342   5.919  0.00  0.00    +0.046 A 
ATOM     23  C   UNL     1      -7.000  -2.692   6.729  0.00  0.00    +0.070 A 
ATOM     24  S   UNL     1      -5.710  -2.288   5.562  0.00  0.00    -0.078 S 
ATOM     25  C   UNL     1      -9.169  -3.904   6.448  0.00  0.00    +0.066 C 
ENDBRANCH  18  20
ENDBRANCH   4  18
TORSDOF 5
