REMARK  Name = ZINC13498880
REMARK  11 active torsions:
REMARK  status: ('A' for Active; 'I' for Inactive)
REMARK    1  A    between atoms: C_1  and  C_2
REMARK    2  A    between atoms: C_6  and  C_15
REMARK    3  A    between atoms: C_13  and  C_14
REMARK    4  A    between atoms: C_15  and  N_72
REMARK    5  A    between atoms: C_16  and  N_72
REMARK    6  A    between atoms: C_21  and  C_23
REMARK    7  A    between atoms: C_21  and  C_33
REMARK    8  A    between atoms: C_21  and  N_72
REMARK    9  A    between atoms: N_27  and  C_28
REMARK   10  A    between atoms: C_33  and  C_34
REMARK   11  A    between atoms: C_33  and  C_35
REMARK                            x       y       z     vdW  Elec       q    Type
REMARK                         _______ _______ _______ _____ _____    ______ ____
ROOT
ATOM      1  N   UNL     1      -5.098   4.295  -1.311  0.00  0.00    +0.391 N 
ATOM      2  H   UNL     1      -4.317   4.755  -1.793  0.00  0.00    -0.080 HD
ENDROOT
BRANCH   1   3
ATOM      3  C   UNL     1      -5.309   2.959  -1.907  0.00  0.00    -0.067 C 
ATOM      4  C   UNL     1      -5.566   3.106  -3.421  0.00  0.00    -0.015 C 
ATOM      5  C   UNL     1      -6.612   2.007  -3.737  0.00  0.00    -0.002 C 
ATOM      6  C   UNL     1      -7.526   2.034  -2.486  0.00  0.00    -0.002 C 
ATOM      7  C   UNL     1      -6.554   2.277  -1.313  0.00  0.00    -0.015 C 
ENDBRANCH   1   3
BRANCH   1   8
ATOM      8  C   UNL     1      -4.767   4.162   0.123  0.00  0.00    -0.036 C 
BRANCH   8  14
ATOM      9  C   UNL     1       2.507   5.582   0.948  0.00  0.00    +0.044 C 
ATOM     10  C   UNL     1       1.369   4.609   0.781  0.00  0.00    -0.047 A 
ATOM     11  C   UNL     1       0.089   5.075   0.672  0.00  0.00    +0.013 A 
ATOM     12  C   UNL     1      -0.967   4.172   0.517  0.00  0.00    -0.001 A 
ATOM     13  C   UNL     1      -2.350   4.638   0.397  0.00  0.00    +0.017 A 
ATOM     14  C   UNL     1      -3.333   3.716   0.248  0.00  0.00    +0.001 A 
ATOM     15  C   UNL     1      -3.018   2.341   0.211  0.00  0.00    +0.251 A 
ATOM     16  O   UNL     1      -3.917   1.529   0.077  0.00  0.00    -0.268 OA
ATOM     17  N   UNL     1      -1.752   1.903   0.320  0.00  0.00    -0.322 N 
ATOM     18  H   UNL     1      -1.570   0.951   0.291  0.00  0.00    +0.169 HD
ATOM     19  C   UNL     1      -0.706   2.790   0.468  0.00  0.00    +0.049 A 
ATOM     20  C   UNL     1       0.604   2.338   0.586  0.00  0.00    +0.030 A 
ATOM     21  C   UNL     1       1.630   3.246   0.739  0.00  0.00    -0.046 A 
ATOM     22  C   UNL     1       3.049   2.755   0.860  0.00  0.00    +0.044 C 
ENDBRANCH   8  14
ENDBRANCH   1   8
BRANCH   1  23
ATOM     23  C   UNL     1      -6.315   5.118  -1.475  0.00  0.00    +0.006 C 
BRANCH  23  24
ATOM     24  C   UNL     1      -7.240   4.926  -0.300  0.00  0.00    +0.139 A 
ATOM     25  N   UNL     1      -6.892   4.779   0.955  0.00  0.00    -0.115 NA
ATOM     26  N   UNL     1      -7.967   4.645   1.653  0.00  0.00    -0.023 NA
ATOM     27  N   UNL     1      -8.991   4.695   0.875  0.00  0.00    -0.044 NA
ATOM     28  N   UNL     1      -8.585   4.867  -0.338  0.00  0.00    -0.228 N 
BRANCH  28  29
ATOM     29  C   UNL     1      -9.428   4.978  -1.531  0.00  0.00    +0.111 C 
ATOM     30  C   UNL     1     -10.418   6.149  -1.371  0.00  0.00    +0.027 C 
ATOM     31  C   UNL     1     -11.720   5.639  -2.040  0.00  0.00    +0.002 C 
ATOM     32  C   UNL     1     -11.752   4.146  -1.632  0.00  0.00    +0.002 C 
ATOM     33  C   UNL     1     -10.275   3.704  -1.697  0.00  0.00    +0.027 C 
ENDBRANCH  28  29
ENDBRANCH  23  24
BRANCH  23  34
ATOM     34  C   UNL     1      -5.901   6.588  -1.563  0.00  0.00    -0.024 C 
ATOM     35  C   UNL     1      -5.071   6.958  -0.332  0.00  0.00    +0.006 C 
ATOM     36  C   UNL     1      -5.066   6.808  -2.826  0.00  0.00    +0.006 C 
ENDBRANCH  23  34
ENDBRANCH   1  23
TORSDOF 7
