REMARK  Name = ZINC13976574
REMARK  8 active torsions:
REMARK  status: ('A' for Active; 'I' for Inactive)
REMARK    1  A    between atoms: C_1  and  O_2
REMARK    2  A    between atoms: O_2  and  C_3
REMARK    3  A    between atoms: C_6  and  C_9
REMARK    4  A    between atoms: C_10  and  C_11
REMARK    5  A    between atoms: N_13  and  C_14
REMARK    6  A    between atoms: C_14  and  N_16
REMARK    7  A    between atoms: N_16  and  N_17
REMARK    8  A    between atoms: C_18  and  C_20
REMARK                            x       y       z     vdW  Elec       q    Type
REMARK                         _______ _______ _______ _____ _____    ______ ____
ROOT
ATOM      1  C   UNL     1       3.364  10.035   0.021  0.00  0.00    +0.153 C 
ATOM      2  S   UNL     1       4.551  11.268   0.016  0.00  0.00    -0.017 S 
ENDROOT
BRANCH   1   5
ATOM      3  C   UNL     1       1.682  11.653   0.045  0.00  0.00    +0.242 C 
ATOM      4  O   UNL     1       2.526  12.530   0.041  0.00  0.00    -0.270 OA
ATOM      5  N   UNL     1       2.056  10.358   0.035  0.00  0.00    -0.263 N 
ATOM      6  H   UNL     1       1.383   9.659   0.038  0.00  0.00    +0.157 HD
BRANCH   3   8
ATOM      7  C   UNL     1      -0.111  13.302   0.070  0.00  0.00    +0.013 C 
ATOM      8  C   UNL     1       0.264  12.004   0.060  0.00  0.00    +0.068 C 
BRANCH   7  12
ATOM      9  C   UNL     1      -4.228  14.320   0.115  0.00  0.00    +0.120 A 
ATOM     10  C   UNL     1      -3.266  15.324   0.110  0.00  0.00    +0.046 A 
ATOM     11  C   UNL     1      -1.928  14.999   0.096  0.00  0.00    +0.011 A 
ATOM     12  C   UNL     1      -1.538  13.655   0.085  0.00  0.00    -0.025 A 
ATOM     13  C   UNL     1      -2.510  12.648   0.084  0.00  0.00    +0.011 A 
ATOM     14  C   UNL     1      -3.845  12.984   0.104  0.00  0.00    +0.046 A 
BRANCH   9  16
ATOM     15  C   UNL     1      -6.481  13.566   0.133  0.00  0.00    +0.277 C 
ATOM     16  O   UNL     1      -5.545  14.646   0.129  0.00  0.00    -0.495 OA
ENDBRANCH   9  16
ENDBRANCH   7  12
ENDBRANCH   3   8
ENDBRANCH   1   5
BRANCH   1  17
ATOM     17  N   UNL     1       3.738   8.740   0.011  0.00  0.00    -0.245 N 
ATOM     18  H   UNL     1       4.679   8.507   0.001  0.00  0.00    +0.172 HD
BRANCH  17  19
ATOM     19  N   UNL     1       2.767   7.730   0.015  0.00  0.00    -0.231 N 
ATOM     20  C   UNL     1       3.140   6.435   0.005  0.00  0.00    +0.268 C 
ATOM     21  O   UNL     1       4.321   6.143  -0.008  0.00  0.00    -0.268 OA
ATOM     22  H   UNL     1       1.825   7.963   0.025  0.00  0.00    +0.173 HD
BRANCH  20  23
ATOM     23  C   UNL     1       2.122   5.377   0.009  0.00  0.00    +0.095 A 
ATOM     24  C   UNL     1       2.301   4.028   0.001  0.00  0.00    +0.068 A 
ATOM     25  C   UNL     1       1.184   3.173   0.007  0.00  0.00    +0.008 A 
ATOM     26  C   UNL     1       1.164   1.754   0.000  0.00  0.00    +0.010 A 
ATOM     27  C   UNL     1      -0.013   1.076   0.008  0.00  0.00    +0.001 A 
ATOM     28  C   UNL     1      -1.235   1.737   0.017  0.00  0.00    +0.001 A 
ATOM     29  C   UNL     1      -1.261   3.117   0.029  0.00  0.00    +0.016 A 
ATOM     30  C   UNL     1      -0.075   3.819   0.022  0.00  0.00    +0.021 A 
ATOM     31  S   UNL     1       0.346   5.544   0.027  0.00  0.00    -0.082 S 
ATOM     32 CL   UNL     1       3.905   3.364  -0.018  0.00  0.00    -0.082 Cl
ENDBRANCH  20  23
ENDBRANCH  17  19
ENDBRANCH   1  17
TORSDOF 7
