REMARK  Name = ZINC59294369
REMARK  6 active torsions:
REMARK  status: ('A' for Active; 'I' for Inactive)
REMARK    1  A    between atoms: C_1  and  C_2
REMARK    2  A    between atoms: C_2  and  C_4
REMARK    3  A    between atoms: C_7  and  N_10
REMARK    4  A    between atoms: N_10  and  C_11
REMARK    5  A    between atoms: C_11  and  N_13
REMARK    6  A    between atoms: C_14  and  C_16
REMARK                            x       y       z     vdW  Elec       q    Type
REMARK                         _______ _______ _______ _____ _____    ______ ____
ROOT
ATOM      1  C   UNL     1       0.108  -4.132  -4.893  0.00  0.00    +0.141 C 
ATOM      2  S   UNL     1       0.127  -5.001  -3.418  0.00  0.00    -0.018 S 
ENDROOT
BRANCH   1   3
ATOM      3  N   UNL     1       0.207  -4.791  -6.064  0.00  0.00    -0.264 N 
ATOM      4  C   UNL     1       0.322  -6.134  -6.075  0.00  0.00    +0.250 C 
ATOM      5  O   UNL     1       0.335  -6.750  -5.027  0.00  0.00    -0.270 OA
ATOM      6  H   UNL     1       0.197  -4.298  -6.900  0.00  0.00    +0.157 HD
BRANCH   4   7
ATOM      7  C   UNL     1       0.430  -6.855  -7.358  0.00  0.00    +0.039 A 
ATOM      8  C   UNL     1       0.419  -6.130  -8.565  0.00  0.00    +0.015 A 
ATOM      9  C   UNL     1       0.517  -6.751  -9.758  0.00  0.00    +0.031 A 
ATOM     10  C   UNL     1       0.633  -8.168  -9.827  0.00  0.00    +0.100 A 
ATOM     11  C   UNL     1       0.646  -8.931  -8.584  0.00  0.00    +0.101 A 
ATOM     12  C   UNL     1       0.547  -8.229  -7.356  0.00  0.00    +0.043 A 
ATOM     13  N   UNL     1       0.759 -10.248  -8.778  0.00  0.00    -0.191 NA
ATOM     14  S   UNL     1       0.837 -10.446 -10.372  0.00  0.00    +0.116 S 
ATOM     15  N   UNL     1       0.737  -8.934 -10.913  0.00  0.00    -0.191 NA
ENDBRANCH   4   7
ENDBRANCH   1   3
BRANCH   1  16
ATOM     16  N   UNL     1      -0.006  -2.789  -4.883  0.00  0.00    -0.297 N 
ATOM     17  H   UNL     1      -0.098  -2.304  -5.718  0.00  0.00    +0.154 HD
BRANCH  16  21
ATOM     18  C   UNL     1       0.034  -0.728  -1.275  0.00  0.00    +0.017 A 
ATOM     19  C   UNL     1       0.929  -1.783  -1.492  0.00  0.00    +0.013 A 
ATOM     20  C   UNL     1       0.913  -2.458  -2.679  0.00  0.00    +0.024 A 
ATOM     21  C   UNL     1       0.007  -2.099  -3.674  0.00  0.00    +0.033 A 
ATOM     22  C   UNL     1      -0.885  -1.050  -3.463  0.00  0.00    +0.024 A 
ATOM     23  C   UNL     1      -0.879  -0.374  -2.277  0.00  0.00    +0.013 A 
BRANCH  18  25
ATOM     24  C   UNL     1       1.031  -0.383   1.075  0.00  0.00    +0.091 C 
ATOM     25  C   UNL     1       0.048  -0.000  -0.001  0.00  0.00    +0.160 C 
ATOM     26  O   UNL     1      -0.732   0.910   0.187  0.00  0.00    -0.292 OA
ENDBRANCH  18  25
ENDBRANCH  16  21
ENDBRANCH   1  16
TORSDOF 5
