REMARK  Name = ZINC11416287
REMARK  12 active torsions:
REMARK  status: ('A' for Active; 'I' for Inactive)
REMARK    1  A    between atoms: C_1  and  C_2
REMARK    2  A    between atoms: C_3  and  N_9
REMARK    3  A    between atoms: C_4  and  C_8
REMARK    4  A    between atoms: N_5  and  C_7
REMARK    5  A    between atoms: C_10  and  C_12
REMARK    6  A    between atoms: C_12  and  C_14
REMARK    7  A    between atoms: C_12  and  S_15
REMARK    8  A    between atoms: S_15  and  C_16
REMARK    9  A    between atoms: C_19  and  C_28
REMARK   10  A    between atoms: N_20  and  C_21
REMARK   11  A    between atoms: C_28  and  C_30
REMARK   12  A    between atoms: C_28  and  N_66
REMARK                            x       y       z     vdW  Elec       q    Type
REMARK                         _______ _______ _______ _____ _____    ______ ____
ROOT
ATOM      1  C   UNL     1      -1.018   2.517   5.811  0.00  0.00    +0.197 A 
ATOM      2  N   UNL     1      -1.473   3.422   4.976  0.00  0.00    -0.122 NA
ATOM      3  N   UNL     1      -0.928   3.268   3.823  0.00  0.00    -0.135 NA
ATOM      4  C   UNL     1      -0.105   2.258   3.847  0.00  0.00    +0.125 A 
ATOM      5  N   UNL     1      -0.129   1.744   5.116  0.00  0.00    -0.275 N 
ENDROOT
BRANCH   5   6
ATOM      6  C   UNL     1       0.605   0.651   5.602  0.00  0.00    +0.050 A 
ATOM      7  C   UNL     1       0.370  -0.622   5.103  0.00  0.00    +0.029 A 
ATOM      8  C   UNL     1       1.097  -1.695   5.579  0.00  0.00    +0.040 A 
ATOM      9  C   UNL     1       2.054  -1.503   6.561  0.00  0.00    +0.124 A 
ATOM     10  C   UNL     1       2.286  -0.234   7.065  0.00  0.00    +0.040 A 
ATOM     11  C   UNL     1       1.564   0.842   6.588  0.00  0.00    +0.029 A 
ATOM     12  F   UNL     1       2.761  -2.555   7.030  0.00  0.00    -0.205 F 
ENDBRANCH   5   6
BRANCH   4  13
ATOM     13  C   UNL     1       0.724   1.753   2.694  0.00  0.00    -0.002 C 
ATOM     14  C   UNL     1       1.859   2.740   2.412  0.00  0.00    -0.005 C 
BRANCH  13  20
ATOM     15  C   UNL     1      -1.201   0.654   1.720  0.00  0.00    -0.078 C 
ATOM     16  C   UNL     1      -2.144   0.656   0.515  0.00  0.00    -0.019 C 
ATOM     17  C   UNL     1      -1.354   0.295  -0.746  0.00  0.00    -0.004 C 
ATOM     18  C   UNL     1      -0.208   1.294  -0.925  0.00  0.00    -0.019 C 
ATOM     19  C   UNL     1       0.679   1.274   0.322  0.00  0.00    -0.078 C 
ATOM     20  N   UNL     1      -0.135   1.654   1.496  0.00  0.00    +0.386 N 
ATOM     21  H   UNL     1      -0.568   2.568   1.319  0.00  0.00    -0.081 HD
ENDBRANCH  13  20
ENDBRANCH   4  13
BRANCH   1  22
ATOM     22  S   UNL     1      -1.467   2.333   7.505  0.00  0.00    -0.073 S 
BRANCH  22  23
ATOM     23  C   UNL     1      -2.652   3.692   7.665  0.00  0.00    +0.137 C 
ATOM     24  C   UNL     1      -1.929   5.026   7.469  0.00  0.00    +0.029 C 
BRANCH  23  26
ATOM     25  N   UNL     1      -4.492   4.197   9.239  0.00  0.00    -0.282 N 
ATOM     26  C   UNL     1      -3.275   3.655   9.037  0.00  0.00    +0.230 C 
ATOM     27  O   UNL     1      -2.681   3.138   9.959  0.00  0.00    -0.274 OA
ATOM     28  H   UNL     1      -5.003   4.538   8.487  0.00  0.00    +0.155 HD
BRANCH  25  31
ATOM     29  C   UNL     1      -4.485   1.846  11.282  0.00  0.00    +0.069 C 
ATOM     30  C   UNL     1      -5.038   3.233  11.485  0.00  0.00    +0.081 A 
ATOM     31  C   UNL     1      -5.024   4.269  10.540  0.00  0.00    +0.077 A 
ATOM     32  C   UNL     1      -5.609   5.356  11.106  0.00  0.00    +0.057 A 
ATOM     33  N   UNL     1      -5.986   5.011  12.364  0.00  0.00    -0.270 N 
ATOM     34  N   UNL     1      -5.612   3.677  12.574  0.00  0.00    -0.175 NA
ATOM     35  C   UNL     1      -6.659   5.880  13.332  0.00  0.00    +0.172 C 
ATOM     36  C   UNL     1      -5.807   6.701  10.454  0.00  0.00    +0.067 C 
ENDBRANCH  25  31
ENDBRANCH  23  26
ENDBRANCH  22  23
ENDBRANCH   1  22
TORSDOF 7
