REMARK  Name = ZINC19898393
REMARK  7 active torsions:
REMARK  status: ('A' for Active; 'I' for Inactive)
REMARK    1  A    between atoms: C_1  and  C_2
REMARK    2  A    between atoms: C_2  and  O_3
REMARK    3  A    between atoms: O_3  and  C_4
REMARK    4  A    between atoms: C_4  and  C_6
REMARK    5  A    between atoms: C_6  and  C_21
REMARK    6  A    between atoms: C_7  and  C_8
REMARK    7  A    between atoms: C_7  and  N_20
REMARK                            x       y       z     vdW  Elec       q    Type
REMARK                         _______ _______ _______ _____ _____    ______ ____
ROOT
ATOM      1  C   UNL     1       1.468  -2.342  -2.501  0.00  0.00    +0.157 C 
ATOM      2  C   UNL     1       1.649  -3.722  -2.631  0.00  0.00    +0.063 C 
ENDROOT
BRANCH   2   3
ATOM      3  C   UNL     1       1.091  -4.633  -1.625  0.00  0.00    +0.082 A 
ATOM      4  C   UNL     1      -0.283  -4.774  -1.460  0.00  0.00    +0.028 A 
ATOM      5  C   UNL     1      -0.746  -5.649  -0.445  0.00  0.00    +0.019 A 
ATOM      6  C   UNL     1      -2.106  -5.985  -0.361  0.00  0.00    +0.026 A 
ATOM      7  C   UNL     1      -2.530  -6.863   0.595  0.00  0.00    +0.019 A 
ATOM      8  C   UNL     1      -1.628  -7.421   1.492  0.00  0.00    +0.019 A 
ATOM      9  C   UNL     1      -0.290  -7.089   1.440  0.00  0.00    +0.048 A 
ATOM     10  C   UNL     1       0.163  -6.194   0.481  0.00  0.00    +0.139 A 
ATOM     11  O   UNL     1       1.468  -5.827   0.448  0.00  0.00    -0.422 OA
ATOM     12  C   UNL     1       1.964  -5.441  -0.752  0.00  0.00    +0.346 A 
ATOM     13  O   UNL     1       3.091  -5.745  -1.097  0.00  0.00    -0.244 OA
ATOM     14 BR   UNL     1      -4.362  -7.323   0.700  0.00  0.00    -0.050 Br
ENDBRANCH   2   3
BRANCH   2  15
ATOM     15  N   UNL     1       2.347  -4.223  -3.696  0.00  0.00    -0.356 N 
ATOM     16  H   UNL     1       2.716  -3.621  -4.361  0.00  0.00    +0.142 HD
ATOM     17  H   UNL     1       2.473  -5.181  -3.786  0.00  0.00    +0.142 HD
ENDBRANCH   2  15
BRANCH   1  18
ATOM     18  C   UNL     1       0.848  -1.796  -1.295  0.00  0.00    +0.351 C 
ATOM     19  O   UNL     1       0.591  -2.529  -0.358  0.00  0.00    -0.244 OA
BRANCH  18  20
ATOM     20  O   UNL     1       0.561  -0.480  -1.221  0.00  0.00    -0.461 OA
BRANCH  20  22
ATOM     21  C   UNL     1      -0.294   1.491  -0.114  0.00  0.00    +0.048 C 
ATOM     22  C   UNL     1      -0.044  -0.015  -0.013  0.00  0.00    +0.229 C 
ENDBRANCH  20  22
ENDBRANCH  18  20
ENDBRANCH   1  18
BRANCH   1  23
ATOM     23  C   UNL     1       1.890  -1.463  -3.550  0.00  0.00    +0.108 C 
ATOM     24  N   UNL     1       2.225  -0.765  -4.382  0.00  0.00    -0.191 NA
ENDBRANCH   1  23
TORSDOF 6
