REMARK  Name = ZINC36109148
REMARK  6 active torsions:
REMARK  status: ('A' for Active; 'I' for Inactive)
REMARK    1  A    between atoms: C_7  and  C_11
REMARK    2  A    between atoms: C_11  and  C_12
REMARK    3  A    between atoms: C_12  and  C_14
REMARK    4  A    between atoms: C_12  and  N_20
REMARK    5  A    between atoms: N_16  and  C_17
REMARK    6  A    between atoms: C_21  and  C_23
REMARK                            x       y       z     vdW  Elec       q    Type
REMARK                         _______ _______ _______ _____ _____    ______ ____
ROOT
ATOM      1  C   UNL     1       0.236  -3.589  -1.455  0.00  0.00    +0.163 C 
ENDROOT
BRANCH   1   2
ATOM      2  C   UNL     1      -0.602  -4.842  -1.466  0.00  0.00    +0.234 C 
ATOM      3  O   UNL     1      -1.743  -4.805  -1.875  0.00  0.00    -0.274 OA
ATOM      4  N   UNL     1      -0.083  -6.003  -1.020  0.00  0.00    -0.311 N 
ATOM      5  H   UNL     1       0.830  -6.033  -0.693  0.00  0.00    +0.149 HD
BRANCH   4   6
ATOM      6  C   UNL     1      -0.897  -7.221  -1.031  0.00  0.00    +0.073 C 
ATOM      7  C   UNL     1      -0.842  -8.118   0.207  0.00  0.00    +0.024 C 
ATOM      8  C   UNL     1      -0.162  -8.562  -1.090  0.00  0.00    +0.024 C 
ENDBRANCH   4   6
ENDBRANCH   1   2
BRANCH   1   9
ATOM      9  N   UNL     1      -0.550  -2.472  -1.985  0.00  0.00    -0.303 N 
ATOM     10  C   UNL     1      -0.613  -2.263  -3.315  0.00  0.00    +0.217 C 
ATOM     11  O   UNL     1      -0.020  -3.001  -4.073  0.00  0.00    -0.275 OA
ATOM     12  H   UNL     1      -1.024  -1.882  -1.378  0.00  0.00    +0.149 HD
BRANCH  10  13
ATOM     13  C   UNL     1      -1.421  -1.114  -3.860  0.00  0.00    +0.075 C 
ATOM     14  C   UNL     1      -2.884  -1.275  -3.440  0.00  0.00    +0.013 C 
ATOM     15  C   UNL     1      -3.705  -0.108  -3.993  0.00  0.00    +0.001 C 
ATOM     16  C   UNL     1      -3.610  -0.097  -5.520  0.00  0.00    +0.000 C 
ATOM     17  C   UNL     1      -2.147   0.065  -5.940  0.00  0.00    +0.001 C 
ATOM     18  C   UNL     1      -1.327  -1.102  -5.387  0.00  0.00    +0.013 C 
ENDBRANCH  10  13
ENDBRANCH   1   9
BRANCH   1  19
ATOM     19  C   UNL     1       0.666  -3.275  -0.021  0.00  0.00    +0.069 C 
BRANCH  19  26
ATOM     20  C   UNL     1      -0.017   1.362   0.009  0.00  0.00    +0.001 A 
ATOM     21  C   UNL     1       1.170   2.083   0.002  0.00  0.00    +0.002 A 
ATOM     22  C   UNL     1       2.386   1.436  -0.013  0.00  0.00    +0.026 A 
ATOM     23  C   UNL     1       2.428   0.046  -0.021  0.00  0.00    +0.047 A 
ATOM     24  C   UNL     1       1.223  -0.681  -0.013  0.00  0.00    +0.003 A 
ATOM     25  C   UNL     1       0.002  -0.004   0.002  0.00  0.00    +0.010 A 
ATOM     26  C   UNL     1       1.604  -2.095  -0.025  0.00  0.00    -0.020 A 
ATOM     27  C   UNL     1       2.945  -2.141  -0.038  0.00  0.00    +0.087 A 
ATOM     28  N   UNL     1       3.455  -0.871  -0.036  0.00  0.00    -0.360 N 
ATOM     29  H   UNL     1       4.399  -0.650  -0.044  0.00  0.00    +0.165 HD
ENDBRANCH  19  26
ENDBRANCH   1  19
TORSDOF 6
