REMARK  Name = ZINC44950779
REMARK  5 active torsions:
REMARK  status: ('A' for Active; 'I' for Inactive)
REMARK    1  A    between atoms: C_4  and  N_7
REMARK    2  A    between atoms: C_10  and  C_13
REMARK    3  A    between atoms: C_13  and  N_14
REMARK    4  A    between atoms: N_17  and  C_18
REMARK    5  A    between atoms: C_18  and  C_19
REMARK                            x       y       z     vdW  Elec       q    Type
REMARK                         _______ _______ _______ _____ _____    ______ ____
ROOT
ATOM      1  N   UNL     1       7.114  -3.872   0.626  0.00  0.00    -0.299 N 
ATOM      2  C   UNL     1       7.822  -4.981   0.335  0.00  0.00    +0.300 C 
ATOM      3  O   UNL     1       7.347  -5.831  -0.394  0.00  0.00    -0.253 OA
ATOM      4  N   UNL     1       9.055  -5.148   0.851  0.00  0.00    -0.294 N 
ATOM      5  H   UNL     1       7.492  -3.194   1.208  0.00  0.00    +0.150 HD
ATOM      6  H   UNL     1       9.434  -4.470   1.433  0.00  0.00    +0.151 HD
ENDROOT
BRANCH   1   7
ATOM      7  C   UNL     1       5.773  -3.690   0.065  0.00  0.00    +0.110 C 
BRANCH   7  11
ATOM      8  N   UNL     1       3.620  -0.649  -0.036  0.00  0.00    -0.330 N 
ATOM      9  C   UNL     1       4.950  -0.023  -0.040  0.00  0.00    +0.105 C 
ATOM     10  C   UNL     1       5.992  -1.161  -0.031  0.00  0.00    +0.025 C 
ATOM     11  C   UNL     1       5.194  -2.359   0.549  0.00  0.00    +0.025 C 
ATOM     12  C   UNL     1       3.787  -2.114  -0.046  0.00  0.00    +0.110 C 
BRANCH   8  16
ATOM     13  C   UNL     1      -0.017   1.379   0.010  0.00  0.00    +0.000 A 
ATOM     14  C   UNL     1       1.169   2.089   0.002  0.00  0.00    +0.002 A 
ATOM     15  C   UNL     1       2.377   1.420  -0.013  0.00  0.00    +0.023 A 
ATOM     16  C   UNL     1       2.400   0.031  -0.021  0.00  0.00    +0.030 A 
ATOM     17  C   UNL     1       1.206  -0.680  -0.013  0.00  0.00    +0.023 A 
ATOM     18  C   UNL     1       0.002  -0.004   0.002  0.00  0.00    +0.002 A 
ENDBRANCH   8  16
ENDBRANCH   7  11
ENDBRANCH   1   7
BRANCH   4  19
ATOM     19  C   UNL     1       9.825  -6.354   0.534  0.00  0.00    +0.162 C 
BRANCH  19  20
ATOM     20  C   UNL     1      11.159  -6.296   1.232  0.00  0.00    +0.077 A 
ATOM     21  C   UNL     1      11.450  -6.859   2.425  0.00  0.00    +0.117 A 
ATOM     22  N   UNL     1      12.761  -6.575   2.697  0.00  0.00    -0.306 N 
ATOM     23  C   UNL     1      13.574  -6.886   3.748  0.00  0.00    +0.092 A 
ATOM     24  C   UNL     1      14.858  -6.473   3.770  0.00  0.00    +0.018 A 
ATOM     25  C   UNL     1      15.376  -5.713   2.707  0.00  0.00    +0.005 A 
ATOM     26  C   UNL     1      14.576  -5.396   1.653  0.00  0.00    +0.047 A 
ATOM     27  C   UNL     1      13.237  -5.836   1.646  0.00  0.00    +0.138 A 
ATOM     28  N   UNL     1      12.253  -5.684   0.771  0.00  0.00    -0.231 NA
ENDBRANCH  19  20
ENDBRANCH   4  19
TORSDOF 5
