REMARK  Name = ZINC06197973
REMARK  10 active torsions:
REMARK  status: ('A' for Active; 'I' for Inactive)
REMARK    1  A    between atoms: C_1  and  C_2
REMARK    2  A    between atoms: C_2  and  C_3
REMARK    3  A    between atoms: C_10  and  C_15
REMARK    4  A    between atoms: C_15  and  C_17
REMARK    5  A    between atoms: C_15  and  N_70
REMARK    6  A    between atoms: N_21  and  C_22
REMARK    7  A    between atoms: C_28  and  C_29
REMARK    8  A    between atoms: C_28  and  N_70
REMARK    9  A    between atoms: C_34  and  C_35
REMARK   10  A    between atoms: C_34  and  N_70
REMARK                            x       y       z     vdW  Elec       q    Type
REMARK                         _______ _______ _______ _____ _____    ______ ____
ROOT
ATOM      1  C   UNL     1       3.758   1.417  -0.446  0.00  0.00    +0.040 C 
ENDROOT
BRANCH   1   9
ATOM      2  C   UNL     1       7.293   0.307   4.510  0.00  0.00    -0.047 A 
ATOM      3  C   UNL     1       7.121   1.550   5.105  0.00  0.00    +0.005 A 
ATOM      4  C   UNL     1       6.338   2.513   4.508  0.00  0.00    +0.026 A 
ATOM      5  C   UNL     1       5.710   2.240   3.296  0.00  0.00    +0.049 A 
ATOM      6  C   UNL     1       5.886   0.979   2.696  0.00  0.00    -0.001 A 
ATOM      7  C   UNL     1       6.686   0.016   3.321  0.00  0.00    +0.013 A 
ATOM      8  C   UNL     1       5.217   0.698   1.425  0.00  0.00    +0.017 A 
ATOM      9  C   UNL     1       4.457   1.671   0.865  0.00  0.00    +0.011 A 
ATOM     10  C   UNL     1       4.312   2.919   1.508  0.00  0.00    +0.251 A 
ATOM     11  O   UNL     1       3.621   3.778   0.989  0.00  0.00    -0.268 OA
ATOM     12  N   UNL     1       4.919   3.184   2.678  0.00  0.00    -0.322 N 
ATOM     13  H   UNL     1       4.795   4.080   3.105  0.00  0.00    +0.169 HD
BRANCH   2  15
ATOM     14  C   UNL     1       9.599  -0.582   4.700  0.00  0.00    +0.009 C 
ATOM     15  C   UNL     1       8.155  -0.730   5.182  0.00  0.00    +0.032 C 
ENDBRANCH   2  15
ENDBRANCH   1   9
BRANCH   1  16
ATOM     16  C   UNL     1       2.266   1.483  -0.242  0.00  0.00    +0.143 A 
ATOM     17  N   UNL     1       1.574   2.531   0.132  0.00  0.00    -0.115 NA
ATOM     18  N   UNL     1       0.334   2.188   0.193  0.00  0.00    -0.023 NA
ATOM     19  N   UNL     1       0.217   0.947  -0.131  0.00  0.00    -0.044 NA
ATOM     20  N   UNL     1       1.387   0.478  -0.406  0.00  0.00    -0.227 N 
BRANCH  20  21
ATOM     21  C   UNL     1       1.699  -0.892  -0.820  0.00  0.00    +0.111 C 
ATOM     22  C   UNL     1       0.958  -1.214  -2.120  0.00  0.00    +0.027 C 
ATOM     23  C   UNL     1       1.284  -2.645  -2.553  0.00  0.00    +0.002 C 
ATOM     24  C   UNL     1       0.844  -3.621  -1.460  0.00  0.00    +0.000 C 
ATOM     25  C   UNL     1       1.585  -3.299  -0.160  0.00  0.00    +0.002 C 
ATOM     26  C   UNL     1       1.259  -1.868   0.272  0.00  0.00    +0.027 C 
ENDBRANCH  20  21
ENDBRANCH   1  16
BRANCH   1  27
ATOM     27  N   UNL     1       4.158   2.461  -1.412  0.00  0.00    +0.397 N 
ATOM     28  H   UNL     1       3.932   3.382  -1.020  0.00  0.00    -0.079 HD
BRANCH  27  29
ATOM     29  C   UNL     1       3.419   2.285  -2.681  0.00  0.00    -0.001 C 
BRANCH  29  30
ATOM     30  C   UNL     1       2.070   2.942  -2.546  0.00  0.00    +0.089 A 
ATOM     31  C   UNL     1       1.813   4.253  -2.708  0.00  0.00    +0.042 A 
ATOM     32  C   UNL     1       0.427   4.429  -2.491  0.00  0.00    +0.041 A 
ATOM     33  C   UNL     1      -0.081   3.215  -2.210  0.00  0.00    +0.195 A 
ATOM     34  O   UNL     1       0.918   2.318  -2.250  0.00  0.00    -0.470 OA
ENDBRANCH  29  30
ENDBRANCH  27  29
BRANCH  27  35
ATOM     35  C   UNL     1       5.613   2.389  -1.661  0.00  0.00    -0.034 C 
BRANCH  35  36
ATOM     36  C   UNL     1       6.323   3.183  -0.596  0.00  0.00    -0.027 A 
ATOM     37  C   UNL     1       7.120   2.743   0.409  0.00  0.00    +0.009 A 
ATOM     38  C   UNL     1       7.671   3.664   1.279  0.00  0.00    +0.008 A 
ATOM     39  C   UNL     1       7.399   4.980   1.103  0.00  0.00    +0.045 A 
ATOM     40  S   UNL     1       6.339   4.949  -0.333  0.00  0.00    -0.103 S 
ENDBRANCH  35  36
ENDBRANCH  27  35
ENDBRANCH   1  27
TORSDOF 9
