REMARK  Name = ZINC36556075
REMARK  21 active torsions:
REMARK  status: ('A' for Active; 'I' for Inactive)
REMARK    1  A    between atoms: C_1  and  C_2
REMARK    2  A    between atoms: C_5  and  C_7
REMARK    3  A    between atoms: C_7  and  N_8
REMARK    4  A    between atoms: N_8  and  C_9
REMARK    5  A    between atoms: C_9  and  C_11
REMARK    6  A    between atoms: C_9  and  C_20
REMARK    7  A    between atoms: C_12  and  O_19
REMARK    8  A    between atoms: C_14  and  O_18
REMARK    9  A    between atoms: C_16  and  O_17
REMARK   10  A    between atoms: N_22  and  C_23
REMARK   11  A    between atoms: C_23  and  C_24
REMARK   12  A    between atoms: C_23  and  C_25
REMARK   13  A    between atoms: C_23  and  C_26
REMARK   14  A    between atoms: C_26  and  C_27
REMARK   15  A    between atoms: C_27  and  C_28
REMARK   16  A    between atoms: C_27  and  C_29
REMARK   17  A    between atoms: C_27  and  C_30
REMARK   18  A    between atoms: C_31  and  C_33
REMARK   19  A    between atoms: C_33  and  C_34
REMARK   20  A    between atoms: C_34  and  C_35
REMARK   21  A    between atoms: C_34  and  C_36
REMARK                            x       y       z     vdW  Elec       q    Type
REMARK                         _______ _______ _______ _____ _____    ______ ____
ROOT
ATOM      1  C   UNL     1       3.337  -3.308  -2.085  0.00  0.00    +0.200 C 
ENDROOT
BRANCH   1   2
ATOM      2  C   UNL     1       3.472  -2.345  -3.236  0.00  0.00    +0.065 A 
ATOM      3  C   UNL     1       3.975  -1.071  -3.019  0.00  0.00    +0.129 A 
ATOM      4  C   UNL     1       4.100  -0.185  -4.079  0.00  0.00    +0.091 A 
ATOM      5  C   UNL     1       3.721  -0.572  -5.355  0.00  0.00    +0.124 A 
ATOM      6  C   UNL     1       3.218  -1.846  -5.572  0.00  0.00    +0.091 A 
ATOM      7  C   UNL     1       3.098  -2.734  -4.514  0.00  0.00    +0.129 A 
BRANCH   7   8
ATOM      8  O   UNL     1       2.609  -3.984  -4.728  0.00  0.00    -0.506 OA
ATOM      9  H   UNL     1       1.649  -4.051  -4.639  0.00  0.00    +0.292 HD
ENDBRANCH   7   8
BRANCH   5  10
ATOM     10  O   UNL     1       3.842   0.297  -6.393  0.00  0.00    -0.507 OA
ATOM     11  H   UNL     1       4.695   0.252  -6.846  0.00  0.00    +0.292 HD
ENDBRANCH   5  10
BRANCH   3  12
ATOM     12  O   UNL     1       4.347  -0.691  -1.768  0.00  0.00    -0.506 OA
ATOM     13  H   UNL     1       5.289  -0.807  -1.586  0.00  0.00    +0.292 HD
ENDBRANCH   3  12
ENDBRANCH   1   2
BRANCH   1  14
ATOM     14  C   UNL     1       4.479  -4.291  -2.116  0.00  0.00    +0.239 C 
ATOM     15  O   UNL     1       4.261  -5.467  -2.319  0.00  0.00    -0.273 OA
ATOM     16  N   UNL     1       5.741  -3.864  -1.918  0.00  0.00    -0.308 N 
ATOM     17  H   UNL     1       5.915  -2.923  -1.756  0.00  0.00    +0.149 HD
BRANCH  16  18
ATOM     18  C   UNL     1       6.851  -4.819  -1.948  0.00  0.00    +0.030 C 
ATOM     19  C   UNL     1       6.807  -5.692  -0.692  0.00  0.00    +0.031 C 
ATOM     20  C   UNL     1       6.728  -5.705  -3.189  0.00  0.00    +0.031 C 
BRANCH  18  21
ATOM     21  C   UNL     1       8.178  -4.058  -1.994  0.00  0.00    +0.031 C 
BRANCH  21  22
ATOM     22  C   UNL     1       8.055  -2.876  -2.957  0.00  0.00    -0.036 C 
ATOM     23  C   UNL     1       7.396  -1.698  -2.236  0.00  0.00    +0.010 C 
ATOM     24  C   UNL     1       9.447  -2.464  -3.440  0.00  0.00    +0.010 C 
ATOM     25  C   UNL     1       7.198  -3.283  -4.158  0.00  0.00    +0.010 C 
ENDBRANCH  21  22
ENDBRANCH  18  21
ENDBRANCH  16  18
ENDBRANCH   1  14
BRANCH   1  26
ATOM     26  N   UNL     1       2.067  -4.030  -2.199  0.00  0.00    -0.278 N 
ATOM     27  C   UNL     1       0.917  -3.434  -1.829  0.00  0.00    +0.217 C 
ATOM     28  O   UNL     1       0.921  -2.272  -1.480  0.00  0.00    -0.276 OA
BRANCH  26  29
ATOM     29  C   UNL     1       2.048  -5.401  -2.716  0.00  0.00    +0.183 C 
BRANCH  29  34
ATOM     30  C   UNL     1       3.938  -8.463   0.818  0.00  0.00    +0.086 C 
ATOM     31  C   UNL     1       2.950  -7.704  -0.030  0.00  0.00    +0.102 A 
ATOM     32  C   UNL     1       1.611  -7.748   0.091  0.00  0.00    +0.045 A 
ATOM     33  C   UNL     1       1.082  -6.890  -0.900  0.00  0.00    +0.046 A 
ATOM     34  C   UNL     1       2.129  -6.372  -1.567  0.00  0.00    +0.122 A 
ATOM     35  O   UNL     1       3.258  -6.865  -1.033  0.00  0.00    -0.463 OA
ENDBRANCH  29  34
ENDBRANCH  26  29
BRANCH  27  36
ATOM     36  C   UNL     1      -0.374  -4.211  -1.847  0.00  0.00    +0.099 C 
BRANCH  36  37
ATOM     37  C   UNL     1      -1.493  -3.355  -1.248  0.00  0.00    -0.008 C 
ATOM     38  C   UNL     1      -2.793  -4.161  -1.222  0.00  0.00    +0.008 C 
ATOM     39  C   UNL     1      -1.116  -2.948   0.178  0.00  0.00    +0.008 C 
ENDBRANCH  36  37
ENDBRANCH  27  36
ENDBRANCH   1  26
TORSDOF 13
