REMARK  Name = ZINC03434404
REMARK  10 active torsions:
REMARK  status: ('A' for Active; 'I' for Inactive)
REMARK    1  A    between atoms: C_1  and  C_2
REMARK    2  A    between atoms: C_2  and  C_4
REMARK    3  A    between atoms: C_2  and  O_18
REMARK    4  A    between atoms: C_4  and  C_6
REMARK    5  A    between atoms: C_6  and  C_16
REMARK    6  A    between atoms: O_18  and  C_19
REMARK    7  A    between atoms: C_19  and  C_21
REMARK    8  A    between atoms: C_25  and  S_27
REMARK    9  A    between atoms: S_27  and  N_30
REMARK   10  A    between atoms: N_30  and  C_31
REMARK                            x       y       z     vdW  Elec       q    Type
REMARK                         _______ _______ _______ _____ _____    ______ ____
ROOT
ATOM      1  C   UNL     1      -4.072  -0.285  -5.380  0.00  0.00    +0.340 C 
ATOM      2  O   UNL     1      -4.594  -1.246  -4.851  0.00  0.00    -0.245 OA
ENDROOT
BRANCH   1   3
ATOM      3  C   UNL     1      -3.669   0.878  -4.563  0.00  0.00    +0.061 A 
ATOM      4  C   UNL     1      -3.070   1.986  -5.167  0.00  0.00    +0.015 A 
ATOM      5  C   UNL     1      -2.696   3.068  -4.399  0.00  0.00    +0.003 A 
ATOM      6  C   UNL     1      -2.919   3.061  -3.033  0.00  0.00    +0.029 A 
ATOM      7  C   UNL     1      -3.508   1.966  -2.427  0.00  0.00    +0.109 A 
ATOM      8  C   UNL     1      -3.886   0.876  -3.184  0.00  0.00    +0.043 A 
BRANCH   7   9
ATOM      9  S   UNL     1      -3.781   1.965  -0.686  0.00  0.00    +0.072 S 
ATOM     10  O   UNL     1      -4.846   1.055  -0.443  0.00  0.00    -0.150 OA
ATOM     11  O   UNL     1      -3.835   3.326  -0.283  0.00  0.00    -0.150 OA
BRANCH   9  12
ATOM     12  N   UNL     1      -2.433   1.314   0.021  0.00  0.00    -0.213 N 
ATOM     13  H   UNL     1      -2.506   0.507   0.554  0.00  0.00    +0.174 HD
BRANCH  12  14
ATOM     14  C   UNL     1      -1.188   1.928  -0.151  0.00  0.00    +0.083 A 
ATOM     15  C   UNL     1      -1.098   3.312  -0.219  0.00  0.00    +0.027 A 
ATOM     16  C   UNL     1       0.132   3.915  -0.395  0.00  0.00    +0.002 A 
ATOM     17  C   UNL     1       1.275   3.143  -0.498  0.00  0.00    +0.003 A 
ATOM     18  C   UNL     1       1.191   1.765  -0.426  0.00  0.00    +0.040 A 
ATOM     19  C   UNL     1      -0.037   1.154  -0.251  0.00  0.00    +0.146 A 
ATOM     20  F   UNL     1      -0.119  -0.193  -0.181  0.00  0.00    -0.204 F 
ENDBRANCH  12  14
ENDBRANCH   9  12
ENDBRANCH   7   9
ENDBRANCH   1   3
BRANCH   1  21
ATOM     21  O   UNL     1      -3.862  -0.279  -6.710  0.00  0.00    -0.450 OA
BRANCH  21  23
ATOM     22  C   UNL     1      -3.132  -2.462  -7.506  0.00  0.00    +0.061 C 
ATOM     23  C   UNL     1      -4.283  -1.455  -7.449  0.00  0.00    +0.245 C 
BRANCH  23  24
ATOM     24  C   UNL     1      -4.671  -1.056  -8.850  0.00  0.00    +0.216 C 
ATOM     25  O   UNL     1      -4.273  -0.006  -9.315  0.00  0.00    -0.287 OA
BRANCH  24  26
ATOM     26  C   UNL     1      -5.491  -1.899  -9.619  0.00  0.00    +0.133 C 
ATOM     27  C   UNL     1      -5.853  -1.527 -10.926  0.00  0.00    +0.114 C 
ATOM     28  N   UNL     1      -5.478  -0.380 -11.550  0.00  0.00    -0.300 N 
ATOM     29  C   UNL     1      -6.029  -0.377 -12.825  0.00  0.00    +0.054 A 
ATOM     30  C   UNL     1      -5.976   0.526 -13.879  0.00  0.00    +0.025 A 
ATOM     31  C   UNL     1      -6.649   0.253 -15.053  0.00  0.00    +0.002 A 
ATOM     32  C   UNL     1      -7.377  -0.918 -15.185  0.00  0.00    +0.002 A 
ATOM     33  C   UNL     1      -7.437  -1.822 -14.143  0.00  0.00    +0.025 A 
ATOM     34  C   UNL     1      -6.764  -1.557 -12.958  0.00  0.00    +0.054 A 
ATOM     35  N   UNL     1      -6.638  -2.254 -11.762  0.00  0.00    -0.300 N 
ATOM     36  H   UNL     1      -4.918   0.316 -11.170  0.00  0.00    +0.153 HD
ATOM     37  H   UNL     1      -7.040  -3.113 -11.560  0.00  0.00    +0.153 HD
BRANCH  26  38
ATOM     38  C   UNL     1      -5.959  -3.137  -9.072  0.00  0.00    +0.106 C 
ATOM     39  N   UNL     1      -6.331  -4.119  -8.637  0.00  0.00    -0.191 NA
ENDBRANCH  26  38
ENDBRANCH  24  26
ENDBRANCH  23  24
ENDBRANCH  21  23
ENDBRANCH   1  21
TORSDOF 9
