REMARK  Name = ZINC23666903
REMARK  6 active torsions:
REMARK  status: ('A' for Active; 'I' for Inactive)
REMARK    1  A    between atoms: C_1  and  C_2
REMARK    2  A    between atoms: C_6  and  C_8
REMARK    3  A    between atoms: C_8  and  C_10
REMARK    4  A    between atoms: C_8  and  N_24
REMARK    5  A    between atoms: C_16  and  C_18
REMARK    6  A    between atoms: C_27  and  C_30
REMARK                            x       y       z     vdW  Elec       q    Type
REMARK                         _______ _______ _______ _____ _____    ______ ____
ROOT
ATOM      1  C   UNL     1      -8.386   0.319   0.038  0.00  0.00    +0.006 C 
ENDROOT
BRANCH   1   2
ATOM      2  C   UNL     1      -6.881   0.400   0.032  0.00  0.00    +0.050 A 
ATOM      3  C   UNL     1      -6.094   1.482   0.036  0.00  0.00    +0.282 A 
ATOM      4  N   UNL     1      -4.726   1.354   0.029  0.00  0.00    -0.169 N 
ATOM      5  C   UNL     1      -4.219   0.084   0.020  0.00  0.00    +0.200 A 
ATOM      6  S   UNL     1      -5.682  -0.924   0.020  0.00  0.00    -0.050 S 
ATOM      7  N   UNL     1      -2.916   0.130   0.009  0.00  0.00    -0.197 NA
ATOM      8  C   UNL     1      -2.518   1.410   0.020  0.00  0.00    +0.218 A 
ATOM      9  N   UNL     1      -3.579   2.189   0.029  0.00  0.00    -0.138 NA
ATOM     10  O   UNL     1      -6.654   2.721   0.045  0.00  0.00    -0.265 OA
BRANCH   8  11
ATOM     11  C   UNL     1      -1.115   1.872   0.017  0.00  0.00    +0.173 A 
ATOM     12  C   UNL     1      -0.013   1.076   0.008  0.00  0.00    +0.053 A 
ATOM     13  C   UNL     1       1.107   1.932   0.002  0.00  0.00    +0.042 A 
ATOM     14  C   UNL     1       0.638   3.195   0.013  0.00  0.00    +0.196 A 
ATOM     15  O   UNL     1      -0.705   3.155   0.026  0.00  0.00    -0.460 OA
ENDBRANCH   8  11
ENDBRANCH   1   2
BRANCH   1  16
ATOM     16  N   UNL     1      -8.826  -0.679  -0.946  0.00  0.00    +0.387 N 
ATOM     17  C   UNL     1     -10.265  -0.944  -0.818  0.00  0.00    -0.077 C 
ATOM     18  C   UNL     1     -10.659  -2.089  -1.755  0.00  0.00    -0.015 C 
ATOM     19  C   UNL     1     -10.318  -1.702  -3.196  0.00  0.00    -0.018 C 
ATOM     20  C   UNL     1      -8.823  -1.385  -3.292  0.00  0.00    -0.015 C 
ATOM     21  C   UNL     1      -8.482  -0.261  -2.311  0.00  0.00    -0.077 C 
ATOM     22  C   UNL     1     -10.653  -2.867  -4.131  0.00  0.00    +0.007 C 
ATOM     23  H   UNL     1      -8.292  -1.618  -0.739  0.00  0.00    -0.080 HD
ENDBRANCH   1  16
BRANCH   1  29
ATOM     24  C   UNL     1     -10.293   1.552   4.497  0.00  0.00    +0.044 C 
ATOM     25  C   UNL     1      -9.775   0.507   3.543  0.00  0.00    -0.050 A 
ATOM     26  C   UNL     1      -9.737  -0.821   3.926  0.00  0.00    +0.003 A 
ATOM     27  C   UNL     1      -9.262  -1.780   3.051  0.00  0.00    +0.000 A 
ATOM     28  C   UNL     1      -8.829  -1.411   1.791  0.00  0.00    +0.002 A 
ATOM     29  C   UNL     1      -8.862  -0.083   1.410  0.00  0.00    -0.056 A 
ATOM     30  C   UNL     1      -9.337   0.876   2.285  0.00  0.00    +0.005 A 
ENDBRANCH   1  29
TORSDOF 4
