REMARK  Name = ZINC21092816
REMARK  7 active torsions:
REMARK  status: ('A' for Active; 'I' for Inactive)
REMARK    1  A    between atoms: C_1  and  C_2
REMARK    2  A    between atoms: C_3  and  C_7
REMARK    3  A    between atoms: C_10  and  S_13
REMARK    4  A    between atoms: N_11  and  N_12
REMARK    5  A    between atoms: S_13  and  C_14
REMARK    6  A    between atoms: C_14  and  C_15
REMARK    7  A    between atoms: C_15  and  N_16
REMARK                            x       y       z     vdW  Elec       q    Type
REMARK                         _______ _______ _______ _____ _____    ______ ____
ROOT
ATOM      1  C   UNL     1      -1.703   2.254   5.931  0.00  0.00    +0.185 A 
ATOM      2  N   UNL     1      -2.430   2.752   4.958  0.00  0.00    -0.127 NA
ATOM      3  N   UNL     1      -1.936   2.411   3.822  0.00  0.00    -0.121 NA
ATOM      4  C   UNL     1      -0.864   1.675   3.998  0.00  0.00    +0.209 A 
ATOM      5  N   UNL     1      -0.680   1.544   5.347  0.00  0.00    -0.224 N 
ENDROOT
BRANCH   1   8
ATOM      6  C   UNL     1      -4.037   3.874   7.256  0.00  0.00    +0.087 C 
ATOM      7  C   UNL     1      -2.947   3.119   7.973  0.00  0.00    +0.112 A 
ATOM      8  C   UNL     1      -1.941   2.420   7.381  0.00  0.00    +0.061 A 
ATOM      9  C   UNL     1      -1.138   1.871   8.480  0.00  0.00    +0.053 A 
ATOM     10  C   UNL     1      -1.731   2.280   9.614  0.00  0.00    +0.196 A 
ATOM     11  O   UNL     1      -2.807   3.019   9.303  0.00  0.00    -0.467 OA
ENDBRANCH   1   8
BRANCH   5  12
ATOM     12  N   UNL     1       0.314   0.854   5.981  0.00  0.00    -0.295 N 
ATOM     13  H   UNL     1       1.077   0.324   5.394  0.00  0.00    +0.163 HD
ATOM     14  H   UNL     1       0.350   0.829   7.081  0.00  0.00    +0.163 HD
ENDBRANCH   5  12
BRANCH   4  15
ATOM     15  S   UNL     1       0.147   0.980   2.733  0.00  0.00    -0.083 S 
BRANCH  15  16
ATOM     16  C   UNL     1      -0.729   1.579   1.267  0.00  0.00    +0.097 C 
BRANCH  16  17
ATOM     17  C   UNL     1      -0.013   1.086   0.008  0.00  0.00    +0.128 C 
BRANCH  17  18
ATOM     18  N   UNL     1      -0.721   1.571  -1.179  0.00  0.00    -0.233 N 
ATOM     19  C   UNL     1      -1.714   0.906  -1.798  0.00  0.00    +0.254 C 
ATOM     20  O   UNL     1      -2.158  -0.174  -1.466  0.00  0.00    -0.270 OA
ATOM     21  C   UNL     1      -2.175   1.713  -2.947  0.00  0.00    +0.049 A 
ATOM     22  C   UNL     1      -3.146   1.542  -3.921  0.00  0.00    +0.014 A 
ATOM     23  C   UNL     1      -3.326   2.517  -4.890  0.00  0.00    +0.001 A 
ATOM     24  C   UNL     1      -2.544   3.657  -4.891  0.00  0.00    +0.001 A 
ATOM     25  C   UNL     1      -1.569   3.841  -3.923  0.00  0.00    +0.014 A 
ATOM     26  C   UNL     1      -1.377   2.875  -2.949  0.00  0.00    +0.049 A 
ATOM     27  C   UNL     1      -0.461   2.737  -1.797  0.00  0.00    +0.254 C 
ATOM     28  O   UNL     1       0.384   3.543  -1.464  0.00  0.00    -0.270 OA
ENDBRANCH  17  18
ENDBRANCH  16  17
ENDBRANCH  15  16
ENDBRANCH   4  15
TORSDOF 6
