REMARK  Name = ZINC39556794
REMARK  12 active torsions:
REMARK  status: ('A' for Active; 'I' for Inactive)
REMARK    1  A    between atoms: C_1  and  C_2
REMARK    2  A    between atoms: C_2  and  C_3
REMARK    3  A    between atoms: N_9  and  C_26
REMARK    4  A    between atoms: C_11  and  C_12
REMARK    5  A    between atoms: N_16  and  C_25
REMARK    6  A    between atoms: N_19  and  C_20
REMARK    7  A    between atoms: C_20  and  C_21
REMARK    8  A    between atoms: C_21  and  O_23
REMARK    9  A    between atoms: O_23  and  C_24
REMARK   10  A    between atoms: C_26  and  C_27
REMARK   11  A    between atoms: N_29  and  C_30
REMARK   12  A    between atoms: C_30  and  C_31
REMARK                            x       y       z     vdW  Elec       q    Type
REMARK                         _______ _______ _______ _____ _____    ______ ____
ROOT
ATOM      1  C   UNL     1      -4.144   3.947  -1.028  0.00  0.00    -0.024 A 
ATOM      2  C   UNL     1      -5.107   4.763  -1.582  0.00  0.00    +0.005 A 
ATOM      3  C   UNL     1      -6.135   4.227  -2.344  0.00  0.00    +0.001 A 
ATOM      4  C   UNL     1      -6.205   2.868  -2.557  0.00  0.00    +0.010 A 
ATOM      5  C   UNL     1      -5.239   2.032  -2.005  0.00  0.00    +0.007 A 
ATOM      6  C   UNL     1      -4.195   2.573  -1.237  0.00  0.00    +0.053 A 
ATOM      7  N   UNL     1      -3.393   1.527  -0.829  0.00  0.00    -0.337 N 
ATOM      8  C   UNL     1      -3.874   0.349  -1.304  0.00  0.00    +0.095 A 
ATOM      9  C   UNL     1      -5.011   0.575  -2.028  0.00  0.00    +0.002 A 
ENDROOT
BRANCH   9  10
ATOM     10  C   UNL     1      -5.831  -0.430  -2.706  0.00  0.00    +0.038 C 
ATOM     11  C   UNL     1      -5.605  -0.721  -4.017  0.00  0.00    +0.099 C 
ATOM     12  C   UNL     1      -6.510  -1.334  -4.925  0.00  0.00    +0.266 C 
ATOM     13  O   UNL     1      -7.644  -1.704  -4.679  0.00  0.00    -0.268 OA
ATOM     14  N   UNL     1      -5.875  -1.430  -6.110  0.00  0.00    -0.251 N 
ATOM     15  C   UNL     1      -4.638  -0.918  -6.001  0.00  0.00    +0.147 C 
ATOM     16  S   UNL     1      -3.492  -0.839  -7.271  0.00  0.00    -0.018 S 
ATOM     17  N   UNL     1      -4.435  -0.471  -4.748  0.00  0.00    -0.267 N 
ATOM     18  C   UNL     1      -6.447  -2.004  -7.330  0.00  0.00    +0.140 C 
BRANCH  17  19
ATOM     19  C   UNL     1      -3.214   0.159  -4.239  0.00  0.00    +0.233 C 
BRANCH  19  20
ATOM     20  C   UNL     1      -2.049  -0.779  -4.429  0.00  0.00    +0.325 C 
ATOM     21  O   UNL     1      -2.236  -1.897  -4.848  0.00  0.00    -0.249 OA
BRANCH  20  22
ATOM     22  O   UNL     1      -0.805  -0.373  -4.132  0.00  0.00    -0.467 OA
ATOM     23  C   UNL     1       0.262  -1.273  -4.439  0.00  0.00    +0.280 C 
ENDBRANCH  20  22
ENDBRANCH  19  20
ENDBRANCH  17  19
ENDBRANCH   9  10
BRANCH   1  25
ATOM     24  C   UNL     1      -1.810   4.782  -1.091  0.00  0.00    +0.009 C 
ATOM     25  C   UNL     1      -3.033   4.544  -0.203  0.00  0.00    +0.034 C 
ENDBRANCH   1  25
BRANCH   7  26
ATOM     26  C   UNL     1      -2.193   1.667  -0.001  0.00  0.00    +0.217 C 
BRANCH  26  27
ATOM     27  C   UNL     1      -2.584   1.659   1.455  0.00  0.00    +0.233 C 
ATOM     28  O   UNL     1      -3.736   1.450   1.772  0.00  0.00    -0.274 OA
ATOM     29  N   UNL     1      -1.653   1.885   2.403  0.00  0.00    -0.311 N 
ATOM     30  H   UNL     1      -0.746   2.114   2.148  0.00  0.00    +0.149 HD
BRANCH  29  31
ATOM     31  C   UNL     1      -2.012   1.785   3.820  0.00  0.00    +0.135 C 
BRANCH  31  32
ATOM     32  C   UNL     1      -0.818   2.205   4.680  0.00  0.00    +0.135 C 
ATOM     33  C   UNL     1      -1.146   1.988   6.173  0.00  0.00    +0.035 C 
ATOM     34  C   UNL     1      -0.499   3.234   6.836  0.00  0.00    +0.031 C 
ATOM     35  C   UNL     1      -0.721   4.302   5.735  0.00  0.00    +0.160 C 
ATOM     36  O   UNL     1      -0.551   3.599   4.492  0.00  0.00    -0.375 OA
ENDBRANCH  31  32
ENDBRANCH  29  31
ENDBRANCH  26  27
ENDBRANCH   7  26
TORSDOF 9
