REMARK  Name = ZINC19200914
REMARK  10 active torsions:
REMARK  status: ('A' for Active; 'I' for Inactive)
REMARK    1  A    between atoms: C_1  and  C_2
REMARK    2  A    between atoms: C_2  and  C_3
REMARK    3  A    between atoms: C_3  and  N_4
REMARK    4  A    between atoms: N_4  and  C_5
REMARK    5  A    between atoms: C_6  and  N_21
REMARK    6  A    between atoms: N_7  and  C_14
REMARK    7  A    between atoms: C_14  and  C_15
REMARK    8  A    between atoms: C_22  and  C_24
REMARK    9  A    between atoms: C_24  and  C_25
REMARK   10  A    between atoms: C_25  and  N_26
REMARK                            x       y       z     vdW  Elec       q    Type
REMARK                         _______ _______ _______ _____ _____    ______ ____
ROOT
ATOM      1  N   UNL     1      -2.497   9.034  -2.449  0.00  0.00    -0.264 N 
ATOM      2  C   UNL     1      -1.938   8.698  -1.268  0.00  0.00    +0.222 C 
ATOM      3  O   UNL     1      -2.215   9.322  -0.265  0.00  0.00    -0.275 OA
ENDROOT
BRANCH   1   4
ATOM      4  C   UNL     1      -3.476  10.049  -2.502  0.00  0.00    +0.140 A 
ATOM      5  C   UNL     1      -4.681   9.896  -1.848  0.00  0.00    +0.128 A 
ATOM      6  N   UNL     1      -5.615  10.904  -1.915  0.00  0.00    -0.276 N 
ATOM      7  C   UNL     1      -5.359  12.023  -2.618  0.00  0.00    +0.331 A 
ATOM      8  O   UNL     1      -6.199  12.901  -2.668  0.00  0.00    -0.246 OA
ATOM      9  N   UNL     1      -4.192  12.187  -3.265  0.00  0.00    -0.273 N 
ATOM     10  H   UNL     1      -4.004  13.110  -3.834  0.00  0.00    +0.173 HD
ATOM     11  C   UNL     1      -3.242  11.232  -3.228  0.00  0.00    +0.277 A 
ATOM     12  O   UNL     1      -2.187  11.392  -3.818  0.00  0.00    -0.266 OA
BRANCH   5  13
ATOM     13  N   UNL     1      -4.945   8.751  -1.135  0.00  0.00    -0.343 N 
ATOM     14  H   UNL     1      -5.908   8.635  -0.616  0.00  0.00    +0.144 HD
ATOM     15  H   UNL     1      -4.192   7.950  -1.083  0.00  0.00    +0.144 HD
ENDBRANCH   5  13
BRANCH   6  16
ATOM     16  C   UNL     1      -6.897  10.757  -1.222  0.00  0.00    +0.163 C 
BRANCH  16  17
ATOM     17  C   UNL     1      -7.895  10.105  -2.144  0.00  0.00    -0.028 A 
ATOM     18  C   UNL     1      -8.694  10.885  -2.959  0.00  0.00    +0.005 A 
ATOM     19  C   UNL     1      -9.606  10.288  -3.808  0.00  0.00    +0.000 A 
ATOM     20  C   UNL     1      -9.726   8.911  -3.836  0.00  0.00    +0.000 A 
ATOM     21  C   UNL     1      -8.931   8.131  -3.018  0.00  0.00    +0.000 A 
ATOM     22  C   UNL     1      -8.015   8.729  -2.172  0.00  0.00    +0.005 A 
ENDBRANCH  16  17
ENDBRANCH   6  16
ENDBRANCH   1   4
BRANCH   1  23
ATOM     23  C   UNL     1      -2.087   8.347  -3.676  0.00  0.00    +0.113 C 
BRANCH  23  25
ATOM     24  C   UNL     1      -2.575   6.428  -5.199  0.00  0.00    +0.005 C 
ATOM     25  C   UNL     1      -3.003   7.146  -3.918  0.00  0.00    +0.016 C 
ENDBRANCH  23  25
ENDBRANCH   1  23
BRANCH   2  26
ATOM     26  C   UNL     1      -0.969   7.546  -1.194  0.00  0.00    +0.118 C 
BRANCH  26  27
ATOM     27  C   UNL     1      -0.486   7.377   0.248  0.00  0.00    +0.138 C 
BRANCH  27  28
ATOM     28  N   UNL     1       0.455   6.257   0.320  0.00  0.00    -0.274 N 
ATOM     29  C   UNL     1       0.133   4.921   0.564  0.00  0.00    +0.090 A 
ATOM     30  C   UNL     1      -1.062   4.259   0.798  0.00  0.00    +0.031 A 
ATOM     31  C   UNL     1      -1.062   2.893   1.006  0.00  0.00    +0.022 A 
ATOM     32  C   UNL     1       0.130   2.188   0.992  0.00  0.00    +0.045 A 
ATOM     33  C   UNL     1       1.325   2.842   0.759  0.00  0.00    +0.068 A 
ATOM     34  C   UNL     1       1.333   4.211   0.544  0.00  0.00    +0.158 A 
ATOM     35  O   UNL     1       2.324   5.103   0.296  0.00  0.00    -0.407 OA
ATOM     36  C   UNL     1       1.792   6.328   0.162  0.00  0.00    +0.421 A 
ATOM     37  O   UNL     1       2.419   7.345  -0.065  0.00  0.00    -0.223 OA
ATOM     38 CL   UNL     1       0.122   0.473   1.262  0.00  0.00    -0.083 Cl
ENDBRANCH  27  28
ENDBRANCH  26  27
ENDBRANCH   2  26
TORSDOF 9
