REMARK  Name = ZINC63165452
REMARK  6 active torsions:
REMARK  status: ('A' for Active; 'I' for Inactive)
REMARK    1  A    between atoms: C_1  and  C_2
REMARK    2  A    between atoms: C_5  and  N_8
REMARK    3  A    between atoms: C_9  and  C_26
REMARK    4  A    between atoms: C_13  and  S_15
REMARK    5  A    between atoms: S_15  and  C_16
REMARK    6  A    between atoms: C_16  and  C_17
REMARK                            x       y       z     vdW  Elec       q    Type
REMARK                         _______ _______ _______ _____ _____    ______ ____
ROOT
ATOM      1  N   UNL     1      -0.150  -4.320  -0.086  0.00  0.00    -0.281 N 
ATOM      2  C   UNL     1       0.173  -5.057   1.153  0.00  0.00    +0.225 C 
ATOM      3  N   UNL     1      -0.246  -6.454   0.868  0.00  0.00    -0.228 NA
ATOM      4  N   UNL     1       0.123  -6.628  -0.546  0.00  0.00    -0.225 NA
ATOM      5  C   UNL     1      -0.188  -5.320  -1.168  0.00  0.00    +0.217 C 
ATOM      6  H   UNL     1       0.252  -7.107   1.454  0.00  0.00    +0.143 HD
ATOM      7  H   UNL     1       1.102  -6.853  -0.639  0.00  0.00    +0.143 HD
ENDROOT
BRANCH   1  12
ATOM      8  C   UNL     1      -1.080   1.252  -0.579  0.00  0.00    +0.044 C 
ATOM      9  C   UNL     1      -0.833  -0.229  -0.448  0.00  0.00    -0.050 A 
ATOM     10  C   UNL     1      -1.863  -1.123  -0.677  0.00  0.00    +0.005 A 
ATOM     11  C   UNL     1      -1.639  -2.481  -0.558  0.00  0.00    +0.023 A 
ATOM     12  C   UNL     1      -0.379  -2.948  -0.208  0.00  0.00    +0.033 A 
ATOM     13  C   UNL     1       0.653  -2.047   0.021  0.00  0.00    +0.023 A 
ATOM     14  C   UNL     1       0.425  -0.691  -0.105  0.00  0.00    +0.005 A 
ENDBRANCH   1  12
BRANCH   2  15
ATOM     15  C   UNL     1      -0.605  -4.497   2.316  0.00  0.00    +0.141 A 
ATOM     16  C   UNL     1      -1.108  -5.208   3.341  0.00  0.00    +0.048 A 
ATOM     17  C   UNL     1      -1.758  -4.290   4.197  0.00  0.00    +0.041 A 
ATOM     18  C   UNL     1      -1.613  -3.072   3.644  0.00  0.00    +0.195 A 
ATOM     19  O   UNL     1      -0.909  -3.203   2.508  0.00  0.00    -0.465 OA
ENDBRANCH   2  15
BRANCH   5  20
ATOM     20  S   UNL     1       1.056  -4.923  -2.426  0.00  0.00    -0.118 S 
BRANCH  20  21
ATOM     21  C   UNL     1       2.627  -4.967  -1.520  0.00  0.00    +0.119 C 
BRANCH  21  22
ATOM     22  C   UNL     1       3.777  -4.645  -2.477  0.00  0.00    +0.184 C 
ATOM     23  N   UNL     1       3.554  -3.340  -3.110  0.00  0.00    -0.363 N 
ATOM     24  C   UNL     1       3.478  -3.537  -4.395  0.00  0.00    +0.060 A 
ATOM     25  C   UNL     1       3.268  -2.633  -5.534  0.00  0.00    +0.027 A 
ATOM     26  C   UNL     1       3.234  -3.135  -6.784  0.00  0.00    +0.002 A 
ATOM     27  C   UNL     1       3.392  -4.506  -7.055  0.00  0.00    +0.002 A 
ATOM     28  C   UNL     1       3.589  -5.420  -6.085  0.00  0.00    +0.027 A 
ATOM     29  C   UNL     1       3.645  -4.988  -4.682  0.00  0.00    +0.060 A 
ATOM     30  N   UNL     1       3.819  -5.631  -3.563  0.00  0.00    -0.363 N 
ATOM     31  H   UNL     1       3.478  -2.486  -2.655  0.00  0.00    +0.162 HD
ATOM     32  H   UNL     1       3.953  -6.587  -3.466  0.00  0.00    +0.162 HD
ENDBRANCH  21  22
ENDBRANCH  20  21
ENDBRANCH   5  20
TORSDOF 5
