REMARK  Name = ZINC63187715
REMARK  8 active torsions:
REMARK  status: ('A' for Active; 'I' for Inactive)
REMARK    1  A    between atoms: C_1  and  C_2
REMARK    2  A    between atoms: C_5  and  C_16
REMARK    3  A    between atoms: C_6  and  C_15
REMARK    4  A    between atoms: N_7  and  C_8
REMARK    5  A    between atoms: C_16  and  C_18
REMARK    6  A    between atoms: C_18  and  N_19
REMARK    7  A    between atoms: C_22  and  C_27
REMARK    8  A    between atoms: C_27  and  C_28
REMARK                            x       y       z     vdW  Elec       q    Type
REMARK                         _______ _______ _______ _____ _____    ______ ____
ROOT
ATOM      1  N   UNL     1      -4.668  -3.288   1.396  0.00  0.00    -0.217 N 
ATOM      2  C   UNL     1      -4.808  -4.509   0.844  0.00  0.00    +0.244 C 
ATOM      3  O   UNL     1      -4.234  -4.941  -0.132  0.00  0.00    -0.273 OA
ATOM      4  C   UNL     1      -5.832  -5.230   1.698  0.00  0.00    +0.165 C 
ATOM      5  N   UNL     1      -6.183  -4.238   2.729  0.00  0.00    -0.287 N 
ATOM      6  C   UNL     1      -5.450  -3.140   2.472  0.00  0.00    +0.310 C 
ATOM      7  O   UNL     1      -5.495  -2.126   3.140  0.00  0.00    -0.252 OA
ATOM      8  H   UNL     1      -6.817  -4.355   3.453  0.00  0.00    +0.151 HD
ENDROOT
BRANCH   1   9
ATOM      9  C   UNL     1      -3.767  -2.252   0.885  0.00  0.00    +0.197 C 
BRANCH   9  10
ATOM     10  C   UNL     1      -2.416  -2.395   1.536  0.00  0.00    +0.178 C 
ATOM     11  O   UNL     1      -2.224  -3.278   2.349  0.00  0.00    -0.291 OA
BRANCH  10  15
ATOM     12  C   UNL     1      -0.175   1.699   0.563  0.00  0.00    +0.029 C 
ATOM     13  C   UNL     1      -0.046   0.217   0.203  0.00  0.00    +0.080 C 
ATOM     14  C   UNL     1      -1.437  -0.443   0.133  0.00  0.00    +0.062 C 
ATOM     15  C   UNL     1      -1.380  -1.511   1.204  0.00  0.00    +0.015 C 
ATOM     16  C   UNL     1      -0.164  -1.465   1.785  0.00  0.00    +0.015 C 
ATOM     17  N   UNL     1       0.652  -0.511   1.271  0.00  0.00    -0.300 N 
ATOM     18  C   UNL     1       0.252  -2.389   2.901  0.00  0.00    +0.061 C 
BRANCH  17  19
ATOM     19  C   UNL     1       1.961  -0.257   1.693  0.00  0.00    +0.034 A 
ATOM     20  C   UNL     1       2.195   0.264   2.959  0.00  0.00    +0.026 A 
ATOM     21  C   UNL     1       3.488   0.514   3.374  0.00  0.00    +0.040 A 
ATOM     22  C   UNL     1       4.551   0.246   2.528  0.00  0.00    +0.124 A 
ATOM     23  C   UNL     1       4.321  -0.273   1.265  0.00  0.00    +0.040 A 
ATOM     24  C   UNL     1       3.029  -0.530   0.848  0.00  0.00    +0.026 A 
ATOM     25  F   UNL     1       5.816   0.492   2.935  0.00  0.00    -0.205 F 
ENDBRANCH  17  19
ENDBRANCH  10  15
ENDBRANCH   9  10
ENDBRANCH   1   9
BRANCH   4  26
ATOM     26  C   UNL     1      -7.060  -5.604   0.866  0.00  0.00    +0.065 C 
BRANCH  26  27
ATOM     27  C   UNL     1      -8.005  -6.424   1.705  0.00  0.00    -0.039 C 
ATOM     28  C   UNL     1      -9.071  -5.974   2.405  0.00  0.00    -0.001 A 
ATOM     29  C   UNL     1      -9.648  -4.636   2.587  0.00  0.00    +0.010 A 
ATOM     30  C   UNL     1     -10.745  -4.495   3.366  0.00  0.00    +0.001 A 
ATOM     31  C   UNL     1     -11.343  -5.592   4.001  0.00  0.00    +0.002 A 
ATOM     32  C   UNL     1     -10.872  -6.851   3.881  0.00  0.00    +0.026 A 
ATOM     33  C   UNL     1      -9.723  -7.115   3.086  0.00  0.00    +0.043 A 
ATOM     34  N   UNL     1      -9.084  -8.228   2.818  0.00  0.00    -0.380 N 
ATOM     35  C   UNL     1      -7.957  -7.919   1.930  0.00  0.00    +0.144 C 
ATOM     36  H   UNL     1      -9.319  -9.110   3.148  0.00  0.00    +0.160 HD
ENDBRANCH  26  27
ENDBRANCH   4  26
TORSDOF 6
