REMARK  Name = ZINC05885044
REMARK  5 active torsions:
REMARK  status: ('A' for Active; 'I' for Inactive)
REMARK    1  A    between atoms: C_1  and  C_2
REMARK    2  A    between atoms: C_7  and  C_11
REMARK    3  A    between atoms: C_11  and  S_12
REMARK    4  A    between atoms: S_12  and  C_13
REMARK    5  A    between atoms: C_24  and  C_26
REMARK                            x       y       z     vdW  Elec       q    Type
REMARK                         _______ _______ _______ _____ _____    ______ ____
ROOT
ATOM      1  C   UNL     1       1.663  -7.537   3.514  0.00  0.00    +0.197 A 
ATOM      2  N   UNL     1       0.544  -8.144   3.845  0.00  0.00    -0.122 NA
ATOM      3  N   UNL     1       0.800  -9.241   4.464  0.00  0.00    -0.129 NA
ATOM      4  C   UNL     1       2.107  -9.402   4.568  0.00  0.00    +0.162 A 
ATOM      5  N   UNL     1       2.692  -8.316   3.956  0.00  0.00    -0.270 N 
ATOM      6  C   UNL     1       4.069  -8.194   3.893  0.00  0.00    +0.058 A 
ATOM      7  C   UNL     1       4.662  -7.098   3.280  0.00  0.00    +0.027 A 
ATOM      8  C   UNL     1       6.036  -6.997   3.229  0.00  0.00    +0.002 A 
ATOM      9  C   UNL     1       6.838  -7.982   3.786  0.00  0.00    +0.001 A 
ATOM     10  C   UNL     1       6.271  -9.078   4.399  0.00  0.00    +0.010 A 
ATOM     11  C   UNL     1       4.880  -9.194   4.458  0.00  0.00    +0.002 A 
ATOM     12  C   UNL     1       4.247 -10.348   5.104  0.00  0.00    -0.038 A 
ATOM     13  C   UNL     1       2.898 -10.422   5.148  0.00  0.00    +0.052 A 
ATOM     14  C   UNL     1       5.091 -11.436   5.718  0.00  0.00    +0.044 C 
ENDROOT
BRANCH   1  15
ATOM     15  S   UNL     1       1.806  -6.006   2.653  0.00  0.00    -0.079 S 
BRANCH  15  16
ATOM     16  C   UNL     1       0.088  -5.503   2.364  0.00  0.00    +0.134 C 
BRANCH  16  23
ATOM     17  C   UNL     1      -0.018   1.503   0.010  0.00  0.00    +0.045 C 
ATOM     18  C   UNL     1       0.002  -0.004   0.002  0.00  0.00    -0.034 A 
ATOM     19  C   UNL     1       0.006  -0.697  -1.220  0.00  0.00    +0.008 A 
ATOM     20  C   UNL     1       0.025  -2.057  -1.224  0.00  0.00    +0.047 A 
ATOM     21  C   UNL     1       0.040  -2.750   0.003  0.00  0.00    +0.138 A 
ATOM     22  N   UNL     1       0.059  -4.043   0.297  0.00  0.00    -0.232 NA
ATOM     23  C   UNL     1       0.067  -4.189   1.625  0.00  0.00    +0.070 A 
ATOM     24  C   UNL     1       0.053  -2.964   2.194  0.00  0.00    +0.116 A 
ATOM     25  N   UNL     1       0.036  -2.047   1.179  0.00  0.00    -0.306 N 
ATOM     26  C   UNL     1       0.022  -0.682   1.169  0.00  0.00    +0.096 A 
ENDBRANCH  16  23
ENDBRANCH  15  16
ENDBRANCH   1  15
TORSDOF 3
