REMARK  Name = ZINC13022521
REMARK  14 active torsions:
REMARK  status: ('A' for Active; 'I' for Inactive)
REMARK    1  A    between atoms: C_1  and  C_2
REMARK    2  A    between atoms: C_2  and  O_3
REMARK    3  A    between atoms: O_3  and  C_4
REMARK    4  A    between atoms: C_4  and  C_6
REMARK    5  A    between atoms: C_7  and  C_26
REMARK    6  A    between atoms: C_10  and  N_11
REMARK    7  A    between atoms: C_12  and  C_14
REMARK    8  A    between atoms: C_14  and  S_15
REMARK    9  A    between atoms: S_15  and  C_16
REMARK   10  A    between atoms: C_17  and  C_24
REMARK   11  A    between atoms: C_18  and  C_23
REMARK   12  A    between atoms: C_20  and  C_22
REMARK   13  A    between atoms: C_29  and  C_33
REMARK   14  A    between atoms: C_31  and  C_32
REMARK                            x       y       z     vdW  Elec       q    Type
REMARK                         _______ _______ _______ _____ _____    ______ ____
ROOT
ATOM      1  C   UNL     1      -2.319   2.638   9.006  0.00  0.00    +0.095 A 
ATOM      2  C   UNL     1      -1.897   2.194  10.321  0.00  0.00    +0.005 A 
ATOM      3  C   UNL     1      -0.703   1.551  10.394  0.00  0.00    +0.056 A 
ATOM      4  S   UNL     1      -0.144   1.532   8.704  0.00  0.00    -0.080 S 
ATOM      5  C   UNL     1      -1.462   2.363   7.949  0.00  0.00    +0.086 A 
ENDROOT
BRANCH   2   6
ATOM      6  C   UNL     1      -2.728   2.429  11.525  0.00  0.00    -0.014 A 
ATOM      7  C   UNL     1      -2.788   3.700  12.097  0.00  0.00    +0.009 A 
ATOM      8  C   UNL     1      -3.564   3.913  13.218  0.00  0.00    +0.004 A 
ATOM      9  C   UNL     1      -4.281   2.869  13.775  0.00  0.00    -0.050 A 
ATOM     10  C   UNL     1      -4.225   1.607  13.213  0.00  0.00    +0.007 A 
ATOM     11  C   UNL     1      -3.457   1.383  12.088  0.00  0.00    -0.042 A 
ATOM     12  C   UNL     1      -3.402   0.008  11.473  0.00  0.00    +0.044 C 
ATOM     13  C   UNL     1      -5.126   3.109  14.999  0.00  0.00    +0.044 C 
ENDBRANCH   2   6
BRANCH   5  14
ATOM     14  N   UNL     1      -1.625   2.675   6.609  0.00  0.00    -0.279 N 
ATOM     15  C   UNL     1      -0.678   2.325   5.715  0.00  0.00    +0.228 C 
ATOM     16  O   UNL     1       0.317   1.738   6.085  0.00  0.00    -0.275 OA
ATOM     17  H   UNL     1      -2.420   3.144   6.313  0.00  0.00    +0.155 HD
BRANCH  15  18
ATOM     18  C   UNL     1      -0.855   2.664   4.258  0.00  0.00    +0.172 C 
BRANCH  18  19
ATOM     19  S   UNL     1       0.574   2.067   3.321  0.00  0.00    -0.096 S 
BRANCH  19  20
ATOM     20  C   UNL     1       0.115   2.582   1.700  0.00  0.00    +0.112 A 
ATOM     21  C   UNL     1       0.967   2.315   0.613  0.00  0.00    +0.098 A 
ATOM     22  C   UNL     1       0.582   2.740  -0.664  0.00  0.00    -0.032 A 
ATOM     23  C   UNL     1      -0.628   3.396  -0.802  0.00  0.00    +0.027 A 
ATOM     24  C   UNL     1      -1.412   3.623   0.315  0.00  0.00    +0.040 A 
ATOM     25  N   UNL     1      -1.031   3.220   1.511  0.00  0.00    -0.245 NA
ATOM     26  C   UNL     1      -2.727   4.343   0.162  0.00  0.00    +0.065 C 
ATOM     27  C   UNL     1       1.462   2.484  -1.861  0.00  0.00    +0.045 C 
BRANCH  21  28
ATOM     28  C   UNL     1       2.242   1.608   0.816  0.00  0.00    +0.389 C 
ATOM     29  O   UNL     1       2.282   0.395   0.745  0.00  0.00    -0.240 OA
ATOM     30  O   UNL     1       3.366   2.305   1.075  0.00  0.00    -0.240 OA
ENDBRANCH  21  28
ENDBRANCH  19  20
ENDBRANCH  18  19
ENDBRANCH  15  18
ENDBRANCH   5  14
BRANCH   1  31
ATOM     31  C   UNL     1      -3.586   3.341   8.804  0.00  0.00    +0.342 C 
ATOM     32  O   UNL     1      -4.604   2.711   8.588  0.00  0.00    -0.245 OA
BRANCH  31  33
ATOM     33  O   UNL     1      -3.625   4.689   8.857  0.00  0.00    -0.461 OA
BRANCH  33  35
ATOM     34  C   UNL     1      -4.763   6.838   8.742  0.00  0.00    +0.048 C 
ATOM     35  C   UNL     1      -4.916   5.319   8.647  0.00  0.00    +0.229 C 
ENDBRANCH  33  35
ENDBRANCH  31  33
ENDBRANCH   1  31
TORSDOF 9
