REMARK  Name = ZINC54620353
REMARK  5 active torsions:
REMARK  status: ('A' for Active; 'I' for Inactive)
REMARK    1  A    between atoms: C_6  and  C_12
REMARK    2  A    between atoms: C_7  and  O_11
REMARK    3  A    between atoms: C_12  and  C_14
REMARK    4  A    between atoms: C_12  and  N_19
REMARK    5  A    between atoms: N_19  and  C_20
REMARK                            x       y       z     vdW  Elec       q    Type
REMARK                         _______ _______ _______ _____ _____    ______ ____
ROOT
ATOM      1  C   UNL     1       5.995  -0.906  -0.060  0.00  0.00    +0.171 C 
ENDROOT
BRANCH   1   7
ATOM      2  C   UNL     1       0.094   1.607   0.459  0.00  0.00    +0.020 A 
ATOM      3  C   UNL     1       1.297   2.254   0.487  0.00  0.00    +0.011 A 
ATOM      4  C   UNL     1       2.467   1.484   0.353  0.00  0.00    +0.004 A 
ATOM      5  C   UNL     1       3.740   2.078   0.374  0.00  0.00    +0.010 A 
ATOM      6  C   UNL     1       4.850   1.302   0.241  0.00  0.00    +0.010 A 
ATOM      7  C   UNL     1       4.744  -0.078   0.085  0.00  0.00    +0.024 A 
ATOM      8  C   UNL     1       3.525  -0.692   0.059  0.00  0.00    +0.148 A 
ATOM      9  C   UNL     1       2.352   0.081   0.195  0.00  0.00    +0.113 A 
ATOM     10  N   UNL     1       1.144  -0.489   0.175  0.00  0.00    -0.251 NA
ATOM     11  C   UNL     1       0.051   0.224   0.299  0.00  0.00    +0.111 A 
BRANCH   8  12
ATOM     12  O   UNL     1       3.441  -2.039  -0.095  0.00  0.00    -0.504 OA
ATOM     13  H   UNL     1       3.450  -2.531   0.737  0.00  0.00    +0.292 HD
ENDBRANCH   8  12
ENDBRANCH   1   7
BRANCH   1  14
ATOM     14  C   UNL     1       6.432  -1.397   1.296  0.00  0.00    +0.129 A 
ATOM     15  C   UNL     1       6.213  -2.626   1.796  0.00  0.00    +0.047 A 
ATOM     16  C   UNL     1       6.790  -2.652   3.087  0.00  0.00    +0.041 A 
ATOM     17  C   UNL     1       7.327  -1.437   3.298  0.00  0.00    +0.195 A 
ATOM     18  O   UNL     1       7.112  -0.683   2.208  0.00  0.00    -0.466 OA
ENDBRANCH   1  14
BRANCH   1  19
ATOM     19  N   UNL     1       7.057  -0.088  -0.650  0.00  0.00    -0.329 N 
ATOM     20  H   UNL     1       7.033   0.877  -0.559  0.00  0.00    +0.147 HD
BRANCH  19  21
ATOM     21  C   UNL     1       8.107  -0.698  -1.343  0.00  0.00    +0.048 A 
ATOM     22  C   UNL     1       8.140  -2.080  -1.479  0.00  0.00    +0.046 A 
ATOM     23  C   UNL     1       9.179  -2.681  -2.164  0.00  0.00    +0.061 A 
ATOM     24  C   UNL     1      10.186  -1.906  -2.716  0.00  0.00    +0.061 A 
ATOM     25  C   UNL     1      10.155  -0.529  -2.582  0.00  0.00    +0.043 A 
ATOM     26  C   UNL     1       9.116   0.077  -1.903  0.00  0.00    +0.063 A 
ATOM     27 CL   UNL     1       9.074   1.805  -1.741  0.00  0.00    -0.082 Cl
ATOM     28 CL   UNL     1      11.490  -2.664  -3.576  0.00  0.00    -0.082 Cl
ATOM     29 CL   UNL     1       9.222  -4.408  -2.335  0.00  0.00    -0.082 Cl
ENDBRANCH  19  21
ENDBRANCH   1  19
TORSDOF 5
