REMARK  Name = ZINC66289804
REMARK  4 active torsions:
REMARK  status: ('A' for Active; 'I' for Inactive)
REMARK    1  A    between atoms: C_2  and  N_23
REMARK    2  A    between atoms: C_6  and  C_7
REMARK    3  A    between atoms: N_9  and  C_10
REMARK    4  A    between atoms: N_9  and  C_16
REMARK                            x       y       z     vdW  Elec       q    Type
REMARK                         _______ _______ _______ _____ _____    ______ ____
ROOT
ATOM      1  C   UNL     1      -2.232  -2.748  -1.280  0.00  0.00    +0.049 A 
ATOM      2  C   UNL     1      -1.764  -3.903  -0.691  0.00  0.00    +0.131 A 
ATOM      3  C   UNL     1      -0.542  -4.434  -1.069  0.00  0.00    +0.082 A 
ATOM      4  C   UNL     1       0.223  -3.812  -2.042  0.00  0.00    +0.165 A 
ATOM      5  C   UNL     1      -0.237  -2.648  -2.647  0.00  0.00    +0.174 A 
ATOM      6  C   UNL     1      -1.473  -2.109  -2.264  0.00  0.00    +0.084 A 
ATOM      7  O   UNL     1       0.493  -2.026  -3.608  0.00  0.00    -0.484 OA
ATOM      8  C   UNL     1       1.877  -2.381  -3.696  0.00  0.00    +0.270 C 
ATOM      9  C   UNL     1       1.986  -3.910  -3.635  0.00  0.00    +0.270 C 
ATOM     10  O   UNL     1       1.423  -4.350  -2.394  0.00  0.00    -0.485 OA
ENDROOT
BRANCH   6  11
ATOM     11  C   UNL     1      -1.970  -0.873  -2.896  0.00  0.00    +0.251 C 
ATOM     12  O   UNL     1      -1.415   0.187  -2.679  0.00  0.00    -0.270 OA
ATOM     13  N   UNL     1      -3.039  -0.918  -3.715  0.00  0.00    -0.291 N 
BRANCH  13  14
ATOM     14  C   UNL     1      -4.331  -1.388  -3.208  0.00  0.00    +0.077 C 
ATOM     15  C   UNL     1      -4.311  -2.914  -3.099  0.00  0.00    +0.022 C 
ATOM     16  C   UNL     1      -5.660  -3.405  -2.569  0.00  0.00    +0.002 C 
ATOM     17  C   UNL     1      -5.917  -2.798  -1.189  0.00  0.00    +0.000 C 
ATOM     18  C   UNL     1      -5.937  -1.272  -1.298  0.00  0.00    +0.002 C 
ATOM     19  C   UNL     1      -4.589  -0.781  -1.828  0.00  0.00    +0.022 C 
ENDBRANCH  13  14
BRANCH  13  20
ATOM     20  C   UNL     1      -2.910  -0.496  -5.112  0.00  0.00    +0.077 C 
ATOM     21  C   UNL     1      -1.497  -0.354  -5.680  0.00  0.00    +0.024 C 
ATOM     22  C   UNL     1      -2.330   0.894  -5.380  0.00  0.00    +0.024 C 
ENDBRANCH  13  20
ENDBRANCH   6  11
BRANCH   2  23
ATOM     23  N   UNL     1      -2.571  -4.578   0.350  0.00  0.00    +0.057 N 
ATOM     24  O   UNL     1      -2.926  -3.967   1.330  0.00  0.00    -0.126 OA
ATOM     25  O   UNL     1      -2.874  -5.741   0.219  0.00  0.00    -0.126 OA
ENDBRANCH   2  23
TORSDOF 4
