REMARK  Name = ZINC14187727
REMARK  6 active torsions:
REMARK  status: ('A' for Active; 'I' for Inactive)
REMARK    1  A    between atoms: C_1  and  C_2
REMARK    2  A    between atoms: C_2  and  C_24
REMARK    3  A    between atoms: N_5  and  C_9
REMARK    4  A    between atoms: C_9  and  C_10
REMARK    5  A    between atoms: C_13  and  C_16
REMARK    6  A    between atoms: C_21  and  C_22
REMARK                            x       y       z     vdW  Elec       q    Type
REMARK                         _______ _______ _______ _____ _____    ______ ____
ROOT
ATOM      1  C   UNL     1       7.735   3.887  -3.828  0.00  0.00    +0.047 C 
ATOM      2  C   UNL     1       8.280   4.828  -2.752  0.00  0.00    +0.135 C 
ATOM      3  C   UNL     1       7.183   5.738  -2.235  0.00  0.00    +0.251 C 
ATOM      4  O   UNL     1       6.545   6.550  -2.870  0.00  0.00    -0.272 OA
ATOM      5  N   UNL     1       7.065   5.456  -0.922  0.00  0.00    -0.220 N 
ATOM      6  C   UNL     1       7.928   4.508  -0.541  0.00  0.00    +0.310 C 
ATOM      7  O   UNL     1       8.013   4.089   0.597  0.00  0.00    -0.252 OA
ATOM      8  N   UNL     1       8.690   4.068  -1.558  0.00  0.00    -0.281 N 
ATOM      9  H   UNL     1       9.378   3.385  -1.514  0.00  0.00    +0.152 HD
ENDROOT
BRANCH   2  10
ATOM     10  C   UNL     1       9.432   5.638  -3.287  0.00  0.00    -0.015 A 
ATOM     11  C   UNL     1       9.203   6.884  -3.841  0.00  0.00    +0.007 A 
ATOM     12  C   UNL     1      10.260   7.629  -4.327  0.00  0.00    +0.020 A 
ATOM     13  C   UNL     1      11.547   7.124  -4.270  0.00  0.00    +0.041 A 
ATOM     14  C   UNL     1      11.775   5.875  -3.721  0.00  0.00    +0.020 A 
ATOM     15  C   UNL     1      10.717   5.132  -3.230  0.00  0.00    +0.007 A 
ATOM     16 CL   UNL     1      12.874   8.057  -4.886  0.00  0.00    -0.084 Cl
ENDBRANCH   2  10
BRANCH   5  17
ATOM     17  C   UNL     1       6.112   6.112  -0.022  0.00  0.00    +0.153 C 
BRANCH  17  18
ATOM     18  C   UNL     1       4.817   5.341  -0.015  0.00  0.00    -0.030 A 
ATOM     19  C   UNL     1       4.627   4.322   0.901  0.00  0.00    +0.006 A 
ATOM     20  C   UNL     1       3.443   3.613   0.913  0.00  0.00    +0.009 A 
ATOM     21  C   UNL     1       2.437   3.927   0.000  0.00  0.00    -0.017 A 
ATOM     22  C   UNL     1       2.636   4.952  -0.924  0.00  0.00    +0.009 A 
ATOM     23  C   UNL     1       3.822   5.657  -0.923  0.00  0.00    +0.006 A 
BRANCH  21  24
ATOM     24  C   UNL     1       1.163   3.170   0.008  0.00  0.00    -0.001 A 
ATOM     25  C   UNL     1       1.176   1.778   0.000  0.00  0.00    +0.010 A 
ATOM     26  C   UNL     1      -0.013   1.076   0.008  0.00  0.00    +0.001 A 
ATOM     27  C   UNL     1      -1.224   1.747   0.017  0.00  0.00    +0.001 A 
ATOM     28  C   UNL     1      -1.258   3.126   0.031  0.00  0.00    +0.019 A 
ATOM     29  C   UNL     1      -0.066   3.853   0.023  0.00  0.00    +0.059 A 
BRANCH  29  30
ATOM     30  C   UNL     1      -0.095   5.285   0.031  0.00  0.00    +0.100 C 
ATOM     31  N   UNL     1      -0.118   6.420   0.037  0.00  0.00    -0.191 NA
ENDBRANCH  29  30
ENDBRANCH  21  24
ENDBRANCH  17  18
ENDBRANCH   5  17
TORSDOF 5
