REMARK  Name = ZINC40527360
REMARK  11 active torsions:
REMARK  status: ('A' for Active; 'I' for Inactive)
REMARK    1  A    between atoms: C_1  and  C_2
REMARK    2  A    between atoms: C_2  and  C_4
REMARK    3  A    between atoms: C_2  and  O_29
REMARK    4  A    between atoms: C_4  and  O_6
REMARK    5  A    between atoms: O_6  and  C_7
REMARK    6  A    between atoms: C_14  and  N_28
REMARK    7  A    between atoms: C_15  and  C_26
REMARK    8  A    between atoms: C_16  and  C_18
REMARK    9  A    between atoms: C_22  and  O_24
REMARK   10  A    between atoms: O_24  and  C_25
REMARK   11  A    between atoms: O_29  and  C_30
REMARK                            x       y       z     vdW  Elec       q    Type
REMARK                         _______ _______ _______ _____ _____    ______ ____
ROOT
ATOM      1  C   UNL     1      -3.661  -0.577   0.876  0.00  0.00    +0.135 A 
ATOM      2  C   UNL     1      -4.013  -1.404  -0.182  0.00  0.00    +0.047 A 
ATOM      3  C   UNL     1      -5.302  -1.889  -0.279  0.00  0.00    +0.012 A 
ATOM      4  C   UNL     1      -6.247  -1.555   0.675  0.00  0.00    +0.008 A 
ATOM      5  C   UNL     1      -5.901  -0.729   1.733  0.00  0.00    +0.138 A 
ATOM      6  C   UNL     1      -4.603  -0.245   1.836  0.00  0.00    +0.093 A 
ATOM      7  O   UNL     1      -6.813  -0.391   2.678  0.00  0.00    -0.441 OA
ATOM      8  C   UNL     1      -7.926  -1.128   2.830  0.00  0.00    +0.199 C 
ATOM      9  C   UNL     1      -8.375  -1.957   1.858  0.00  0.00    +0.098 C 
ATOM     10  C   UNL     1      -7.647  -2.094   0.551  0.00  0.00    +0.098 C 
ENDROOT
BRANCH  10  11
ATOM     11  C   UNL     1      -8.385  -1.326  -0.515  0.00  0.00    -0.031 A 
ATOM     12  C   UNL     1      -8.556   0.041  -0.388  0.00  0.00    +0.005 A 
ATOM     13  C   UNL     1      -9.233   0.748  -1.364  0.00  0.00    +0.004 A 
ATOM     14  C   UNL     1      -9.741   0.092  -2.469  0.00  0.00    +0.045 A 
ATOM     15  C   UNL     1      -9.571  -1.279  -2.598  0.00  0.00    +0.120 A 
ATOM     16  C   UNL     1      -8.886  -1.986  -1.620  0.00  0.00    +0.050 A 
BRANCH  15  17
ATOM     17  O   UNL     1     -10.069  -1.927  -3.683  0.00  0.00    -0.495 OA
ATOM     18  C   UNL     1     -10.758  -1.134  -4.653  0.00  0.00    +0.277 C 
ENDBRANCH  15  17
ENDBRANCH  10  11
BRANCH   8  19
ATOM     19  N   UNL     1      -8.628  -1.038   4.006  0.00  0.00    -0.328 N 
ATOM     20  H   UNL     1      -8.319  -0.449   4.712  0.00  0.00    +0.145 HD
ATOM     21  H   UNL     1      -9.433  -1.564   4.131  0.00  0.00    +0.145 HD
ENDBRANCH   8  19
BRANCH   9  22
ATOM     22  C   UNL     1      -9.567  -2.718   2.081  0.00  0.00    +0.101 C 
ATOM     23  N   UNL     1     -10.513  -3.321   2.258  0.00  0.00    -0.191 NA
ENDBRANCH   9  22
BRANCH   1  24
ATOM     24  O   UNL     1      -2.393  -0.097   0.973  0.00  0.00    -0.423 OA
BRANCH  24  25
ATOM     25  C   UNL     1      -2.032   0.900   0.150  0.00  0.00    +0.353 C 
ATOM     26  O   UNL     1      -2.850   1.407  -0.581  0.00  0.00    -0.246 OA
BRANCH  25  28
ATOM     27  C   UNL     1      -0.269   2.015   1.491  0.00  0.00    +0.064 C 
ATOM     28  C   UNL     1      -0.606   1.387   0.137  0.00  0.00    +0.279 C 
BRANCH  28  29
ATOM     29  O   UNL     1      -0.445   2.364  -0.893  0.00  0.00    -0.475 OA
BRANCH  29  30
ATOM     30  C   UNL     1       0.806   2.527  -1.399  0.00  0.00    +0.157 A 
ATOM     31  C   UNL     1       1.877   1.848  -0.837  0.00  0.00    +0.048 A 
ATOM     32  C   UNL     1       3.148   2.016  -1.353  0.00  0.00    +0.004 A 
ATOM     33  C   UNL     1       3.354   2.861  -2.428  0.00  0.00    +0.003 A 
ATOM     34  C   UNL     1       2.290   3.540  -2.991  0.00  0.00    +0.042 A 
ATOM     35  C   UNL     1       1.014   3.371  -2.483  0.00  0.00    +0.165 A 
ATOM     36  F   UNL     1      -0.027   4.030  -3.037  0.00  0.00    -0.202 F 
ENDBRANCH  29  30
ENDBRANCH  28  29
ENDBRANCH  25  28
ENDBRANCH  24  25
ENDBRANCH   1  24
TORSDOF 9
