REMARK  Name = ZINC36146756
REMARK  11 active torsions:
REMARK  status: ('A' for Active; 'I' for Inactive)
REMARK    1  A    between atoms: C_2  and  C_3
REMARK    2  A    between atoms: C_3  and  C_4
REMARK    3  A    between atoms: C_4  and  C_5
REMARK    4  A    between atoms: C_5  and  C_7
REMARK    5  A    between atoms: C_5  and  O_32
REMARK    6  A    between atoms: C_7  and  N_8
REMARK    7  A    between atoms: N_8  and  C_9
REMARK    8  A    between atoms: N_8  and  C_17
REMARK    9  A    between atoms: C_9  and  C_10
REMARK   10  A    between atoms: C_17  and  C_18
REMARK   11  A    between atoms: C_21  and  C_24
REMARK                            x       y       z     vdW  Elec       q    Type
REMARK                         _______ _______ _______ _____ _____    ______ ____
ROOT
ATOM      1  N   UNL     1      -3.877  -4.519  -2.249  0.00  0.00    +0.386 N 
ATOM      2  H   UNL     1      -4.723  -3.987  -2.386  0.00  0.00    -0.081 HD
ENDROOT
BRANCH   1   3
ATOM      3  C   UNL     1      -2.713  -3.643  -2.432  0.00  0.00    -0.047 C 
BRANCH   3   4
ATOM      4  C   UNL     1      -2.841  -2.426  -1.514  0.00  0.00    +0.098 C 
BRANCH   4   5
ATOM      5  O   UNL     1      -4.006  -1.680  -1.870  0.00  0.00    -0.394 OA
ATOM      6  H   UNL     1      -4.000  -1.352  -2.780  0.00  0.00    +0.210 HD
ENDBRANCH   4   5
BRANCH   4   7
ATOM      7  C   UNL     1      -1.602  -1.540  -1.666  0.00  0.00    +0.033 C 
BRANCH   7   8
ATOM      8  C   UNL     1      -1.671  -0.390  -0.658  0.00  0.00    +0.029 C 
BRANCH   8  10
ATOM      9  C   UNL     1      -0.588   1.768  -1.021  0.00  0.00    +0.004 C 
ATOM     10  C   UNL     1      -0.452   0.482  -0.808  0.00  0.00    -0.034 C 
ENDBRANCH   8  10
ENDBRANCH   7   8
ENDBRANCH   4   7
ENDBRANCH   3   4
ENDBRANCH   1   3
BRANCH   1  11
ATOM     11  C   UNL     1      -3.862  -5.075  -0.889  0.00  0.00    -0.043 C 
BRANCH  11  12
ATOM     12  C   UNL     1      -2.586  -5.848  -0.676  0.00  0.00    -0.064 A 
ATOM     13  C   UNL     1      -2.531  -7.191  -0.999  0.00  0.00    +0.004 A 
ATOM     14  C   UNL     1      -1.362  -7.902  -0.804  0.00  0.00    +0.038 A 
ATOM     15  C   UNL     1      -0.245  -7.268  -0.286  0.00  0.00    +0.123 A 
ATOM     16  C   UNL     1      -0.302  -5.922   0.036  0.00  0.00    +0.038 A 
ATOM     17  C   UNL     1      -1.470  -5.213  -0.164  0.00  0.00    +0.004 A 
ATOM     18  F   UNL     1       0.899  -7.961  -0.096  0.00  0.00    -0.205 F 
ENDBRANCH  11  12
ENDBRANCH   1  11
BRANCH   1  19
ATOM     19  C   UNL     1      -3.824  -5.615  -3.226  0.00  0.00    -0.030 C 
BRANCH  19  20
ATOM     20  C   UNL     1      -5.097  -6.457  -3.118  0.00  0.00    +0.194 C 
ATOM     21  C   UNL     1      -5.056  -7.651  -4.101  0.00  0.00    +0.104 C 
ATOM     22  C   UNL     1      -6.495  -7.738  -4.573  0.00  0.00    +0.091 C 
ATOM     23  N   UNL     1      -7.093  -6.639  -4.256  0.00  0.00    -0.089 NA
ATOM     24  O   UNL     1      -6.243  -5.722  -3.595  0.00  0.00    -0.392 OA
BRANCH  22  25
ATOM     25  C   UNL     1      -7.107  -8.884  -5.275  0.00  0.00    +0.001 A 
ATOM     26  C   UNL     1      -6.347 -10.022  -5.554  0.00  0.00    +0.011 A 
ATOM     27  C   UNL     1      -6.924 -11.089  -6.210  0.00  0.00    +0.022 A 
ATOM     28  C   UNL     1      -8.254 -11.035  -6.591  0.00  0.00    +0.059 A 
ATOM     29  C   UNL     1      -9.014  -9.909  -6.317  0.00  0.00    +0.060 A 
ATOM     30  C   UNL     1      -8.449  -8.836  -5.657  0.00  0.00    +0.031 A 
ATOM     31 CL   UNL     1     -10.681  -9.850  -6.799  0.00  0.00    -0.082 Cl
ATOM     32 CL   UNL     1      -8.973 -12.383  -7.417  0.00  0.00    -0.082 Cl
ENDBRANCH  22  25
ENDBRANCH  19  20
ENDBRANCH   1  19
TORSDOF 11
