REMARK  Name = ZINC02926098
REMARK  6 active torsions:
REMARK  status: ('A' for Active; 'I' for Inactive)
REMARK    1  A    between atoms: C_1  and  C_2
REMARK    2  A    between atoms: C_3  and  C_29
REMARK    3  A    between atoms: C_4  and  C_22
REMARK    4  A    between atoms: C_10  and  C_15
REMARK    5  A    between atoms: C_29  and  O_31
REMARK    6  A    between atoms: O_31  and  C_32
REMARK                            x       y       z     vdW  Elec       q    Type
REMARK                         _______ _______ _______ _____ _____    ______ ____
ROOT
ATOM      1  C   UNL     1       4.901   4.141  -0.823  0.00  0.00    +0.061 C 
ATOM      2  C   UNL     1       3.566   3.582  -0.402  0.00  0.00    +0.016 C 
ATOM      3  C   UNL     1       2.483   4.378  -0.389  0.00  0.00    +0.065 C 
ATOM      4  C   UNL     1       1.140   3.858   0.032  0.00  0.00    +0.092 C 
ATOM      5  C   UNL     1       1.106   2.350  -0.007  0.00  0.00    +0.024 C 
ATOM      6  C   UNL     1       2.252   1.636  -0.035  0.00  0.00    +0.016 C 
ATOM      7  N   UNL     1       3.466   2.269  -0.035  0.00  0.00    -0.321 N 
ATOM      8  C   UNL     1       2.226   0.128  -0.071  0.00  0.00    +0.059 C 
ATOM      9  C   UNL     1       0.982  -0.382   0.659  0.00  0.00    +0.032 C 
ATOM     10  C   UNL     1      -0.257   0.213  -0.018  0.00  0.00    +0.088 C 
ATOM     11  C   UNL     1      -0.147   1.713  -0.009  0.00  0.00    +0.162 C 
ATOM     12  O   UNL     1      -1.159   2.386  -0.009  0.00  0.00    -0.292 OA
ATOM     13  H   UNL     1       4.365   1.711   0.263  0.00  0.00    +0.152 HD
ENDROOT
BRANCH   9  14
ATOM     14  C   UNL     1       0.929  -1.886   0.580  0.00  0.00    -0.043 A 
ATOM     15  C   UNL     1       0.886  -2.512  -0.652  0.00  0.00    +0.005 A 
ATOM     16  C   UNL     1       0.844  -3.892  -0.726  0.00  0.00    +0.020 A 
ATOM     17  C   UNL     1       0.833  -4.646   0.434  0.00  0.00    +0.041 A 
ATOM     18  C   UNL     1       0.870  -4.019   1.667  0.00  0.00    +0.020 A 
ATOM     19  C   UNL     1       0.918  -2.639   1.739  0.00  0.00    +0.005 A 
ATOM     20 CL   UNL     1       0.772  -6.378   0.343  0.00  0.00    -0.084 Cl
ENDBRANCH   9  14
BRANCH   4  21
ATOM     21  C   UNL     1       0.848   4.323   1.435  0.00  0.00    -0.035 A 
ATOM     22  C   UNL     1       1.669   3.934   2.477  0.00  0.00    +0.006 A 
ATOM     23  C   UNL     1       1.405   4.365   3.763  0.00  0.00    +0.020 A 
ATOM     24  C   UNL     1       0.312   5.176   4.010  0.00  0.00    +0.041 A 
ATOM     25  C   UNL     1      -0.513   5.560   2.968  0.00  0.00    +0.020 A 
ATOM     26  C   UNL     1      -0.245   5.133   1.681  0.00  0.00    +0.006 A 
ATOM     27 CL   UNL     1      -0.024   5.713   5.627  0.00  0.00    -0.084 Cl
ENDBRANCH   4  21
BRANCH   3  28
ATOM     28  C   UNL     1       2.611   5.731  -0.780  0.00  0.00    +0.338 C 
ATOM     29  O   UNL     1       3.711   6.193  -1.022  0.00  0.00    -0.245 OA
BRANCH  28  30
ATOM     30  O   UNL     1       1.514   6.510  -0.886  0.00  0.00    -0.458 OA
BRANCH  30  31
ATOM     31  C   UNL     1       1.718   7.866  -1.286  0.00  0.00    +0.177 C 
ATOM     32  C   UNL     1       1.931   8.737  -0.046  0.00  0.00    +0.044 C 
ATOM     33  C   UNL     1       2.149  10.190  -0.475  0.00  0.00    +0.004 C 
ATOM     34  C   UNL     1       0.921  10.685  -1.241  0.00  0.00    +0.000 C 
ATOM     35  C   UNL     1       0.707   9.815  -2.480  0.00  0.00    +0.004 C 
ATOM     36  C   UNL     1       0.489   8.362  -2.052  0.00  0.00    +0.044 C 
ENDBRANCH  30  31
ENDBRANCH  28  30
ENDBRANCH   3  28
TORSDOF 5
