REMARK  Name = ZINC38727208
REMARK  17 active torsions:
REMARK  status: ('A' for Active; 'I' for Inactive)
REMARK    1  A    between atoms: C_1  and  C_2
REMARK    2  A    between atoms: C_2  and  N_3
REMARK    3  A    between atoms: N_3  and  C_4
REMARK    4  A    between atoms: N_3  and  C_6
REMARK    5  A    between atoms: C_4  and  C_5
REMARK    6  A    between atoms: C_6  and  C_7
REMARK    7  A    between atoms: C_7  and  C_8
REMARK    8  A    between atoms: C_8  and  N_9
REMARK    9  A    between atoms: C_10  and  C_28
REMARK   10  A    between atoms: C_18  and  O_25
REMARK   11  A    between atoms: O_25  and  C_26
REMARK   12  A    between atoms: C_26  and  C_27
REMARK   13  A    between atoms: C_31  and  O_36
REMARK   14  A    between atoms: C_32  and  O_34
REMARK   15  A    between atoms: O_34  and  C_35
REMARK   16  A    between atoms: O_36  and  C_37
REMARK   17  A    between atoms: C_37  and  C_38
REMARK                            x       y       z     vdW  Elec       q    Type
REMARK                         _______ _______ _______ _____ _____    ______ ____
ROOT
ATOM      1  N   UNL     1       2.129  -4.548  -3.842  0.00  0.00    -0.284 N 
ATOM      2  C   UNL     1       1.663  -4.678  -5.232  0.00  0.00    +0.145 C 
ATOM      3  C   UNL     1       2.830  -5.198  -6.006  0.00  0.00    +0.072 A 
ATOM      4  C   UNL     1       2.974  -5.535  -7.426  0.00  0.00    +0.199 A 
ATOM      5  O   UNL     1       2.135  -5.261  -8.266  0.00  0.00    -0.287 OA
ATOM      6  C   UNL     1       4.239  -6.242  -7.744  0.00  0.00    +0.065 A 
ATOM      7  C   UNL     1       4.436  -6.805  -9.006  0.00  0.00    +0.019 A 
ATOM      8  C   UNL     1       5.602  -7.457  -9.284  0.00  0.00    +0.046 A 
ATOM      9  C   UNL     1       6.595  -7.562  -8.311  0.00  0.00    +0.124 A 
ATOM     10  C   UNL     1       6.415  -7.008  -7.056  0.00  0.00    +0.092 A 
ATOM     11  C   UNL     1       5.234  -6.336  -6.754  0.00  0.00    +0.143 A 
ATOM     12  O   UNL     1       5.083  -5.794  -5.524  0.00  0.00    -0.449 OA
ATOM     13  C   UNL     1       3.873  -5.346  -5.137  0.00  0.00    +0.199 A 
ATOM     14  C   UNL     1       3.420  -4.935  -3.797  0.00  0.00    +0.283 C 
ATOM     15  O   UNL     1       4.108  -4.946  -2.796  0.00  0.00    -0.267 OA
ENDROOT
BRANCH   2  16
ATOM     16  C   UNL     1       1.239  -3.334  -5.767  0.00  0.00    -0.019 A 
ATOM     17  C   UNL     1       1.980  -2.207  -5.465  0.00  0.00    +0.009 A 
ATOM     18  C   UNL     1       1.596  -0.972  -5.953  0.00  0.00    +0.050 A 
ATOM     19  C   UNL     1       0.466  -0.862  -6.747  0.00  0.00    +0.162 A 
ATOM     20  C   UNL     1      -0.280  -1.997  -7.052  0.00  0.00    +0.162 A 
ATOM     21  C   UNL     1       0.114  -3.232  -6.564  0.00  0.00    +0.055 A 
BRANCH  20  22
ATOM     22  O   UNL     1      -1.389  -1.894  -7.831  0.00  0.00    -0.491 OA
ATOM     23  C   UNL     1      -2.106  -3.101  -8.103  0.00  0.00    +0.277 C 
ENDBRANCH  20  22
BRANCH  19  24
ATOM     24  O   UNL     1       0.086   0.352  -7.228  0.00  0.00    -0.489 OA
BRANCH  24  25
ATOM     25  C   UNL     1       0.899   1.473  -6.874  0.00  0.00    +0.226 C 
ATOM     26  C   UNL     1       0.319   2.742  -7.501  0.00  0.00    +0.048 C 
ENDBRANCH  24  25
ENDBRANCH  19  24
ENDBRANCH   2  16
BRANCH   1  27
ATOM     27  C   UNL     1       1.331  -4.074  -2.708  0.00  0.00    +0.107 C 
BRANCH  27  28
ATOM     28  C   UNL     1       1.470  -2.556  -2.586  0.00  0.00    +0.000 C 
BRANCH  28  29
ATOM     29  C   UNL     1       0.637  -2.061  -1.401  0.00  0.00    -0.077 C 
BRANCH  29  30
ATOM     30  N   UNL     1       0.867  -0.624  -1.207  0.00  0.00    +0.379 N 
ATOM     31  H   UNL     1       1.856  -0.452  -1.106  0.00  0.00    -0.082 HD
BRANCH  30  33
ATOM     32  C   UNL     1       0.708   1.597  -2.227  0.00  0.00    -0.017 C 
ATOM     33  C   UNL     1       0.358   0.115  -2.371  0.00  0.00    -0.082 C 
ENDBRANCH  30  33
BRANCH  30  34
ATOM     34  C   UNL     1       0.165  -0.174   0.003  0.00  0.00    -0.082 C 
ATOM     35  C   UNL     1       0.801  -0.825   1.233  0.00  0.00    -0.017 C 
ENDBRANCH  30  34
ENDBRANCH  29  30
ENDBRANCH  28  29
ENDBRANCH  27  28
ENDBRANCH   1  27
BRANCH   9  36
ATOM     36  O   UNL     1       7.749  -8.216  -8.597  0.00  0.00    -0.492 OA
BRANCH  36  37
ATOM     37  C   UNL     1       7.875  -8.767  -9.910  0.00  0.00    +0.225 C 
ATOM     38  C   UNL     1       9.232  -9.459 -10.045  0.00  0.00    +0.048 C 
ENDBRANCH  36  37
ENDBRANCH   9  36
TORSDOF 12
