REMARK  Name = ZINC04714338
REMARK  9 active torsions:
REMARK  status: ('A' for Active; 'I' for Inactive)
REMARK    1  A    between atoms: C_1  and  C_2
REMARK    2  A    between atoms: C_2  and  C_4
REMARK    3  A    between atoms: C_10  and  C_32
REMARK    4  A    between atoms: C_21  and  C_31
REMARK    5  A    between atoms: C_24  and  O_27
REMARK    6  A    between atoms: O_27  and  C_28
REMARK    7  A    between atoms: C_28  and  C_30
REMARK    8  A    between atoms: C_34  and  C_36
REMARK    9  A    between atoms: C_34  and  C_37
REMARK                            x       y       z     vdW  Elec       q    Type
REMARK                         _______ _______ _______ _____ _____    ______ ____
ROOT
ATOM      1  C   UNL     1       0.643   1.129  -2.256  0.00  0.00    +0.161 C 
ATOM      2  C   UNL     1       1.979   1.332  -1.480  0.00  0.00    +0.162 C 
ATOM      3  C   UNL     1       1.598   1.551   0.006  0.00  0.00    +0.039 C 
ATOM      4  C   UNL     1       0.156   1.023   0.078  0.00  0.00    +0.004 C 
ATOM      5  C   UNL     1      -0.443   1.543  -1.243  0.00  0.00    +0.010 C 
ATOM      6  C   UNL     1      -1.821   0.984  -1.474  0.00  0.00    +0.010 C 
ATOM      7  C   UNL     1      -2.623   0.896  -0.167  0.00  0.00    +0.005 C 
ATOM      8  C   UNL     1      -2.069   1.807   0.914  0.00  0.00    -0.001 C 
ATOM      9  C   UNL     1      -0.640   1.420   1.285  0.00  0.00    -0.004 C 
ATOM     10  C   UNL     1       0.013   2.514   2.123  0.00  0.00    +0.004 C 
ATOM     11  C   UNL     1      -0.987   2.996   3.188  0.00  0.00    +0.004 C 
ATOM     12  C   UNL     1      -2.027   1.907   3.391  0.00  0.00    -0.001 C 
ATOM     13  C   UNL     1      -2.940   1.794   2.170  0.00  0.00    -0.026 C 
ATOM     14  C   UNL     1      -3.767   0.520   2.307  0.00  0.00    +0.011 C 
ATOM     15  C   UNL     1      -4.609   0.596   3.585  0.00  0.00    +0.045 C 
ATOM     16  C   UNL     1      -3.742   0.830   4.817  0.00  0.00    +0.177 C 
ATOM     17  C   UNL     1      -2.859   2.073   4.654  0.00  0.00    +0.048 C 
ATOM     18  C   UNL     1      -3.875   3.002   2.088  0.00  0.00    +0.012 C 
ATOM     19  C   UNL     1      -0.494   3.080  -1.276  0.00  0.00    +0.015 C 
ATOM     20  O   UNL     1       2.530   2.544  -2.018  0.00  0.00    -0.343 OA
ATOM     21  C   UNL     1       2.029   2.614  -3.369  0.00  0.00    +0.166 C 
ATOM     22  O   UNL     1       0.686   2.101  -3.316  0.00  0.00    -0.332 OA
ATOM     23  C   UNL     1       2.898   1.775  -4.309  0.00  0.00    +0.074 C 
ATOM     24  C   UNL     1       2.017   4.072  -3.846  0.00  0.00    +0.074 C 
ENDROOT
BRANCH   1  26
ATOM     25  C   UNL     1      -0.262  -0.548  -4.035  0.00  0.00    +0.089 C 
ATOM     26  C   UNL     1       0.495  -0.279  -2.759  0.00  0.00    +0.165 C 
ATOM     27  O   UNL     1       0.982  -1.196  -2.141  0.00  0.00    -0.295 OA
ENDBRANCH   1  26
BRANCH  16  28
ATOM     28  O   UNL     1      -4.599   1.006   5.978  0.00  0.00    -0.462 OA
BRANCH  28  29
ATOM     29  C   UNL     1      -4.927  -0.098   6.667  0.00  0.00    +0.304 C 
ATOM     30  O   UNL     1      -4.512  -1.176   6.312  0.00  0.00    -0.251 OA
ATOM     31  C   UNL     1      -5.812   0.006   7.882  0.00  0.00    +0.136 C 
ENDBRANCH  28  29
ENDBRANCH  16  28
TORSDOF 3
