REMARK  Name = ZINC12517015
REMARK  3 active torsions:
REMARK  status: ('A' for Active; 'I' for Inactive)
REMARK    1  A    between atoms: C_4  and  N_7
REMARK    2  A    between atoms: C_9  and  C_12
REMARK    3  A    between atoms: C_12  and  N_13
REMARK                            x       y       z     vdW  Elec       q    Type
REMARK                         _______ _______ _______ _____ _____    ______ ____
ROOT
ATOM      1  N   UNL     1      -0.601  -4.068   1.506  0.00  0.00    -0.240 N 
ATOM      2  C   UNL     1      -0.525  -2.756   1.826  0.00  0.00    +0.119 A 
ATOM      3  C   UNL     1      -1.042  -2.051   0.794  0.00  0.00    +0.008 A 
ATOM      4  C   UNL     1      -1.454  -2.960  -0.187  0.00  0.00    +0.140 A 
ATOM      5  N   UNL     1      -1.184  -4.169   0.237  0.00  0.00    -0.174 NA
ENDROOT
BRANCH   1   9
ATOM      6  C   UNL     1       0.673  -7.249   3.880  0.00  0.00    +0.000 A 
ATOM      7  C   UNL     1       0.111  -7.495   2.641  0.00  0.00    +0.002 A 
ATOM      8  C   UNL     1      -0.312  -6.443   1.852  0.00  0.00    +0.028 A 
ATOM      9  C   UNL     1      -0.173  -5.138   2.305  0.00  0.00    +0.065 A 
ATOM     10  C   UNL     1       0.396  -4.894   3.548  0.00  0.00    +0.028 A 
ATOM     11  C   UNL     1       0.812  -5.951   4.334  0.00  0.00    +0.002 A 
ENDBRANCH   1   9
BRANCH   3  12
ATOM     12  C   UNL     1      -1.160  -0.550   0.716  0.00  0.00    +0.143 C 
BRANCH  12  13
ATOM     13  N   UNL     1       0.086   0.011   0.177  0.00  0.00    -0.325 N 
ATOM     14  C   UNL     1       1.218  -0.229   1.098  0.00  0.00    +0.110 C 
ATOM     15  C   UNL     1       2.420  -0.346   0.133  0.00  0.00    +0.056 C 
ATOM     16  C   UNL     1       1.771  -0.802  -1.159  0.00  0.00    -0.025 A 
ATOM     17  C   UNL     1       0.405  -0.567  -1.057  0.00  0.00    +0.033 A 
ATOM     18  C   UNL     1      -0.423  -0.913  -2.124  0.00  0.00    +0.023 A 
ATOM     19  C   UNL     1       0.113  -1.476  -3.264  0.00  0.00    +0.002 A 
ATOM     20  C   UNL     1       1.474  -1.701  -3.357  0.00  0.00    +0.000 A 
ATOM     21  C   UNL     1       2.302  -1.363  -2.301  0.00  0.00    +0.005 A 
ENDBRANCH  12  13
ENDBRANCH   3  12
TORSDOF 3
