REMARK  Name = ZINC49171997
REMARK  8 active torsions:
REMARK  status: ('A' for Active; 'I' for Inactive)
REMARK    1  A    between atoms: C_1  and  C_2
REMARK    2  A    between atoms: C_2  and  C_3
REMARK    3  A    between atoms: C_2  and  C_4
REMARK    4  A    between atoms: C_4  and  C_5
REMARK    5  A    between atoms: N_15  and  C_16
REMARK    6  A    between atoms: C_16  and  C_17
REMARK    7  A    between atoms: N_21  and  C_22
REMARK    8  A    between atoms: C_24  and  C_27
REMARK                            x       y       z     vdW  Elec       q    Type
REMARK                         _______ _______ _______ _____ _____    ______ ____
ROOT
ATOM      1  C   UNL     1      -1.416  -2.058  -0.121  0.00  0.00    +0.085 C 
ATOM      2  C   UNL     1      -2.826  -2.598  -0.004  0.00  0.00    -0.021 A 
ATOM      3  C   UNL     1      -3.843  -1.853   0.529  0.00  0.00    +0.006 A 
ATOM      4  C   UNL     1      -5.138  -2.361   0.523  0.00  0.00    +0.002 A 
ATOM      5  C   UNL     1      -5.444  -3.595  -0.017  0.00  0.00    +0.026 A 
ATOM      6  C   UNL     1      -4.422  -4.382  -0.538  0.00  0.00    +0.050 A 
ATOM      7  C   UNL     1      -3.127  -3.864  -0.464  0.00  0.00    +0.008 A 
ATOM      8  C   UNL     1      -2.213  -4.964  -0.822  0.00  0.00    -0.020 A 
ATOM      9  C   UNL     1      -2.975  -5.961  -1.245  0.00  0.00    +0.091 A 
ATOM     10  N   UNL     1      -4.305  -5.611  -1.144  0.00  0.00    -0.339 N 
ATOM     11  C   UNL     1      -0.727  -4.814  -0.613  0.00  0.00    +0.065 C 
ATOM     12  C   UNL     1      -0.196  -3.728  -1.528  0.00  0.00    +0.145 C 
ATOM     13  N   UNL     1      -0.889  -2.435  -1.445  0.00  0.00    -0.299 NA
ATOM     14  H   UNL     1      -1.605  -2.363  -2.152  0.00  0.00    +0.123 HD
ENDROOT
BRANCH  12  15
ATOM     15  C   UNL     1      -0.289  -4.220  -2.950  0.00  0.00    +0.233 C 
ATOM     16  O   UNL     1      -1.206  -3.860  -3.657  0.00  0.00    -0.274 OA
ATOM     17  N   UNL     1       0.647  -5.060  -3.435  0.00  0.00    -0.300 N 
ATOM     18  C   UNL     1       1.760  -5.510  -2.588  0.00  0.00    +0.108 C 
ATOM     19  C   UNL     1       1.805  -7.041  -2.604  0.00  0.00    +0.019 C 
ATOM     20  C   UNL     1       1.880  -7.529  -4.053  0.00  0.00    +0.003 C 
ATOM     21  C   UNL     1       0.631  -7.074  -4.812  0.00  0.00    +0.019 C 
ATOM     22  C   UNL     1       0.570  -5.548  -4.818  0.00  0.00    +0.108 C 
ENDBRANCH  12  15
BRANCH   1  23
ATOM     23  C   UNL     1      -1.433  -0.534   0.013  0.00  0.00    +0.026 C 
BRANCH  23  25
ATOM     24  C   UNL     1      -0.019   1.526   0.010  0.00  0.00    +0.007 C 
ATOM     25  C   UNL     1       0.002  -0.004   0.002  0.00  0.00    -0.015 C 
ATOM     26  C   UNL     1       0.742  -0.511   1.242  0.00  0.00    +0.007 C 
ENDBRANCH  23  25
ENDBRANCH   1  23
BRANCH  10  27
ATOM     27  C   UNL     1      -5.428  -6.428  -1.612  0.00  0.00    +0.196 C 
BRANCH  27  28
ATOM     28  C   UNL     1      -5.823  -5.991  -2.999  0.00  0.00    +0.129 A 
ATOM     29  N   UNL     1      -6.699  -5.067  -3.285  0.00  0.00    -0.239 NA
ATOM     30  C   UNL     1      -6.794  -4.945  -4.617  0.00  0.00    +0.130 A 
ATOM     31  C   UNL     1      -5.944  -5.826  -5.178  0.00  0.00    +0.106 A 
ATOM     32  N   UNL     1      -5.324  -6.486  -4.152  0.00  0.00    -0.336 N 
ATOM     33  C   UNL     1      -4.310  -7.536  -4.281  0.00  0.00    +0.150 C 
ENDBRANCH  27  28
ENDBRANCH  10  27
TORSDOF 5
