REMARK  Name = ZINC39663883
REMARK  12 active torsions:
REMARK  status: ('A' for Active; 'I' for Inactive)
REMARK    1  A    between atoms: C_1  and  N_2
REMARK    2  A    between atoms: N_2  and  C_3
REMARK    3  A    between atoms: N_2  and  C_4
REMARK    4  A    between atoms: C_4  and  C_6
REMARK    5  A    between atoms: C_4  and  C_31
REMARK    6  A    between atoms: C_6  and  N_7
REMARK    7  A    between atoms: C_8  and  C_10
REMARK    8  A    between atoms: C_21  and  C_23
REMARK    9  A    between atoms: C_27  and  O_28
REMARK   10  A    between atoms: O_28  and  C_29
REMARK   11  A    between atoms: C_34  and  O_37
REMARK   12  A    between atoms: O_37  and  C_38
REMARK                            x       y       z     vdW  Elec       q    Type
REMARK                         _______ _______ _______ _____ _____    ______ ____
ROOT
ATOM      1  C   UNL     1      -2.473   3.727  -2.893  0.00  0.00    +0.100 C 
ATOM      2  C   UNL     1      -3.047   4.518  -1.696  0.00  0.00    +0.121 C 
ATOM      3  N   UNL     1      -3.765   5.659  -2.310  0.00  0.00    -0.296 N 
ATOM      4  C   UNL     1      -4.418   5.081  -3.510  0.00  0.00    +0.115 C 
ATOM      5  C   UNL     1      -3.376   4.099  -4.081  0.00  0.00    -0.004 C 
ATOM      6  C   UNL     1      -2.557   4.777  -5.176  0.00  0.00    -0.010 C 
ATOM      7  C   UNL     1      -3.465   5.086  -6.369  0.00  0.00    -0.082 C 
ATOM      8  N   UNL     1      -4.055   3.840  -6.873  0.00  0.00    +0.379 N 
ATOM      9  C   UNL     1      -4.915   3.242  -5.845  0.00  0.00    -0.082 C 
ATOM     10  C   UNL     1      -4.068   2.855  -4.629  0.00  0.00    -0.010 C 
ATOM     11  C   UNL     1      -3.814   6.934  -1.877  0.00  0.00    +0.251 C 
ATOM     12  O   UNL     1      -3.146   7.277  -0.921  0.00  0.00    -0.270 OA
ATOM     13  H   UNL     1      -4.604   4.038  -7.696  0.00  0.00    -0.086 HD
ATOM     14  H   UNL     1      -3.318   3.193  -7.111  0.00  0.00    -0.086 HD
ENDROOT
BRANCH  11  15
ATOM     15  C   UNL     1      -4.676   7.910  -2.560  0.00  0.00    +0.087 A 
ATOM     16  C   UNL     1      -5.886   7.544  -3.111  0.00  0.00    +0.063 A 
ATOM     17  S   UNL     1      -6.490   8.966  -3.763  0.00  0.00    -0.081 S 
ATOM     18  C   UNL     1      -5.178  10.090  -3.337  0.00  0.00    +0.120 A 
ATOM     19  C   UNL     1      -4.298   9.300  -2.681  0.00  0.00    +0.158 A 
ATOM     20 CL   UNL     1      -5.059  11.788  -3.675  0.00  0.00    -0.072 Cl
BRANCH  19  21
ATOM     21  O   UNL     1      -3.131   9.780  -2.172  0.00  0.00    -0.492 OA
ATOM     22  C   UNL     1      -1.989   9.755  -3.031  0.00  0.00    +0.277 C 
ENDBRANCH  19  21
ENDBRANCH  11  15
BRANCH   1  24
ATOM     23  N   UNL     1      -1.621   1.421  -3.162  0.00  0.00    -0.316 N 
ATOM     24  C   UNL     1      -2.542   2.246  -2.626  0.00  0.00    +0.218 C 
ATOM     25  O   UNL     1      -3.425   1.796  -1.927  0.00  0.00    -0.275 OA
ATOM     26  H   UNL     1      -0.914   1.780  -3.721  0.00  0.00    +0.149 HD
BRANCH  23  27
ATOM     27  C   UNL     1      -1.688  -0.020  -2.902  0.00  0.00    +0.093 C 
BRANCH  27  28
ATOM     28  C   UNL     1      -0.611  -0.736  -3.720  0.00  0.00    -0.021 C 
BRANCH  28  29
ATOM     29  C   UNL     1       0.752  -0.313  -3.236  0.00  0.00    -0.059 A 
ATOM     30  C   UNL     1       1.290  -0.887  -2.099  0.00  0.00    +0.005 A 
ATOM     31  C   UNL     1       2.539  -0.500  -1.653  0.00  0.00    +0.046 A 
ATOM     32  C   UNL     1       3.254   0.464  -2.348  0.00  0.00    +0.120 A 
ATOM     33  C   UNL     1       2.713   1.038  -3.489  0.00  0.00    +0.046 A 
ATOM     34  C   UNL     1       1.465   0.644  -3.933  0.00  0.00    +0.005 A 
BRANCH  32  35
ATOM     35  O   UNL     1       4.483   0.846  -1.911  0.00  0.00    -0.495 OA
ATOM     36  C   UNL     1       5.162   1.844  -2.676  0.00  0.00    +0.277 C 
ENDBRANCH  32  35
ENDBRANCH  28  29
BRANCH  28  38
ATOM     37  C   UNL     1      -2.046  -2.616  -4.122  0.00  0.00    -0.096 C 
ATOM     38  N   UNL     1      -0.759  -2.189  -3.558  0.00  0.00    +0.382 N 
ATOM     39  C   UNL     1       0.335  -2.873  -4.260  0.00  0.00    -0.096 C 
ATOM     40  H   UNL     1      -0.728  -2.423  -2.577  0.00  0.00    -0.082 HD
ENDBRANCH  28  38
ENDBRANCH  27  28
ENDBRANCH  23  27
ENDBRANCH   1  24
TORSDOF 8
