REMARK  Name = ZINC65786708
REMARK  3 active torsions:
REMARK  status: ('A' for Active; 'I' for Inactive)
REMARK    1  A    between atoms: C_4  and  C_7
REMARK    2  A    between atoms: C_7  and  C_8
REMARK    3  A    between atoms: N_15  and  C_16
REMARK                            x       y       z     vdW  Elec       q    Type
REMARK                         _______ _______ _______ _____ _____    ______ ____
ROOT
ATOM      1  C   UNL     1       4.056  -0.940   1.433  0.00  0.00    +0.082 C 
ATOM      2  C   UNL     1       5.377  -1.728   1.557  0.00  0.00    +0.024 C 
ATOM      3  C   UNL     1       6.057  -1.075   2.789  0.00  0.00    +0.021 C 
ATOM      4  C   UNL     1       5.630   0.406   2.632  0.00  0.00    +0.110 C 
ATOM      5  N   UNL     1       4.250   0.348   2.116  0.00  0.00    -0.282 N 
ATOM      6  C   UNL     1       3.321   1.315   2.248  0.00  0.00    +0.307 C 
ATOM      7  O   UNL     1       2.184   1.123   1.862  0.00  0.00    -0.252 OA
ATOM      8  N   UNL     1       3.651   2.495   2.808  0.00  0.00    -0.269 N 
ATOM      9  H   UNL     1       4.539   2.625   3.177  0.00  0.00    +0.156 HD
ENDROOT
BRANCH   8  10
ATOM     10  C   UNL     1       2.714   3.535   2.856  0.00  0.00    +0.036 A 
ATOM     11  C   UNL     1       1.365   3.245   3.051  0.00  0.00    +0.027 A 
ATOM     12  C   UNL     1       0.430   4.256   3.101  0.00  0.00    +0.049 A 
ATOM     13  C   UNL     1       0.827   5.579   2.957  0.00  0.00    +0.139 A 
ATOM     14  C   UNL     1       2.187   5.877   2.761  0.00  0.00    +0.019 A 
ATOM     15  C   UNL     1       3.130   4.846   2.717  0.00  0.00    +0.035 A 
ATOM     16  C   UNL     1       2.594   7.278   2.610  0.00  0.00    +0.018 A 
ATOM     17  C   UNL     1       1.633   8.234   2.667  0.00  0.00    +0.092 A 
ATOM     18  C   UNL     1       0.285   7.863   2.866  0.00  0.00    +0.337 A 
ATOM     19  O   UNL     1      -0.568   8.731   2.914  0.00  0.00    -0.245 OA
ATOM     20  O   UNL     1      -0.080   6.579   3.003  0.00  0.00    -0.422 OA
ENDBRANCH   8  10
BRANCH   1  21
ATOM     21  C   UNL     1       3.727  -0.702  -0.042  0.00  0.00    +0.057 C 
BRANCH  21  25
ATOM     22  C   UNL     1       2.787  -4.427  -1.911  0.00  0.00    +0.000 A 
ATOM     23  C   UNL     1       1.806  -3.726  -1.234  0.00  0.00    +0.000 A 
ATOM     24  C   UNL     1       2.111  -2.521  -0.629  0.00  0.00    +0.004 A 
ATOM     25  C   UNL     1       3.396  -2.017  -0.701  0.00  0.00    -0.046 A 
ATOM     26  C   UNL     1       4.377  -2.718  -1.376  0.00  0.00    +0.004 A 
ATOM     27  C   UNL     1       4.072  -3.922  -1.983  0.00  0.00    +0.000 A 
ENDBRANCH  21  25
ENDBRANCH   1  21
TORSDOF 3
