REMARK  Name = ZINC29493855
REMARK  5 active torsions:
REMARK  status: ('A' for Active; 'I' for Inactive)
REMARK    1  A    between atoms: C_1  and  C_2
REMARK    2  A    between atoms: C_10  and  C_12
REMARK    3  A    between atoms: C_12  and  S_13
REMARK    4  A    between atoms: S_13  and  C_14
REMARK    5  A    between atoms: N_15  and  C_16
REMARK                            x       y       z     vdW  Elec       q    Type
REMARK                         _______ _______ _______ _____ _____    ______ ____
ROOT
ATOM      1  S   UNL     1      -1.037   7.976  -1.690  0.00  0.00    -0.087 S 
ENDROOT
BRANCH   1   2
ATOM      2  C   UNL     1      -1.383   9.643  -1.236  0.00  0.00    +0.126 C 
ATOM      3  N   UNL     1      -1.186  10.040  -0.010  0.00  0.00    -0.365 N 
ATOM      4  N   UNL     1      -1.861  10.527  -2.177  0.00  0.00    -0.339 N 
ATOM      5  H   UNL     1      -2.078  11.567  -1.894  0.00  0.00    +0.144 HD
ATOM      6  H   UNL     1      -2.028  10.192  -3.211  0.00  0.00    +0.144 HD
ATOM      7  H   UNL     1      -0.708   9.366   0.716  0.00  0.00    +0.162 HD
BRANCH   3   8
ATOM      8  C   UNL     1      -1.601  11.384   0.401  0.00  0.00    +0.081 C 
ATOM      9  C   UNL     1      -0.364  12.222   0.730  0.00  0.00    +0.024 C 
ATOM     10  C   UNL     1      -0.798  13.625   1.159  0.00  0.00    +0.002 C 
ATOM     11  C   UNL     1      -1.691  13.526   2.398  0.00  0.00    +0.000 C 
ATOM     12  C   UNL     1      -2.928  12.688   2.069  0.00  0.00    +0.002 C 
ATOM     13  C   UNL     1      -2.494  11.285   1.639  0.00  0.00    +0.024 C 
ENDBRANCH   3   8
ENDBRANCH   1   2
BRANCH   1  14
ATOM     14  C   UNL     1      -0.462   7.331  -0.099  0.00  0.00    +0.132 C 
BRANCH  14  24
ATOM     15  C   UNL     1       2.078   1.257  -0.728  0.00  0.00    +0.064 C 
ATOM     16  C   UNL     1       0.692   1.846  -0.666  0.00  0.00    +0.033 A 
ATOM     17  C   UNL     1      -0.367   1.041  -0.748  0.00  0.00    +0.070 A 
ATOM     18  S   UNL     1      -1.719   2.202  -0.634  0.00  0.00    -0.057 S 
ATOM     19  C   UNL     1      -0.742   3.681  -0.474  0.00  0.00    +0.180 A 
ATOM     20  N   UNL     1       0.541   3.205  -0.525  0.00  0.00    -0.259 N 
ATOM     21  C   UNL     1       1.540   4.133  -0.430  0.00  0.00    +0.259 A 
ATOM     22  O   UNL     1       2.708   3.780  -0.468  0.00  0.00    -0.267 OA
ATOM     23  C   UNL     1       1.223   5.484  -0.291  0.00  0.00    +0.095 A 
ATOM     24  C   UNL     1      -0.098   5.877  -0.249  0.00  0.00    +0.059 A 
ATOM     25  N   UNL     1      -1.047   4.948  -0.344  0.00  0.00    -0.227 NA
ENDBRANCH  14  24
ENDBRANCH   1  14
TORSDOF 4
