REMARK  Name = ZINC05225552
REMARK  7 active torsions:
REMARK  status: ('A' for Active; 'I' for Inactive)
REMARK    1  A    between atoms: C_1  and  C_2
REMARK    2  A    between atoms: C_5  and  C_9
REMARK    3  A    between atoms: C_6  and  O_8
REMARK    4  A    between atoms: C_9  and  O_11
REMARK    5  A    between atoms: O_11  and  C_12
REMARK    6  A    between atoms: C_12  and  C_13
REMARK    7  A    between atoms: C_18  and  C_27
REMARK                            x       y       z     vdW  Elec       q    Type
REMARK                         _______ _______ _______ _____ _____    ______ ____
ROOT
ATOM      1  C   UNL     1       6.040   2.233  -0.043  0.00  0.00    +0.258 C 
ATOM      2  O   UNL     1       5.858   3.432  -0.035  0.00  0.00    -0.272 OA
ATOM      3  N   UNL     1       7.295   1.742  -0.057  0.00  0.00    -0.268 N 
ATOM      4  C   UNL     1       8.458   2.645  -0.063  0.00  0.00    +0.115 C 
ATOM      5  C   UNL     1       8.874   2.987  -1.470  0.00  0.00    +0.033 C 
ATOM      6  C   UNL     1       9.438   1.833  -2.283  0.00  0.00    +0.050 C 
ATOM      7  S   UNL     1       8.117   0.657  -2.700  0.00  0.00    -0.120 S 
ATOM      8  C   UNL     1       7.958  -0.298  -1.209  0.00  0.00    +0.030 A 
ATOM      9  C   UNL     1       7.526   0.363  -0.060  0.00  0.00    +0.050 A 
ATOM     10  C   UNL     1       7.335  -0.373   1.099  0.00  0.00    +0.024 A 
ATOM     11  C   UNL     1       7.612  -1.727   1.110  0.00  0.00    +0.002 A 
ATOM     12  C   UNL     1       8.077  -2.365  -0.025  0.00  0.00    +0.001 A 
ATOM     13  C   UNL     1       8.249  -1.646  -1.198  0.00  0.00    +0.016 A 
ATOM     14  C   UNL     1      10.059   2.376  -3.571  0.00  0.00    +0.019 C 
ENDROOT
BRANCH   1  15
ATOM     15  C   UNL     1       4.863   1.291  -0.037  0.00  0.00    +0.328 C 
BRANCH  15  16
ATOM     16  O   UNL     1       3.630   2.058  -0.021  0.00  0.00    -0.452 OA
BRANCH  16  17
ATOM     17  C   UNL     1       2.477   1.361  -0.014  0.00  0.00    +0.343 C 
ATOM     18  O   UNL     1       2.501   0.146  -0.020  0.00  0.00    -0.245 OA
BRANCH  17  23
ATOM     19  C   UNL     1      -2.559   4.145   0.050  0.00  0.00    +0.044 C 
ATOM     20  C   UNL     1      -1.242   3.413   0.033  0.00  0.00    -0.047 A 
ATOM     21  C   UNL     1      -0.056   4.129   0.025  0.00  0.00    +0.004 A 
ATOM     22  C   UNL     1       1.154   3.470   0.010  0.00  0.00    +0.019 A 
ATOM     23  C   UNL     1       1.186   2.073   0.002  0.00  0.00    +0.100 A 
ATOM     24  C   UNL     1      -0.016   1.352   0.009  0.00  0.00    +0.131 A 
ATOM     25  C   UNL     1      -1.225   2.033   0.019  0.00  0.00    +0.049 A 
BRANCH  24  26
ATOM     26  O   UNL     1       0.002  -0.004   0.002  0.00  0.00    -0.506 OA
ATOM     27  H   UNL     1       0.016  -0.402   0.883  0.00  0.00    +0.292 HD
ENDBRANCH  24  26
ENDBRANCH  17  23
ENDBRANCH  16  17
ENDBRANCH  15  16
ENDBRANCH   1  15
TORSDOF 5
