REMARK  Name = ZINC38654201
REMARK  11 active torsions:
REMARK  status: ('A' for Active; 'I' for Inactive)
REMARK    1  A    between atoms: C_1  and  C_2
REMARK    2  A    between atoms: C_2  and  C_3
REMARK    3  A    between atoms: C_3  and  O_4
REMARK    4  A    between atoms: O_4  and  C_5
REMARK    5  A    between atoms: C_10  and  C_11
REMARK    6  A    between atoms: C_11  and  O_13
REMARK    7  A    between atoms: O_13  and  C_14
REMARK    8  A    between atoms: C_21  and  N_36
REMARK    9  A    between atoms: C_22  and  C_34
REMARK   10  A    between atoms: C_23  and  C_25
REMARK   11  A    between atoms: C_29  and  N_31
REMARK                            x       y       z     vdW  Elec       q    Type
REMARK                         _______ _______ _______ _____ _____    ______ ____
ROOT
ATOM      1  C   UNL     1      -0.273  -6.739   0.001  0.00  0.00    +0.135 A 
ATOM      2  C   UNL     1       0.882  -5.973   0.071  0.00  0.00    +0.047 A 
ATOM      3  C   UNL     1       2.118  -6.588   0.090  0.00  0.00    +0.012 A 
ATOM      4  C   UNL     1       2.211  -7.968   0.039  0.00  0.00    +0.008 A 
ATOM      5  C   UNL     1       1.060  -8.738  -0.031  0.00  0.00    +0.138 A 
ATOM      6  C   UNL     1      -0.184  -8.121  -0.044  0.00  0.00    +0.093 A 
ATOM      7  O   UNL     1       1.131 -10.091  -0.082  0.00  0.00    -0.441 OA
ATOM      8  C   UNL     1       2.277 -10.689  -0.448  0.00  0.00    +0.199 C 
ATOM      9  C   UNL     1       3.467 -10.046  -0.404  0.00  0.00    +0.098 C 
ATOM     10  C   UNL     1       3.568  -8.620   0.061  0.00  0.00    +0.098 C 
ENDROOT
BRANCH  10  11
ATOM     11  C   UNL     1       4.113  -8.590   1.466  0.00  0.00    -0.033 A 
ATOM     12  C   UNL     1       3.427  -9.220   2.487  0.00  0.00    +0.005 A 
ATOM     13  C   UNL     1       3.927  -9.193   3.775  0.00  0.00    +0.003 A 
ATOM     14  C   UNL     1       5.114  -8.536   4.042  0.00  0.00    +0.033 A 
ATOM     15  C   UNL     1       5.801  -7.907   3.021  0.00  0.00    +0.126 A 
ATOM     16  C   UNL     1       5.303  -7.938   1.731  0.00  0.00    +0.037 A 
BRANCH  15  17
ATOM     17  N   UNL     1       7.071  -7.204   3.307  0.00  0.00    +0.056 N 
ATOM     18  O   UNL     1       7.508  -7.180   4.434  0.00  0.00    -0.126 OA
ATOM     19  O   UNL     1       7.672  -6.654   2.413  0.00  0.00    -0.126 OA
ENDBRANCH  15  17
ENDBRANCH  10  11
BRANCH   8  20
ATOM     20  N   UNL     1       2.240 -11.992  -0.880  0.00  0.00    -0.328 N 
ATOM     21  H   UNL     1       1.395 -12.466  -0.917  0.00  0.00    +0.145 HD
ATOM     22  H   UNL     1       3.059 -12.437  -1.148  0.00  0.00    +0.145 HD
ENDBRANCH   8  20
BRANCH   9  23
ATOM     23  C   UNL     1       4.654 -10.737  -0.808  0.00  0.00    +0.101 C 
ATOM     24  N   UNL     1       5.596 -11.286  -1.129  0.00  0.00    -0.191 NA
ENDBRANCH   9  23
BRANCH   1  25
ATOM     25  O   UNL     1      -1.491  -6.135  -0.017  0.00  0.00    -0.422 OA
BRANCH  25  26
ATOM     26  C   UNL     1      -2.214  -6.135   1.120  0.00  0.00    +0.348 C 
ATOM     27  O   UNL     1      -1.815  -6.741   2.094  0.00  0.00    -0.244 OA
BRANCH  26  33
ATOM     28  C   UNL     1      -4.247  -5.398   2.362  0.00  0.00    +0.134 A 
ATOM     29  C   UNL     1      -5.443  -4.698   2.410  0.00  0.00    +0.046 A 
ATOM     30  C   UNL     1      -5.889  -4.012   1.298  0.00  0.00    +0.004 A 
ATOM     31  C   UNL     1      -5.147  -4.017   0.127  0.00  0.00    +0.001 A 
ATOM     32  C   UNL     1      -3.957  -4.707   0.061  0.00  0.00    +0.018 A 
ATOM     33  C   UNL     1      -3.491  -5.401   1.181  0.00  0.00    +0.101 A 
BRANCH  28  34
ATOM     34  O   UNL     1      -3.808  -6.072   3.454  0.00  0.00    -0.491 OA
BRANCH  34  35
ATOM     35  C   UNL     1      -4.631  -6.024   4.620  0.00  0.00    +0.229 C 
BRANCH  35  37
ATOM     36  C   UNL     1      -4.859  -6.785   6.989  0.00  0.00    +0.007 C 
ATOM     37  C   UNL     1      -3.977  -6.836   5.740  0.00  0.00    +0.038 C 
ENDBRANCH  35  37
ENDBRANCH  34  35
ENDBRANCH  28  34
ENDBRANCH  26  33
ENDBRANCH  25  26
ENDBRANCH   1  25
TORSDOF 10
