REMARK  Name = ZINC15634652
REMARK  4 active torsions:
REMARK  status: ('A' for Active; 'I' for Inactive)
REMARK    1  A    between atoms: C_6  and  C_7
REMARK    2  A    between atoms: C_10  and  C_12
REMARK    3  A    between atoms: C_12  and  C_26
REMARK    4  A    between atoms: C_16  and  N_23
REMARK                            x       y       z     vdW  Elec       q    Type
REMARK                         _______ _______ _______ _____ _____    ______ ____
ROOT
ATOM      1  C   UNL     1       2.135   8.943   0.026  0.00  0.00    +0.097 C 
ATOM      2  C   UNL     1       1.887  10.308  -0.070  0.00  0.00    +0.066 C 
ATOM      3  C   UNL     1       2.880  11.395  -0.187  0.00  0.00    +0.012 A 
ATOM      4  C   UNL     1       4.271  11.414  -0.252  0.00  0.00    +0.043 A 
ATOM      5  C   UNL     1       4.934  12.618  -0.371  0.00  0.00    +0.127 A 
ATOM      6  C   UNL     1       4.217  13.802  -0.434  0.00  0.00    +0.034 A 
ATOM      7  C   UNL     1       2.838  13.794  -0.378  0.00  0.00    +0.026 A 
ATOM      8  C   UNL     1       2.151  12.592  -0.257  0.00  0.00    +0.042 A 
ATOM      9  N   UNL     1       0.793  12.306  -0.181  0.00  0.00    -0.281 N 
ATOM     10  C   UNL     1       0.577  10.984  -0.070  0.00  0.00    +0.250 C 
ATOM     11  O   UNL     1      -0.509  10.441   0.016  0.00  0.00    -0.270 OA
ATOM     12  H   UNL     1       0.091  12.975  -0.204  0.00  0.00    +0.155 HD
ENDROOT
BRANCH   1  16
ATOM     13  C   UNL     1      -1.141   7.232  -0.023  0.00  0.00    +0.079 A 
ATOM     14  C   UNL     1      -0.656   5.935  -0.042  0.00  0.00    +0.075 A 
ATOM     15  S   UNL     1       1.059   6.206  -0.027  0.00  0.00    -0.074 S 
ATOM     16  C   UNL     1       1.018   7.991   0.003  0.00  0.00    +0.120 A 
ATOM     17  N   UNL     1      -0.288   8.232  -0.006  0.00  0.00    -0.238 NA
BRANCH  13  23
ATOM     18  C   UNL     1      -3.081   8.799  -0.008  0.00  0.00    +0.011 A 
ATOM     19  C   UNL     1      -4.441   9.033  -0.012  0.00  0.00    +0.020 A 
ATOM     20  C   UNL     1      -5.329   7.971  -0.034  0.00  0.00    +0.041 A 
ATOM     21  C   UNL     1      -4.858   6.669  -0.048  0.00  0.00    +0.020 A 
ATOM     22  C   UNL     1      -3.500   6.424  -0.051  0.00  0.00    +0.011 A 
ATOM     23  C   UNL     1      -2.602   7.490  -0.027  0.00  0.00    +0.001 A 
ATOM     24 CL   UNL     1      -7.038   8.272  -0.039  0.00  0.00    -0.084 Cl
ENDBRANCH  13  23
ENDBRANCH   1  16
BRANCH   5  25
ATOM     25  N   UNL     1       6.412  12.645  -0.432  0.00  0.00    +0.056 N 
ATOM     26  O   UNL     1       6.998  13.708  -0.538  0.00  0.00    -0.126 OA
ATOM     27  O   UNL     1       7.043  11.605  -0.377  0.00  0.00    -0.126 OA
ENDBRANCH   5  25
BRANCH   1  28
ATOM     28  C   UNL     1       3.479   8.466   0.148  0.00  0.00    +0.103 C 
ATOM     29  N   UNL     1       4.546   8.088   0.244  0.00  0.00    -0.191 NA
ENDBRANCH   1  28
TORSDOF 4
