REMARK  Name = ZINC32528651
REMARK  9 active torsions:
REMARK  status: ('A' for Active; 'I' for Inactive)
REMARK    1  A    between atoms: C_1  and  C_2
REMARK    2  A    between atoms: C_5  and  C_8
REMARK    3  A    between atoms: C_11  and  N_16
REMARK    4  A    between atoms: C_12  and  C_13
REMARK    5  A    between atoms: C_17  and  C_19
REMARK    6  A    between atoms: C_19  and  C_21
REMARK    7  A    between atoms: C_19  and  S_22
REMARK    8  A    between atoms: S_22  and  C_23
REMARK    9  A    between atoms: C_25  and  C_33
REMARK                            x       y       z     vdW  Elec       q    Type
REMARK                         _______ _______ _______ _____ _____    ______ ____
ROOT
ATOM      1  N   UNL     1      -1.517   2.074  -2.463  0.00  0.00    -0.278 N 
ATOM      2  C   UNL     1      -2.274   2.506  -3.491  0.00  0.00    +0.231 C 
ATOM      3  O   UNL     1      -3.316   3.088  -3.275  0.00  0.00    -0.274 OA
ATOM      4  H   UNL     1      -0.572   1.547  -2.659  0.00  0.00    +0.155 HD
ENDROOT
BRANCH   1   8
ATOM      5  C   UNL     1      -1.950   2.293   1.259  0.00  0.00    +0.003 A 
ATOM      6  C   UNL     1      -3.131   2.954   1.152  0.00  0.00    +0.056 A 
ATOM      7  S   UNL     1      -3.366   3.091  -0.608  0.00  0.00    -0.081 S 
ATOM      8  C   UNL     1      -1.930   2.295  -1.158  0.00  0.00    +0.085 A 
ATOM      9  C   UNL     1      -1.293   1.928   0.019  0.00  0.00    +0.073 A 
BRANCH   5  14
ATOM     10  C   UNL     1       0.332   0.996   6.384  0.00  0.00    +0.044 C 
ATOM     11  C   UNL     1      -0.266   1.336   5.043  0.00  0.00    -0.050 A 
ATOM     12  C   UNL     1      -0.688   2.627   4.783  0.00  0.00    +0.004 A 
ATOM     13  C   UNL     1      -1.236   2.944   3.557  0.00  0.00    +0.009 A 
ATOM     14  C   UNL     1      -1.363   1.959   2.578  0.00  0.00    -0.017 A 
ATOM     15  C   UNL     1      -0.940   0.658   2.847  0.00  0.00    +0.009 A 
ATOM     16  C   UNL     1      -0.389   0.354   4.075  0.00  0.00    +0.004 A 
ENDBRANCH   5  14
BRANCH   9  17
ATOM     17  C   UNL     1      -0.014   1.213   0.009  0.00  0.00    +0.244 C 
ATOM     18  O   UNL     1       0.002  -0.004   0.002  0.00  0.00    -0.270 OA
ATOM     19  N   UNL     1       1.143   1.903   0.001  0.00  0.00    -0.325 N 
ATOM     20  H   UNL     1       2.103   1.366  -0.006  0.00  0.00    +0.145 HD
ATOM     21  H   UNL     1       1.129   3.003   0.003  0.00  0.00    +0.145 HD
ENDBRANCH   9  17
ENDBRANCH   1   8
BRANCH   2  22
ATOM     22  C   UNL     1      -1.825   2.267  -4.910  0.00  0.00    +0.136 C 
ATOM     23  C   UNL     1      -2.272   0.874  -5.357  0.00  0.00    +0.029 C 
BRANCH  22  24
ATOM     24  S   UNL     1      -2.561   3.515  -5.994  0.00  0.00    -0.093 S 
BRANCH  24  25
ATOM     25  C   UNL     1      -1.771   3.103  -7.515  0.00  0.00    +0.099 A 
ATOM     26  C   UNL     1      -2.067   3.850  -8.665  0.00  0.00    +0.038 A 
ATOM     27  C   UNL     1      -1.464   3.543  -9.847  0.00  0.00    -0.039 A 
ATOM     28  C   UNL     1      -0.550   2.469  -9.872  0.00  0.00    +0.003 A 
ATOM     29  C   UNL     1       0.107   2.100 -11.056  0.00  0.00    +0.010 A 
ATOM     30  C   UNL     1       0.984   1.058 -11.043  0.00  0.00    +0.001 A 
ATOM     31  C   UNL     1       1.237   0.352  -9.869  0.00  0.00    +0.002 A 
ATOM     32  C   UNL     1       0.617   0.683  -8.703  0.00  0.00    +0.028 A 
ATOM     33  C   UNL     1      -0.294   1.753  -8.677  0.00  0.00    +0.072 A 
ATOM     34  N   UNL     1      -0.913   2.103  -7.544  0.00  0.00    -0.240 NA
ATOM     35  C   UNL     1      -1.765   4.331 -11.095  0.00  0.00    +0.044 C 
ENDBRANCH  24  25
ENDBRANCH  22  24
ENDBRANCH   2  22
TORSDOF 6
