REMARK  Name = ZINC57456415
REMARK  3 active torsions:
REMARK  status: ('A' for Active; 'I' for Inactive)
REMARK    1  A    between atoms: C_1  and  C_2
REMARK    2  A    between atoms: C_5  and  C_8
REMARK    3  A    between atoms: C_25  and  C_27
REMARK                            x       y       z     vdW  Elec       q    Type
REMARK                         _______ _______ _______ _____ _____    ______ ____
ROOT
ATOM      1  C   UNL     1       0.080  -4.421  -0.118  0.00  0.00    +0.215 C 
ATOM      2  C   UNL     1      -1.345  -4.892   0.172  0.00  0.00    +0.113 C 
ATOM      3  C   UNL     1      -1.298  -6.408   0.067  0.00  0.00    +0.065 C 
ATOM      4  C   UNL     1      -0.177  -7.082   0.733  0.00  0.00    +0.039 A 
ATOM      5  C   UNL     1      -0.204  -8.449   1.004  0.00  0.00    +0.013 A 
ATOM      6  C   UNL     1       0.876  -9.042   1.624  0.00  0.00    +0.001 A 
ATOM      7  C   UNL     1       1.980  -8.282   1.976  0.00  0.00    +0.004 A 
ATOM      8  C   UNL     1       2.016  -6.926   1.715  0.00  0.00    +0.046 A 
ATOM      9  C   UNL     1       0.941  -6.308   1.095  0.00  0.00    +0.130 A 
ATOM     10  O   UNL     1       0.970  -4.976   0.853  0.00  0.00    -0.483 OA
ATOM     11  N   UNL     1      -2.180  -7.034  -0.639  0.00  0.00    -0.215 NA
ATOM     12  C   UNL     1      -3.122  -6.429  -1.405  0.00  0.00    +0.249 A 
ATOM     13  N   UNL     1      -4.094  -6.957  -2.141  0.00  0.00    -0.198 NA
ATOM     14  C   UNL     1      -4.768  -5.994  -2.762  0.00  0.00    +0.247 A 
ATOM     15  N   UNL     1      -4.261  -4.832  -2.440  0.00  0.00    -0.156 NA
ATOM     16  N   UNL     1      -3.211  -5.082  -1.548  0.00  0.00    -0.221 N 
ATOM     17  C   UNL     1      -2.305  -4.192  -0.806  0.00  0.00    +0.155 C 
ENDROOT
BRANCH  17  18
ATOM     18  C   UNL     1      -1.483  -3.417  -1.803  0.00  0.00    -0.004 A 
ATOM     19  C   UNL     1      -0.588  -4.077  -2.623  0.00  0.00    +0.008 A 
ATOM     20  C   UNL     1       0.167  -3.367  -3.537  0.00  0.00    +0.020 A 
ATOM     21  C   UNL     1       0.026  -1.994  -3.632  0.00  0.00    +0.042 A 
ATOM     22  C   UNL     1      -0.870  -1.332  -2.812  0.00  0.00    +0.040 A 
ATOM     23  C   UNL     1      -1.628  -2.044  -1.901  0.00  0.00    +0.048 A 
ATOM     24 CL   UNL     1      -2.757  -1.215  -0.875  0.00  0.00    -0.083 Cl
ATOM     25 CL   UNL     1       0.975  -1.101  -4.781  0.00  0.00    -0.083 Cl
ENDBRANCH  17  18
BRANCH   1  30
ATOM     26  C   UNL     1       0.295   1.348   0.146  0.00  0.00    +0.044 C 
ATOM     27  C   UNL     1       0.239  -0.157   0.077  0.00  0.00    -0.050 A 
ATOM     28  C   UNL     1      -0.604  -0.856   0.921  0.00  0.00    +0.004 A 
ATOM     29  C   UNL     1      -0.655  -2.236   0.858  0.00  0.00    +0.007 A 
ATOM     30  C   UNL     1       0.135  -2.917  -0.050  0.00  0.00    -0.007 A 
ATOM     31  C   UNL     1       0.977  -2.217  -0.894  0.00  0.00    +0.007 A 
ATOM     32  C   UNL     1       1.026  -0.837  -0.834  0.00  0.00    +0.004 A 
ENDBRANCH   1  30
TORSDOF 2
