REMARK  Name = ZINC21541784
REMARK  7 active torsions:
REMARK  status: ('A' for Active; 'I' for Inactive)
REMARK    1  A    between atoms: C_1  and  C_2
REMARK    2  A    between atoms: C_6  and  C_32
REMARK    3  A    between atoms: C_7  and  N_8
REMARK    4  A    between atoms: C_9  and  S_13
REMARK    5  A    between atoms: S_13  and  C_14
REMARK    6  A    between atoms: C_14  and  C_15
REMARK    7  A    between atoms: C_21  and  C_26
REMARK                            x       y       z     vdW  Elec       q    Type
REMARK                         _______ _______ _______ _____ _____    ______ ____
ROOT
ATOM      1  C   UNL     1       1.017  -3.648   6.323  0.00  0.00    +0.121 A 
ATOM      2  N   UNL     1       1.180  -3.888   7.649  0.00  0.00    -0.310 N 
ATOM      3  H   UNL     1       1.110  -3.153   8.278  0.00  0.00    +0.170 HD
ATOM      4  C   UNL     1       1.436  -5.127   8.108  0.00  0.00    +0.260 A 
ATOM      5  O   UNL     1       1.579  -5.327   9.302  0.00  0.00    -0.267 OA
ATOM      6  C   UNL     1       1.538  -6.207   7.173  0.00  0.00    +0.080 A 
ATOM      7  C   UNL     1       1.804  -7.619   7.420  0.00  0.00    +0.004 A 
ATOM      8  C   UNL     1       1.854  -8.466   6.364  0.00  0.00    +0.056 A 
ATOM      9  S   UNL     1       1.543  -7.404   4.967  0.00  0.00    -0.076 S 
ATOM     10  C   UNL     1       1.355  -5.862   5.824  0.00  0.00    +0.116 A 
ATOM     11  N   UNL     1       1.098  -4.612   5.446  0.00  0.00    -0.226 NA
ENDROOT
BRANCH   7  12
ATOM     12  C   UNL     1       2.017  -8.117   8.800  0.00  0.00    -0.017 A 
ATOM     13  C   UNL     1       2.921  -7.475   9.645  0.00  0.00    +0.008 A 
ATOM     14  C   UNL     1       3.114  -7.943  10.928  0.00  0.00    +0.001 A 
ATOM     15  C   UNL     1       2.413  -9.048  11.377  0.00  0.00    +0.000 A 
ATOM     16  C   UNL     1       1.515  -9.690  10.543  0.00  0.00    +0.001 A 
ATOM     17  C   UNL     1       1.310  -9.227   9.259  0.00  0.00    +0.008 A 
ENDBRANCH   7  12
BRANCH   1  18
ATOM     18  C   UNL     1       0.730  -2.244   5.854  0.00  0.00    +0.151 C 
BRANCH  18  19
ATOM     19  S   UNL     1       0.555  -2.233   4.049  0.00  0.00    -0.076 S 
BRANCH  19  21
ATOM     20  N   UNL     1       0.020  -0.026   2.427  0.00  0.00    -0.187 N 
ATOM     21  C   UNL     1       0.228  -0.545   3.663  0.00  0.00    +0.214 A 
ATOM     22  N   UNL     1       0.139   0.450   4.519  0.00  0.00    -0.101 NA
ATOM     23  N   UNL     1      -0.109   1.551   3.905  0.00  0.00    -0.022 NA
ATOM     24  N   UNL     1      -0.190   1.349   2.635  0.00  0.00    -0.038 NA
BRANCH  20  31
ATOM     25  C   UNL     1       1.929   0.735   0.457  0.00  0.00    +0.046 C 
ATOM     26  C   UNL     1       0.935  -0.372   0.216  0.00  0.00    -0.025 A 
ATOM     27  C   UNL     1       0.936  -1.053  -0.986  0.00  0.00    +0.005 A 
ATOM     28  C   UNL     1       0.025  -2.069  -1.208  0.00  0.00    +0.001 A 
ATOM     29  C   UNL     1      -0.891  -2.406  -0.228  0.00  0.00    +0.005 A 
ATOM     30  C   UNL     1      -0.897  -1.728   0.976  0.00  0.00    -0.025 A 
ATOM     31  C   UNL     1       0.020  -0.712   1.204  0.00  0.00    +0.076 A 
ATOM     32  C   UNL     1      -1.896  -2.096   2.043  0.00  0.00    +0.046 C 
ENDBRANCH  20  31
ENDBRANCH  19  21
ENDBRANCH  18  19
ENDBRANCH   1  18
TORSDOF 5
