REMARK  Name = ZINC16044872
REMARK  7 active torsions:
REMARK  status: ('A' for Active; 'I' for Inactive)
REMARK    1  A    between atoms: C_4  and  S_25
REMARK    2  A    between atoms: C_5  and  N_7
REMARK    3  A    between atoms: C_8  and  C_10
REMARK    4  A    between atoms: C_10  and  O_11
REMARK    5  A    between atoms: O_11  and  N_12
REMARK    6  A    between atoms: C_13  and  C_15
REMARK    7  A    between atoms: S_25  and  C_26
REMARK                            x       y       z     vdW  Elec       q    Type
REMARK                         _______ _______ _______ _____ _____    ______ ____
ROOT
ATOM      1  N   UNL     1      -9.561   1.065   3.017  0.00  0.00    -0.283 N 
ATOM      2  C   UNL     1      -8.858   1.323   1.897  0.00  0.00    +0.245 C 
ATOM      3  O   UNL     1      -9.311   1.020   0.813  0.00  0.00    -0.273 OA
ATOM      4  H   UNL     1      -9.168   1.239   3.887  0.00  0.00    +0.155 HD
ENDROOT
BRANCH   1   9
ATOM      5  C   UNL     1     -12.498  -0.759   1.759  0.00  0.00    +0.002 A 
ATOM      6  C   UNL     1     -13.428  -0.480   2.744  0.00  0.00    +0.001 A 
ATOM      7  C   UNL     1     -13.081   0.311   3.823  0.00  0.00    +0.017 A 
ATOM      8  C   UNL     1     -11.796   0.824   3.923  0.00  0.00    +0.034 A 
ATOM      9  C   UNL     1     -10.860   0.547   2.926  0.00  0.00    +0.047 A 
ATOM     10  C   UNL     1     -11.216  -0.248   1.847  0.00  0.00    +0.024 A 
BRANCH   8  11
ATOM     11  S   UNL     1     -11.348   1.826   5.301  0.00  0.00    -0.088 S 
BRANCH  11  12
ATOM     12  C   UNL     1     -12.810   1.876   6.284  0.00  0.00    +0.013 A 
ATOM     13  C   UNL     1     -13.697   2.939   6.160  0.00  0.00    +0.016 A 
ATOM     14  C   UNL     1     -14.844   2.972   6.927  0.00  0.00    +0.021 A 
ATOM     15  C   UNL     1     -15.105   1.954   7.828  0.00  0.00    +0.041 A 
ATOM     16  C   UNL     1     -14.221   0.898   7.958  0.00  0.00    +0.021 A 
ATOM     17  C   UNL     1     -13.075   0.856   7.189  0.00  0.00    +0.016 A 
ATOM     18 CL   UNL     1     -16.545   2.004   8.797  0.00  0.00    -0.084 Cl
ENDBRANCH  11  12
ENDBRANCH   8  11
ENDBRANCH   1   9
BRANCH   2  19
ATOM     19  C   UNL     1      -7.509   1.988   1.990  0.00  0.00    +0.286 C 
BRANCH  19  20
ATOM     20  O   UNL     1      -6.967   2.153   0.678  0.00  0.00    -0.270 OA
BRANCH  20  21
ATOM     21  N   UNL     1      -5.694   2.772   0.654  0.00  0.00    -0.194 N 
ATOM     22  C   UNL     1      -5.071   2.986  -0.521  0.00  0.00    +0.242 C 
ATOM     23  O   UNL     1      -5.601   2.649  -1.559  0.00  0.00    -0.273 OA
ATOM     24  H   UNL     1      -5.270   3.042   1.484  0.00  0.00    +0.182 HD
BRANCH  22  25
ATOM     25  C   UNL     1      -3.716   3.646  -0.547  0.00  0.00    +0.050 C 
ATOM     26  C   UNL     1      -3.236   3.769  -1.994  0.00  0.00    +0.019 C 
ATOM     27  C   UNL     1      -1.860   4.439  -2.020  0.00  0.00    -0.009 C 
ATOM     28  C   UNL     1      -0.866   3.591  -1.224  0.00  0.00    +0.007 C 
ATOM     29  C   UNL     1      -1.346   3.467   0.224  0.00  0.00    -0.009 C 
ATOM     30  C   UNL     1      -2.721   2.798   0.249  0.00  0.00    +0.019 C 
ATOM     31  C   UNL     1      -1.444   4.860   0.849  0.00  0.00    +0.007 C 
ATOM     32  C   UNL     1      -2.438   5.707   0.053  0.00  0.00    -0.009 C 
ATOM     33  C   UNL     1      -1.959   5.831  -1.395  0.00  0.00    +0.007 C 
ATOM     34  C   UNL     1      -3.814   5.038   0.079  0.00  0.00    +0.019 C 
ENDBRANCH  22  25
ENDBRANCH  20  21
ENDBRANCH  19  20
ENDBRANCH   2  19
TORSDOF 7
