REMARK  Name = ZINC38730494
REMARK  6 active torsions:
REMARK  status: ('A' for Active; 'I' for Inactive)
REMARK    1  A    between atoms: C_1  and  C_2
REMARK    2  A    between atoms: C_2  and  C_3
REMARK    3  A    between atoms: C_17  and  C_19
REMARK    4  A    between atoms: C_22  and  C_25
REMARK    5  A    between atoms: C_25  and  C_26
REMARK    6  A    between atoms: C_25  and  C_27
REMARK                            x       y       z     vdW  Elec       q    Type
REMARK                         _______ _______ _______ _____ _____    ______ ____
ROOT
ATOM      1  C   UNL     1      -1.412  -0.526   0.013  0.00  0.00    -0.047 A 
ATOM      2  C   UNL     1      -2.051  -0.766   1.221  0.00  0.00    +0.007 A 
ATOM      3  C   UNL     1      -3.341  -1.246   1.253  0.00  0.00    +0.047 A 
ATOM      4  C   UNL     1      -4.024  -1.494   0.062  0.00  0.00    +0.139 A 
ATOM      5  C   UNL     1      -3.369  -1.241  -1.154  0.00  0.00    +0.065 A 
ATOM      6  C   UNL     1      -2.062  -0.755  -1.168  0.00  0.00    +0.019 A 
ATOM      7  C   UNL     1      -4.093  -1.488  -2.426  0.00  0.00    +0.199 A 
ATOM      8  O   UNL     1      -3.553  -1.457  -3.518  0.00  0.00    -0.287 OA
ATOM      9  C   UNL     1      -5.520  -1.772  -2.244  0.00  0.00    +0.072 A 
ATOM     10  C   UNL     1      -6.041  -1.992  -1.000  0.00  0.00    +0.199 A 
ATOM     11  O   UNL     1      -5.288  -1.971   0.117  0.00  0.00    -0.450 OA
ATOM     12  C   UNL     1      -7.486  -2.239  -1.142  0.00  0.00    +0.289 C 
ATOM     13  O   UNL     1      -8.247  -2.466  -0.221  0.00  0.00    -0.266 OA
ATOM     14  N   UNL     1      -7.843  -2.176  -2.441  0.00  0.00    -0.232 N 
ATOM     15  C   UNL     1      -6.636  -1.880  -3.231  0.00  0.00    +0.151 C 
ATOM     16  C   UNL     1      -9.123  -2.358  -2.945  0.00  0.00    +0.168 A 
ATOM     17  N   UNL     1      -9.523  -2.313  -4.198  0.00  0.00    -0.233 NA
ATOM     18  C   UNL     1     -10.788  -2.510  -4.518  0.00  0.00    +0.120 A 
ATOM     19  C   UNL     1     -11.649  -2.759  -3.500  0.00  0.00    +0.068 A 
ATOM     20  S   UNL     1     -10.540  -2.696  -2.102  0.00  0.00    -0.060 S 
ENDROOT
BRANCH  15  21
ATOM     21  C   UNL     1      -6.805  -0.578  -3.970  0.00  0.00    -0.022 A 
ATOM     22  C   UNL     1      -7.482   0.471  -3.377  0.00  0.00    +0.006 A 
ATOM     23  C   UNL     1      -7.636   1.666  -4.054  0.00  0.00    +0.004 A 
ATOM     24  C   UNL     1      -7.114   1.812  -5.326  0.00  0.00    -0.045 A 
ATOM     25  C   UNL     1      -6.436   0.763  -5.919  0.00  0.00    +0.004 A 
ATOM     26  C   UNL     1      -6.277  -0.430  -5.239  0.00  0.00    +0.006 A 
BRANCH  24  27
ATOM     27  C   UNL     1      -7.283   3.114  -6.065  0.00  0.00    +0.013 C 
ATOM     28  C   UNL     1      -5.907   3.700  -6.388  0.00  0.00    +0.012 C 
ATOM     29  C   UNL     1      -8.050   2.866  -7.366  0.00  0.00    +0.012 C 
ENDBRANCH  24  27
ENDBRANCH  15  21
BRANCH   1  31
ATOM     30  C   UNL     1      -0.019   1.526   0.010  0.00  0.00    +0.009 C 
ATOM     31  C   UNL     1       0.002  -0.004   0.002  0.00  0.00    +0.032 C 
ENDBRANCH   1  31
TORSDOF 3
