REMARK  Name = ZINC35556356
REMARK  13 active torsions:
REMARK  status: ('A' for Active; 'I' for Inactive)
REMARK    1  A    between atoms: C_1  and  C_2
REMARK    2  A    between atoms: C_2  and  C_3
REMARK    3  A    between atoms: C_12  and  C_13
REMARK    4  A    between atoms: C_13  and  C_15
REMARK    5  A    between atoms: C_13  and  C_31
REMARK    6  A    between atoms: C_15  and  C_16
REMARK    7  A    between atoms: N_18  and  C_19
REMARK    8  A    between atoms: N_18  and  C_24
REMARK    9  A    between atoms: C_19  and  C_20
REMARK   10  A    between atoms: C_20  and  N_21
REMARK   11  A    between atoms: N_21  and  C_22
REMARK   12  A    between atoms: N_21  and  C_23
REMARK   13  A    between atoms: C_24  and  C_25
REMARK                            x       y       z     vdW  Elec       q    Type
REMARK                         _______ _______ _______ _____ _____    ______ ____
ROOT
ATOM      1  C   UNL     1      -5.233  -1.635  -3.040  0.00  0.00    +0.060 C 
ENDROOT
BRANCH   1  11
ATOM      2  C   UNL     1      -1.412  -0.526   0.013  0.00  0.00    -0.024 A 
ATOM      3  C   UNL     1      -2.015  -0.863   1.205  0.00  0.00    +0.005 A 
ATOM      4  C   UNL     1      -3.316  -1.345   1.228  0.00  0.00    +0.001 A 
ATOM      5  C   UNL     1      -4.023  -1.492   0.067  0.00  0.00    +0.010 A 
ATOM      6  C   UNL     1      -3.432  -1.155  -1.151  0.00  0.00    +0.004 A 
ATOM      7  C   UNL     1      -2.114  -0.662  -1.180  0.00  0.00    +0.050 A 
ATOM      8  N   UNL     1      -1.802  -0.414  -2.498  0.00  0.00    -0.360 N 
ATOM      9  H   UNL     1      -0.952  -0.069  -2.814  0.00  0.00    +0.165 HD
ATOM     10  C   UNL     1      -2.869  -0.725  -3.295  0.00  0.00    +0.088 A 
ATOM     11  C   UNL     1      -3.883  -1.186  -2.545  0.00  0.00    -0.015 A 
BRANCH   2  13
ATOM     12  C   UNL     1      -0.019   1.526   0.010  0.00  0.00    +0.009 C 
ATOM     13  C   UNL     1       0.002  -0.004   0.002  0.00  0.00    +0.034 C 
ENDBRANCH   2  13
ENDBRANCH   1  11
BRANCH   1  14
ATOM     14  C   UNL     1      -5.061  -2.796  -3.985  0.00  0.00    -0.038 A 
ATOM     15  C   UNL     1      -4.311  -2.644  -5.137  0.00  0.00    +0.006 A 
ATOM     16  C   UNL     1      -4.152  -3.708  -6.004  0.00  0.00    +0.022 A 
ATOM     17  C   UNL     1      -4.745  -4.926  -5.721  0.00  0.00    +0.059 A 
ATOM     18  C   UNL     1      -5.495  -5.078  -4.568  0.00  0.00    +0.060 A 
ATOM     19  C   UNL     1      -5.648  -4.013  -3.697  0.00  0.00    +0.025 A 
ATOM     20 CL   UNL     1      -6.239  -6.606  -4.211  0.00  0.00    -0.082 Cl
ATOM     21 CL   UNL     1      -4.546  -6.263  -6.811  0.00  0.00    -0.082 Cl
ENDBRANCH   1  14
BRANCH   1  22
ATOM     22  C   UNL     1      -5.918  -0.479  -3.772  0.00  0.00    +0.109 C 
BRANCH  22  23
ATOM     23  C   UNL     1      -7.316  -0.888  -4.160  0.00  0.00    +0.217 C 
ATOM     24  O   UNL     1      -7.724  -1.995  -3.879  0.00  0.00    -0.276 OA
ATOM     25  N   UNL     1      -8.112  -0.023  -4.820  0.00  0.00    -0.299 N 
BRANCH  25  26
ATOM     26  C   UNL     1      -7.619   1.314  -5.159  0.00  0.00    +0.089 C 
BRANCH  26  27
ATOM     27  C   UNL     1      -6.951   1.277  -6.535  0.00  0.00    -0.060 C 
BRANCH  27  28
ATOM     28  N   UNL     1      -6.457   2.618  -6.876  0.00  0.00    +0.377 N 
ATOM     29  C   UNL     1      -5.393   3.000  -5.938  0.00  0.00    -0.097 C 
ATOM     30  C   UNL     1      -5.923   2.610  -8.245  0.00  0.00    -0.097 C 
ATOM     31  H   UNL     1      -7.215   3.281  -6.814  0.00  0.00    -0.083 HD
ENDBRANCH  27  28
ENDBRANCH  26  27
ENDBRANCH  25  26
BRANCH  25  32
ATOM     32  C   UNL     1      -9.471  -0.421  -5.197  0.00  0.00    +0.142 C 
BRANCH  32  33
ATOM     33  C   UNL     1     -10.425  -0.062  -4.087  0.00  0.00    -0.030 A 
ATOM     34  C   UNL     1     -10.683  -0.970  -3.077  0.00  0.00    +0.005 A 
ATOM     35  C   UNL     1     -11.559  -0.641  -2.059  0.00  0.00    +0.000 A 
ATOM     36  C   UNL     1     -12.176   0.596  -2.051  0.00  0.00    +0.000 A 
ATOM     37  C   UNL     1     -11.918   1.504  -3.061  0.00  0.00    +0.000 A 
ATOM     38  C   UNL     1     -11.039   1.177  -4.077  0.00  0.00    +0.005 A 
ENDBRANCH  32  33
ENDBRANCH  25  32
ENDBRANCH  22  23
ENDBRANCH   1  22
TORSDOF 10
