REMARK  Name = ZINC01877021
REMARK  10 active torsions:
REMARK  status: ('A' for Active; 'I' for Inactive)
REMARK    1  A    between atoms: C_1  and  C_2
REMARK    2  A    between atoms: C_2  and  N_3
REMARK    3  A    between atoms: C_14  and  C_16
REMARK    4  A    between atoms: N_17  and  N_18
REMARK    5  A    between atoms: C_19  and  C_21
REMARK    6  A    between atoms: C_21  and  S_22
REMARK    7  A    between atoms: S_22  and  C_23
REMARK    8  A    between atoms: C_26  and  S_28
REMARK    9  A    between atoms: S_28  and  C_29
REMARK   10  A    between atoms: C_29  and  C_30
REMARK                            x       y       z     vdW  Elec       q    Type
REMARK                         _______ _______ _______ _____ _____    ______ ____
ROOT
ATOM      1  N   UNL     1       8.311  -1.894  -1.868  0.00  0.00    -0.206 N 
ATOM      2  C   UNL     1       9.298  -1.777  -0.959  0.00  0.00    +0.242 C 
ATOM      3  O   UNL     1       9.046  -1.398   0.166  0.00  0.00    -0.273 OA
ATOM      4  H   UNL     1       8.513  -2.197  -2.767  0.00  0.00    +0.177 HD
ENDROOT
BRANCH   1   6
ATOM      5  C   UNL     1       6.042  -1.689  -2.392  0.00  0.00    +0.138 C 
ATOM      6  N   UNL     1       6.993  -1.577  -1.516  0.00  0.00    -0.188 NA
BRANCH   5  18
ATOM      7  N   UNL     1       0.688  -0.476  -1.203  0.00  0.00    -0.340 N 
ATOM      8  C   UNL     1       0.070  -0.736  -2.413  0.00  0.00    +0.050 A 
ATOM      9  C   UNL     1      -1.256  -0.641  -2.828  0.00  0.00    +0.026 A 
ATOM     10  C   UNL     1      -1.599  -0.970  -4.121  0.00  0.00    +0.002 A 
ATOM     11  C   UNL     1      -0.634  -1.398  -5.021  0.00  0.00    +0.001 A 
ATOM     12  C   UNL     1       0.683  -1.498  -4.629  0.00  0.00    +0.010 A 
ATOM     13  C   UNL     1       1.044  -1.168  -3.325  0.00  0.00    +0.008 A 
ATOM     14  C   UNL     1       2.328  -1.163  -2.598  0.00  0.00    +0.008 A 
ATOM     15  C   UNL     1       2.046  -0.721  -1.295  0.00  0.00    +0.050 A 
ATOM     16  C   UNL     1       3.080  -0.607  -0.369  0.00  0.00    +0.027 A 
ATOM     17  C   UNL     1       4.361  -0.918  -0.724  0.00  0.00    +0.011 A 
ATOM     18  C   UNL     1       4.654  -1.356  -2.021  0.00  0.00    -0.005 A 
ATOM     19  C   UNL     1       3.631  -1.485  -2.958  0.00  0.00    +0.020 A 
BRANCH   7  21
ATOM     20  C   UNL     1      -0.019   1.526   0.010  0.00  0.00    +0.027 C 
ATOM     21  C   UNL     1       0.002  -0.004   0.002  0.00  0.00    +0.119 C 
ENDBRANCH   7  21
ENDBRANCH   5  18
ENDBRANCH   1   6
BRANCH   2  22
ATOM     22  C   UNL     1      10.717  -2.118  -1.338  0.00  0.00    +0.173 C 
BRANCH  22  23
ATOM     23  S   UNL     1      11.803  -1.861   0.092  0.00  0.00    -0.088 S 
BRANCH  23  24
ATOM     24  C   UNL     1      13.403  -2.296  -0.505  0.00  0.00    +0.160 A 
ATOM     25  N   UNL     1      13.764  -2.709  -1.705  0.00  0.00    -0.134 NA
ATOM     26  N   UNL     1      15.084  -2.997  -1.961  0.00  0.00    -0.134 NA
ATOM     27  C   UNL     1      15.983  -2.860  -1.006  0.00  0.00    +0.160 A 
ATOM     28  S   UNL     1      14.971  -2.289   0.351  0.00  0.00    -0.033 S 
BRANCH  27  29
ATOM     29  S   UNL     1      17.720  -3.155  -1.056  0.00  0.00    -0.092 S 
BRANCH  29  30
ATOM     30  C   UNL     1      18.023  -3.705  -2.757  0.00  0.00    +0.113 C 
BRANCH  30  31
ATOM     31  C   UNL     1      19.490  -3.995  -2.938  0.00  0.00    -0.019 A 
ATOM     32  C   UNL     1      20.348  -2.992  -3.350  0.00  0.00    +0.006 A 
ATOM     33  C   UNL     1      21.694  -3.258  -3.515  0.00  0.00    +0.000 A 
ATOM     34  C   UNL     1      22.184  -4.527  -3.269  0.00  0.00    +0.001 A 
ATOM     35  C   UNL     1      21.328  -5.531  -2.857  0.00  0.00    +0.020 A 
ATOM     36  C   UNL     1      19.981  -5.264  -2.686  0.00  0.00    +0.045 A 
ATOM     37 CL   UNL     1      18.906  -6.522  -2.162  0.00  0.00    -0.083 Cl
ENDBRANCH  30  31
ENDBRANCH  29  30
ENDBRANCH  27  29
ENDBRANCH  23  24
ENDBRANCH  22  23
ENDBRANCH   2  22
TORSDOF 9
