REMARK  Name = ZINC35378134
REMARK  7 active torsions:
REMARK  status: ('A' for Active; 'I' for Inactive)
REMARK    1  A    between atoms: C_1  and  C_2
REMARK    2  A    between atoms: C_2  and  C_3
REMARK    3  A    between atoms: C_6  and  C_21
REMARK    4  A    between atoms: C_8  and  S_9
REMARK    5  A    between atoms: S_9  and  N_12
REMARK    6  A    between atoms: N_12  and  C_13
REMARK    7  A    between atoms: C_17  and  C_19
REMARK                            x       y       z     vdW  Elec       q    Type
REMARK                         _______ _______ _______ _____ _____    ______ ____
ROOT
ATOM      1  C   UNL     1      -1.404  -0.344   0.002  0.00  0.00    -0.021 A 
ATOM      2  C   UNL     1      -1.940  -0.453   1.273  0.00  0.00    +0.006 A 
ATOM      3  C   UNL     1      -3.261  -0.814   1.439  0.00  0.00    +0.010 A 
ATOM      4  C   UNL     1      -4.057  -1.068   0.324  0.00  0.00    +0.004 A 
ATOM      5  C   UNL     1      -3.513  -0.957  -0.954  0.00  0.00    +0.039 A 
ATOM      6  C   UNL     1      -2.191  -0.590  -1.109  0.00  0.00    +0.112 A 
ENDROOT
BRANCH   4   7
ATOM      7  C   UNL     1      -5.478  -1.457   0.496  0.00  0.00    +0.091 A 
ATOM      8  C   UNL     1      -6.025  -1.569   1.796  0.00  0.00    +0.035 A 
ATOM      9  C   UNL     1      -7.335  -1.928   1.916  0.00  0.00    +0.073 A 
ATOM     10  C   UNL     1      -8.067  -2.166   0.731  0.00  0.00    +0.265 A 
ATOM     11  O   UNL     1      -9.242  -2.490   0.789  0.00  0.00    -0.266 OA
ATOM     12  N   UNL     1      -7.458  -2.034  -0.462  0.00  0.00    -0.243 N 
ATOM     13  N   UNL     1      -6.224  -1.690  -0.557  0.00  0.00    -0.171 NA
ATOM     14  H   UNL     1      -7.966  -2.199  -1.272  0.00  0.00    +0.192 HD
ENDBRANCH   4   7
BRANCH   6  15
ATOM     15  S   UNL     1      -1.502  -0.443  -2.724  0.00  0.00    +0.073 S 
ATOM     16  O   UNL     1      -2.527  -0.811  -3.637  0.00  0.00    -0.150 OA
ATOM     17  O   UNL     1      -0.854   0.821  -2.775  0.00  0.00    -0.150 OA
BRANCH  15  18
ATOM     18  N   UNL     1      -0.315  -1.590  -2.857  0.00  0.00    -0.216 N 
ATOM     19  H   UNL     1       0.613  -1.320  -2.936  0.00  0.00    +0.174 HD
BRANCH  18  20
ATOM     20  C   UNL     1      -0.651  -2.946  -2.856  0.00  0.00    +0.048 A 
ATOM     21  C   UNL     1      -1.561  -3.437  -1.928  0.00  0.00    +0.025 A 
ATOM     22  C   UNL     1      -1.892  -4.778  -1.930  0.00  0.00    +0.017 A 
ATOM     23  C   UNL     1      -1.317  -5.632  -2.854  0.00  0.00    +0.021 A 
ATOM     24  C   UNL     1      -0.411  -5.146  -3.780  0.00  0.00    -0.035 A 
ATOM     25  C   UNL     1      -0.080  -3.805  -3.786  0.00  0.00    +0.029 A 
ATOM     26  C   UNL     1       0.213  -6.080  -4.785  0.00  0.00    +0.045 C 
ATOM     27 BR   UNL     1      -1.772  -7.468  -2.853  0.00  0.00    -0.050 Br
ENDBRANCH  18  20
ENDBRANCH  15  18
ENDBRANCH   6  15
BRANCH   1  29
ATOM     28  C   UNL     1       0.148   1.575  -0.236  0.00  0.00    +0.009 C 
ATOM     29  C   UNL     1       0.040   0.050  -0.173  0.00  0.00    +0.034 C 
ENDBRANCH   1  29
TORSDOF 5
