REMARK  Name = ZINC35550118
REMARK  9 active torsions:
REMARK  status: ('A' for Active; 'I' for Inactive)
REMARK    1  A    between atoms: C_1  and  C_2
REMARK    2  A    between atoms: C_2  and  C_3
REMARK    3  A    between atoms: C_12  and  C_13
REMARK    4  A    between atoms: C_13  and  C_15
REMARK    5  A    between atoms: C_13  and  C_33
REMARK    6  A    between atoms: C_15  and  C_16
REMARK    7  A    between atoms: N_21  and  C_24
REMARK    8  A    between atoms: C_24  and  C_25
REMARK    9  A    between atoms: C_26  and  C_27
REMARK                            x       y       z     vdW  Elec       q    Type
REMARK                         _______ _______ _______ _____ _____    ______ ____
ROOT
ATOM      1  C   UNL     1      -5.233  -1.635  -3.040  0.00  0.00    +0.060 C 
ENDROOT
BRANCH   1  11
ATOM      2  C   UNL     1      -1.412  -0.526   0.013  0.00  0.00    -0.024 A 
ATOM      3  C   UNL     1      -2.015  -0.863   1.205  0.00  0.00    +0.005 A 
ATOM      4  C   UNL     1      -3.316  -1.345   1.228  0.00  0.00    +0.001 A 
ATOM      5  C   UNL     1      -4.023  -1.492   0.067  0.00  0.00    +0.010 A 
ATOM      6  C   UNL     1      -3.432  -1.155  -1.151  0.00  0.00    +0.004 A 
ATOM      7  C   UNL     1      -2.114  -0.662  -1.180  0.00  0.00    +0.050 A 
ATOM      8  N   UNL     1      -1.802  -0.414  -2.498  0.00  0.00    -0.360 N 
ATOM      9  H   UNL     1      -0.952  -0.069  -2.814  0.00  0.00    +0.165 HD
ATOM     10  C   UNL     1      -2.869  -0.725  -3.295  0.00  0.00    +0.088 A 
ATOM     11  C   UNL     1      -3.883  -1.186  -2.545  0.00  0.00    -0.015 A 
BRANCH   2  13
ATOM     12  C   UNL     1      -0.019   1.526   0.010  0.00  0.00    +0.009 C 
ATOM     13  C   UNL     1       0.002  -0.004   0.002  0.00  0.00    +0.034 C 
ENDBRANCH   2  13
ENDBRANCH   1  11
BRANCH   1  14
ATOM     14  C   UNL     1      -5.908  -0.496  -3.761  0.00  0.00    -0.037 A 
ATOM     15  C   UNL     1      -5.315   0.062  -4.879  0.00  0.00    +0.004 A 
ATOM     16  C   UNL     1      -5.933   1.106  -5.541  0.00  0.00    +0.003 A 
ATOM     17  C   UNL     1      -7.143   1.594  -5.086  0.00  0.00    +0.038 A 
ATOM     18  C   UNL     1      -7.737   1.036  -3.967  0.00  0.00    +0.124 A 
ATOM     19  C   UNL     1      -7.121  -0.014  -3.308  0.00  0.00    +0.042 A 
ATOM     20  F   UNL     1      -8.920   1.513  -3.521  0.00  0.00    -0.205 F 
ENDBRANCH   1  14
BRANCH   1  21
ATOM     21  C   UNL     1      -5.058  -2.814  -4.000  0.00  0.00    +0.109 C 
BRANCH  21  22
ATOM     22  C   UNL     1      -6.412  -3.341  -4.399  0.00  0.00    +0.217 C 
ATOM     23  O   UNL     1      -7.418  -2.825  -3.960  0.00  0.00    -0.276 OA
ATOM     24  N   UNL     1      -6.506  -4.386  -5.245  0.00  0.00    -0.299 N 
ATOM     25  C   UNL     1      -5.299  -5.031  -5.784  0.00  0.00    +0.123 C 
ATOM     26  C   UNL     1      -5.407  -6.541  -5.549  0.00  0.00    +0.103 C 
ATOM     27  N   UNL     1      -6.675  -7.031  -6.107  0.00  0.00    -0.296 NA
ATOM     28  C   UNL     1      -7.826  -6.428  -5.423  0.00  0.00    +0.103 C 
ATOM     29  C   UNL     1      -7.817  -4.917  -5.648  0.00  0.00    +0.123 C 
BRANCH  27  30
ATOM     30  C   UNL     1      -6.740  -8.498  -6.056  0.00  0.00    +0.111 C 
BRANCH  30  31
ATOM     31  C   UNL     1      -7.929  -8.975  -6.851  0.00  0.00    -0.011 C 
ATOM     32  C   UNL     1      -7.764  -9.859  -7.824  0.00  0.00    +0.005 C 
BRANCH  32  33
ATOM     33  C   UNL     1      -8.930 -10.327  -8.603  0.00  0.00    -0.025 A 
ATOM     34  C   UNL     1     -10.205  -9.836  -8.320  0.00  0.00    +0.008 A 
ATOM     35  C   UNL     1     -11.289 -10.277  -9.050  0.00  0.00    +0.001 A 
ATOM     36  C   UNL     1     -11.114 -11.204 -10.062  0.00  0.00    +0.000 A 
ATOM     37  C   UNL     1      -9.853 -11.695 -10.348  0.00  0.00    +0.001 A 
ATOM     38  C   UNL     1      -8.759 -11.258  -9.629  0.00  0.00    +0.008 A 
ENDBRANCH  32  33
ENDBRANCH  30  31
ENDBRANCH  27  30
ENDBRANCH  21  22
ENDBRANCH   1  21
TORSDOF 8
