REMARK  Name = ZINC00855860
REMARK  7 active torsions:
REMARK  status: ('A' for Active; 'I' for Inactive)
REMARK    1  A    between atoms: C_5  and  N_7
REMARK    2  A    between atoms: N_7  and  C_8
REMARK    3  A    between atoms: C_8  and  N_10
REMARK    4  A    between atoms: N_10  and  C_11
REMARK    5  A    between atoms: C_11  and  C_13
REMARK    6  A    between atoms: C_11  and  N_17
REMARK    7  A    between atoms: C_18  and  C_20
REMARK                            x       y       z     vdW  Elec       q    Type
REMARK                         _______ _______ _______ _____ _____    ______ ____
ROOT
ATOM      1  C   UNL     1      -0.263   2.325   1.081  0.00  0.00    +0.211 C 
ENDROOT
BRANCH   1   2
ATOM      2  C   UNL     1       0.513   1.636  -0.043  0.00  0.00    +0.225 C 
ATOM      3 CL   UNL     1       0.230  -0.143   0.034  0.00  0.00    -0.080 Cl
ATOM      4 CL   UNL     1       2.274   1.973   0.148  0.00  0.00    -0.080 Cl
ATOM      5 CL   UNL     1      -0.050   2.265  -1.636  0.00  0.00    -0.080 Cl
ENDBRANCH   1   2
BRANCH   1   6
ATOM      6  N   UNL     1      -1.694   2.050   0.926  0.00  0.00    -0.287 N 
ATOM      7  C   UNL     1      -2.590   3.048   1.061  0.00  0.00    +0.281 C 
ATOM      8  O   UNL     1      -2.210   4.177   1.311  0.00  0.00    -0.267 OA
ATOM      9  H   UNL     1      -1.996   1.151   0.726  0.00  0.00    +0.151 HD
BRANCH   7  10
ATOM     10  C   UNL     1      -4.022   2.774   0.905  0.00  0.00    +0.189 A 
ATOM     11  C   UNL     1      -5.030   3.688   1.016  0.00  0.00    +0.054 A 
ATOM     12  C   UNL     1      -6.230   2.993   0.793  0.00  0.00    +0.042 A 
ATOM     13  C   UNL     1      -5.905   1.703   0.559  0.00  0.00    +0.196 A 
ATOM     14  O   UNL     1      -4.573   1.575   0.623  0.00  0.00    -0.458 OA
ENDBRANCH   7  10
ENDBRANCH   1   6
BRANCH   1  15
ATOM     15  N   UNL     1       0.195   1.813   2.375  0.00  0.00    -0.305 N 
ATOM     16  H   UNL     1       0.319   0.860   2.503  0.00  0.00    +0.150 HD
BRANCH  15  17
ATOM     17  C   UNL     1       0.443   2.667   3.388  0.00  0.00    +0.136 C 
ATOM     18  S   UNL     1       0.223   4.350   3.162  0.00  0.00    -0.019 S 
BRANCH  17  19
ATOM     19  N   UNL     1       0.864   2.196   4.579  0.00  0.00    -0.296 N 
ATOM     20  H   UNL     1       0.929   1.240   4.726  0.00  0.00    +0.154 HD
BRANCH  19  25
ATOM     21  C   UNL     1       0.707   5.022   6.926  0.00  0.00    +0.002 A 
ATOM     22  C   UNL     1       1.889   4.851   7.622  0.00  0.00    +0.001 A 
ATOM     23  C   UNL     1       2.733   3.801   7.311  0.00  0.00    +0.017 A 
ATOM     24  C   UNL     1       2.396   2.918   6.302  0.00  0.00    +0.039 A 
ATOM     25  C   UNL     1       1.208   3.087   5.601  0.00  0.00    +0.047 A 
ATOM     26  C   UNL     1       0.366   4.146   5.914  0.00  0.00    +0.024 A 
ATOM     27 BR   UNL     1       3.551   1.483   5.875  0.00  0.00    -0.048 Br
ENDBRANCH  19  25
ENDBRANCH  17  19
ENDBRANCH  15  17
ENDBRANCH   1  15
TORSDOF 7
