REMARK  Name = ZINC40008830
REMARK  11 active torsions:
REMARK  status: ('A' for Active; 'I' for Inactive)
REMARK    1  A    between atoms: C_1  and  C_2
REMARK    2  A    between atoms: C_2  and  N_3
REMARK    3  A    between atoms: N_3  and  C_4
REMARK    4  A    between atoms: N_3  and  C_6
REMARK    5  A    between atoms: C_4  and  C_5
REMARK    6  A    between atoms: C_6  and  C_7
REMARK    7  A    between atoms: C_7  and  C_8
REMARK    8  A    between atoms: C_8  and  N_9
REMARK    9  A    between atoms: C_10  and  C_27
REMARK   10  A    between atoms: C_17  and  C_26
REMARK   11  A    between atoms: C_18  and  C_25
REMARK                            x       y       z     vdW  Elec       q    Type
REMARK                         _______ _______ _______ _____ _____    ______ ____
ROOT
ATOM      1  N   UNL     1      -0.168  -3.893   3.441  0.00  0.00    -0.284 N 
ATOM      2  C   UNL     1       1.258  -4.179   3.667  0.00  0.00    +0.145 C 
ATOM      3  C   UNL     1       1.413  -4.342   5.143  0.00  0.00    +0.072 A 
ATOM      4  C   UNL     1       2.590  -4.646   5.964  0.00  0.00    +0.199 A 
ATOM      5  O   UNL     1       3.726  -4.647   5.525  0.00  0.00    -0.287 OA
ATOM      6  C   UNL     1       2.264  -4.950   7.380  0.00  0.00    +0.065 A 
ATOM      7  C   UNL     1       3.243  -5.450   8.238  0.00  0.00    +0.019 A 
ATOM      8  C   UNL     1       2.926  -5.730   9.538  0.00  0.00    -0.047 A 
ATOM      9  C   UNL     1       1.636  -5.519  10.004  0.00  0.00    -0.044 A 
ATOM     10  C   UNL     1       0.658  -5.025   9.171  0.00  0.00    +0.050 A 
ATOM     11  C   UNL     1       0.956  -4.729   7.841  0.00  0.00    +0.140 A 
ATOM     12  O   UNL     1      -0.018  -4.235   7.043  0.00  0.00    -0.450 OA
ATOM     13  C   UNL     1       0.185  -4.160   5.713  0.00  0.00    +0.199 A 
ATOM     14  C   UNL     1      -0.786  -3.879   4.640  0.00  0.00    +0.283 C 
ATOM     15  O   UNL     1      -1.970  -3.667   4.811  0.00  0.00    -0.267 OA
ATOM     16  C   UNL     1       1.302  -5.836  11.439  0.00  0.00    +0.044 C 
ATOM     17  C   UNL     1       3.982  -6.270  10.469  0.00  0.00    +0.044 C 
ENDROOT
BRANCH   2  18
ATOM     18  C   UNL     1       2.102  -3.030   3.178  0.00  0.00    -0.021 A 
ATOM     19  C   UNL     1       1.690  -1.728   3.395  0.00  0.00    +0.006 A 
ATOM     20  C   UNL     1       2.464  -0.674   2.946  0.00  0.00    +0.001 A 
ATOM     21  C   UNL     1       3.651  -0.922   2.281  0.00  0.00    +0.015 A 
ATOM     22  C   UNL     1       4.063  -2.224   2.064  0.00  0.00    +0.018 A 
ATOM     23  C   UNL     1       3.291  -3.278   2.518  0.00  0.00    +0.021 A 
ATOM     24 BR   UNL     1       5.686  -2.563   1.154  0.00  0.00    -0.050 Br
ENDBRANCH   2  18
BRANCH   1  25
ATOM     25  C   UNL     1      -0.804  -3.658   2.143  0.00  0.00    +0.107 C 
BRANCH  25  26
ATOM     26  C   UNL     1      -0.756  -2.164   1.814  0.00  0.00    +0.000 C 
BRANCH  26  27
ATOM     27  C   UNL     1      -1.421  -1.919   0.458  0.00  0.00    -0.077 C 
BRANCH  27  28
ATOM     28  N   UNL     1      -1.374  -0.485   0.142  0.00  0.00    +0.379 N 
ATOM     29  H   UNL     1      -1.793   0.039   0.895  0.00  0.00    -0.082 HD
BRANCH  28  31
ATOM     30  C   UNL     1       0.082   1.451  -0.216  0.00  0.00    -0.017 C 
ATOM     31  C   UNL     1       0.024  -0.066  -0.029  0.00  0.00    -0.082 C 
ENDBRANCH  28  31
BRANCH  28  32
ATOM     32  C   UNL     1      -2.116  -0.233  -1.101  0.00  0.00    -0.082 C 
ATOM     33  C   UNL     1      -3.600  -0.533  -0.879  0.00  0.00    -0.017 C 
ENDBRANCH  28  32
ENDBRANCH  27  28
ENDBRANCH  26  27
ENDBRANCH  25  26
ENDBRANCH   1  25
TORSDOF 7
