REMARK  Name = ZINC19955551
REMARK  8 active torsions:
REMARK  status: ('A' for Active; 'I' for Inactive)
REMARK    1  A    between atoms: C_1  and  C_2
REMARK    2  A    between atoms: C_5  and  C_7
REMARK    3  A    between atoms: C_10  and  C_26
REMARK    4  A    between atoms: C_11  and  N_13
REMARK    5  A    between atoms: C_16  and  N_19
REMARK    6  A    between atoms: C_22  and  O_25
REMARK    7  A    between atoms: N_28  and  C_29
REMARK    8  A    between atoms: C_29  and  C_30
REMARK                            x       y       z     vdW  Elec       q    Type
REMARK                         _______ _______ _______ _____ _____    ______ ____
ROOT
ATOM      1  C   UNL     1       1.439   2.882  -8.790  0.00  0.00    +0.080 A 
ATOM      2  C   UNL     1       1.403   3.759  -7.702  0.00  0.00    +0.030 A 
ATOM      3  C   UNL     1       1.292   3.257  -6.434  0.00  0.00    +0.018 A 
ATOM      4  C   UNL     1       1.227   1.866  -6.266  0.00  0.00    +0.077 A 
ATOM      5  C   UNL     1       1.268   1.038  -7.402  0.00  0.00    +0.134 A 
ATOM      6  N   UNL     1       1.371   1.566  -8.611  0.00  0.00    -0.231 NA
ENDROOT
BRANCH   1  11
ATOM      7  C   UNL     1       1.886   5.835 -13.566  0.00  0.00    +0.051 C 
ATOM      8  C   UNL     1       1.768   4.834 -12.445  0.00  0.00    -0.013 A 
ATOM      9  C   UNL     1       1.714   3.477 -12.514  0.00  0.00    +0.011 A 
ATOM     10  C   UNL     1       1.611   2.751 -11.351  0.00  0.00    +0.018 A 
ATOM     11  C   UNL     1       1.554   3.423 -10.157  0.00  0.00    +0.038 A 
ATOM     12  S   UNL     1       1.662   5.124 -10.687  0.00  0.00    -0.092 S 
ENDBRANCH   1  11
BRANCH   5  13
ATOM     13  N   UNL     1       1.199  -0.335  -7.255  0.00  0.00    -0.315 N 
ATOM     14  C   UNL     1       2.478  -0.966  -7.606  0.00  0.00    +0.105 C 
ATOM     15  C   UNL     1       2.413  -2.463  -7.293  0.00  0.00    +0.004 C 
ATOM     16  C   UNL     1       1.273  -3.097  -8.096  0.00  0.00    -0.066 C 
ATOM     17  C   UNL     1      -0.040  -2.390  -7.748  0.00  0.00    +0.004 C 
ATOM     18  C   UNL     1       0.097  -0.895  -8.047  0.00  0.00    +0.105 C 
BRANCH  16  19
ATOM     19  N   UNL     1       1.167  -4.522  -7.756  0.00  0.00    +0.382 N 
ATOM     20  C   UNL     1      -0.049  -5.111  -8.330  0.00  0.00    -0.076 C 
ATOM     21  C   UNL     1      -0.201  -6.552  -7.838  0.00  0.00    +0.013 C 
ATOM     22  C   UNL     1       1.028  -7.363  -8.258  0.00  0.00    +0.111 C 
ATOM     23  C   UNL     1       2.285  -6.701  -7.688  0.00  0.00    +0.013 C 
ATOM     24  C   UNL     1       2.365  -5.255  -8.185  0.00  0.00    -0.076 C 
ATOM     25  H   UNL     1       1.096  -4.607  -6.662  0.00  0.00    -0.081 HD
BRANCH  22  26
ATOM     26  O   UNL     1       0.918  -8.694  -7.753  0.00  0.00    -0.392 OA
ATOM     27  H   UNL     1       1.713  -9.427  -7.955  0.00  0.00    +0.210 HD
ENDBRANCH  22  26
ENDBRANCH  16  19
ENDBRANCH   5  13
BRANCH   4  28
ATOM     28  C   UNL     1       1.113   1.281  -4.920  0.00  0.00    +0.247 C 
ATOM     29  O   UNL     1       0.957   0.082  -4.789  0.00  0.00    -0.270 OA
ATOM     30  N   UNL     1       1.182   2.075  -3.833  0.00  0.00    -0.311 N 
ATOM     31  H   UNL     1       1.324   3.159  -3.951  0.00  0.00    +0.149 HD
BRANCH  30  32
ATOM     32  C   UNL     1       1.068   1.493  -2.493  0.00  0.00    +0.108 C 
BRANCH  32  33
ATOM     33  C   UNL     1       1.179   2.601  -1.444  0.00  0.00    +0.014 C 
ATOM     34  C   UNL     1      -0.087   3.496  -1.457  0.00  0.00    +0.013 C 
ATOM     35  C   UNL     1      -0.682   3.316  -0.018  0.00  0.00    +0.018 C 
ATOM     36  C   UNL     1      -1.130   1.843   0.006  0.00  0.00    -0.027 C 
ATOM     37  C   UNL     1      -0.051   1.080   0.002  0.00  0.00    -0.026 C 
ATOM     38  C   UNL     1       1.188   1.994   0.001  0.00  0.00    +0.023 C 
ATOM     39  C   UNL     1       0.630   3.179   0.825  0.00  0.00    -0.016 C 
ATOM     40  C   UNL     1       1.441   4.319   1.359  0.00  0.00    +0.008 C 
ATOM     41  C   UNL     1       0.750   3.329   2.310  0.00  0.00    +0.008 C 
ENDBRANCH  32  33
ENDBRANCH  30  32
ENDBRANCH   4  28
TORSDOF 7
