REMARK  Name = ZINC10039994
REMARK  15 active torsions:
REMARK  status: ('A' for Active; 'I' for Inactive)
REMARK    1  A    between atoms: C_1  and  C_2
REMARK    2  A    between atoms: C_2  and  O_3
REMARK    3  A    between atoms: O_3  and  C_4
REMARK    4  A    between atoms: C_4  and  C_6
REMARK    5  A    between atoms: C_6  and  C_8
REMARK    6  A    between atoms: C_6  and  O_9
REMARK    7  A    between atoms: O_9  and  C_10
REMARK    8  A    between atoms: C_13  and  C_16
REMARK    9  A    between atoms: N_17  and  N_18
REMARK   10  A    between atoms: C_19  and  C_21
REMARK   11  A    between atoms: C_21  and  C_23
REMARK   12  A    between atoms: C_21  and  N_26
REMARK   13  A    between atoms: C_23  and  C_24
REMARK   14  A    between atoms: C_23  and  C_25
REMARK   15  A    between atoms: C_27  and  C_29
REMARK                            x       y       z     vdW  Elec       q    Type
REMARK                         _______ _______ _______ _____ _____    ______ ____
ROOT
ATOM      1  N   UNL     1       5.986   6.719  -0.557  0.00  0.00    -0.205 N 
ATOM      2  C   UNL     1       4.976   5.834  -0.443  0.00  0.00    +0.253 C 
ATOM      3  O   UNL     1       3.918   6.047  -0.997  0.00  0.00    -0.272 OA
ATOM      4  H   UNL     1       6.805   6.587  -0.055  0.00  0.00    +0.177 HD
ENDROOT
BRANCH   1   6
ATOM      5  C   UNL     1       6.824   8.683  -1.510  0.00  0.00    +0.138 C 
ATOM      6  N   UNL     1       5.852   7.830  -1.400  0.00  0.00    -0.188 NA
BRANCH   5  10
ATOM      7  C   UNL     1       6.419  12.048  -4.065  0.00  0.00    +0.122 A 
ATOM      8  C   UNL     1       7.593  11.861  -3.348  0.00  0.00    +0.046 A 
ATOM      9  C   UNL     1       7.729  10.771  -2.517  0.00  0.00    +0.013 A 
ATOM     10  C   UNL     1       6.683   9.852  -2.397  0.00  0.00    -0.005 A 
ATOM     11  C   UNL     1       5.506  10.041  -3.125  0.00  0.00    +0.013 A 
ATOM     12  C   UNL     1       5.377  11.137  -3.950  0.00  0.00    +0.046 A 
BRANCH   7  13
ATOM     13  O   UNL     1       6.289  13.125  -4.883  0.00  0.00    -0.478 OA
BRANCH  13  14
ATOM     14  C   UNL     1       7.440  13.955  -5.050  0.00  0.00    +0.278 C 
ATOM     15  C   UNL     1       7.502  14.976  -3.912  0.00  0.00    +0.064 C 
BRANCH  14  16
ATOM     16  C   UNL     1       7.351  14.678  -6.369  0.00  0.00    +0.348 C 
ATOM     17  O   UNL     1       6.358  14.572  -7.051  0.00  0.00    -0.247 OA
BRANCH  16  18
ATOM     18  O   UNL     1       8.373  15.441  -6.787  0.00  0.00    -0.462 OA
BRANCH  18  20
ATOM     19  C   UNL     1       9.475  16.924  -8.374  0.00  0.00    +0.048 C 
ATOM     20  C   UNL     1       8.217  16.108  -8.068  0.00  0.00    +0.229 C 
ENDBRANCH  18  20
ENDBRANCH  16  18
ENDBRANCH  14  16
ENDBRANCH  13  14
ENDBRANCH   7  13
ENDBRANCH   5  10
ENDBRANCH   1   6
BRANCH   2  21
ATOM     21  C   UNL     1       5.161   4.581   0.373  0.00  0.00    +0.163 C 
BRANCH  21  22
ATOM     22  N   UNL     1       4.148   3.594  -0.011  0.00  0.00    -0.300 N 
ATOM     23  C   UNL     1       4.383   2.280   0.174  0.00  0.00    +0.245 C 
ATOM     24  O   UNL     1       5.436   1.913   0.658  0.00  0.00    -0.270 OA
ATOM     25  H   UNL     1       3.308   3.887  -0.397  0.00  0.00    +0.150 HD
BRANCH  23  26
ATOM     26  C   UNL     1       3.361   1.285  -0.213  0.00  0.00    +0.038 A 
ATOM     27  C   UNL     1       2.150   1.704  -0.769  0.00  0.00    +0.014 A 
ATOM     28  C   UNL     1       1.200   0.772  -1.128  0.00  0.00    +0.022 A 
ATOM     29  C   UNL     1       1.443  -0.578  -0.937  0.00  0.00    +0.059 A 
ATOM     30  C   UNL     1       2.642  -1.001  -0.386  0.00  0.00    +0.060 A 
ATOM     31  C   UNL     1       3.601  -0.076  -0.023  0.00  0.00    +0.034 A 
ATOM     32 CL   UNL     1       2.939  -2.695  -0.151  0.00  0.00    -0.082 Cl
ATOM     33 CL   UNL     1       0.241  -1.746  -1.391  0.00  0.00    -0.082 Cl
ENDBRANCH  23  26
ENDBRANCH  21  22
BRANCH  21  34
ATOM     34  C   UNL     1       5.013   4.913   1.859  0.00  0.00    +0.012 C 
ATOM     35  C   UNL     1       3.580   5.369   2.139  0.00  0.00    +0.009 C 
ATOM     36  C   UNL     1       5.324   3.668   2.693  0.00  0.00    +0.009 C 
ENDBRANCH  21  34
ENDBRANCH   2  21
TORSDOF 11
