REMARK  Name = ZINC60344223
REMARK  7 active torsions:
REMARK  status: ('A' for Active; 'I' for Inactive)
REMARK    1  A    between atoms: C_9  and  C_12
REMARK    2  A    between atoms: C_10  and  O_11
REMARK    3  A    between atoms: C_18  and  C_20
REMARK    4  A    between atoms: N_22  and  C_23
REMARK    5  A    between atoms: C_23  and  C_24
REMARK    6  A    between atoms: C_24  and  C_25
REMARK    7  A    between atoms: C_25  and  N_26
REMARK                            x       y       z     vdW  Elec       q    Type
REMARK                         _______ _______ _______ _____ _____    ______ ____
ROOT
ATOM      1  C   UNL     1       4.969  -2.729  -0.058  0.00  0.00    +0.251 C 
ATOM      2  O   UNL     1       6.011  -2.112  -0.163  0.00  0.00    -0.270 OA
ATOM      3  N   UNL     1       4.989  -4.074   0.037  0.00  0.00    -0.286 N 
ATOM      4  C   UNL     1       3.804  -4.952   0.051  0.00  0.00    +0.109 C 
ATOM      5  C   UNL     1       4.323  -6.324  -0.447  0.00  0.00    +0.021 C 
ATOM      6  C   UNL     1       5.731  -6.378   0.201  0.00  0.00    +0.033 C 
ATOM      7  C   UNL     1       6.195  -4.908   0.139  0.00  0.00    +0.162 C 
ENDROOT
BRANCH   1  16
ATOM      8  C   UNL     1      -0.167   1.111  -0.716  0.00  0.00    +0.001 A 
ATOM      9  C   UNL     1       0.850   1.572  -1.547  0.00  0.00    +0.001 A 
ATOM     10  C   UNL     1       2.053   0.935  -1.601  0.00  0.00    +0.012 A 
ATOM     11  C   UNL     1       2.273  -0.202  -0.807  0.00  0.00    +0.024 A 
ATOM     12  C   UNL     1       1.239  -0.672   0.039  0.00  0.00    -0.014 A 
ATOM     13  C   UNL     1       0.011   0.011   0.067  0.00  0.00    +0.008 A 
ATOM     14  C   UNL     1       1.453  -1.812   0.838  0.00  0.00    +0.009 A 
ATOM     15  C   UNL     1       2.644  -2.459   0.798  0.00  0.00    +0.017 A 
ATOM     16  C   UNL     1       3.684  -2.008  -0.035  0.00  0.00    +0.079 A 
ATOM     17  C   UNL     1       3.507  -0.884  -0.839  0.00  0.00    +0.137 A 
BRANCH  17  18
ATOM     18  O   UNL     1       4.508  -0.452  -1.641  0.00  0.00    -0.505 OA
ATOM     19  H   UNL     1       5.100   0.188  -1.222  0.00  0.00    +0.292 HD
ENDBRANCH  17  18
ENDBRANCH   1  16
BRANCH   7  20
ATOM     20  C   UNL     1       6.955  -4.559   1.393  0.00  0.00    +0.234 C 
ATOM     21  O   UNL     1       6.535  -3.698   2.136  0.00  0.00    -0.274 OA
ATOM     22  N   UNL     1       8.100  -5.205   1.688  0.00  0.00    -0.314 N 
ATOM     23  H   UNL     1       8.436  -5.894   1.094  0.00  0.00    +0.149 HD
BRANCH  22  24
ATOM     24  C   UNL     1       8.839  -4.867   2.907  0.00  0.00    +0.102 C 
BRANCH  24  25
ATOM     25  C   UNL     1      10.092  -5.740   3.004  0.00  0.00    +0.000 C 
BRANCH  25  26
ATOM     26  C   UNL     1      10.863  -5.386   4.277  0.00  0.00    -0.077 C 
BRANCH  26  27
ATOM     27  N   UNL     1      12.066  -6.224   4.369  0.00  0.00    +0.383 N 
ATOM     28  C   UNL     1      12.751  -5.963   5.644  0.00  0.00    -0.074 C 
ATOM     29  C   UNL     1      13.809  -7.045   5.861  0.00  0.00    +0.017 C 
ATOM     30  C   UNL     1      14.673  -7.167   4.631  0.00  0.00    -0.048 A 
ATOM     31  C   UNL     1      15.887  -7.828   4.734  0.00  0.00    +0.004 A 
ATOM     32  C   UNL     1      16.703  -7.962   3.629  0.00  0.00    +0.000 A 
ATOM     33  C   UNL     1      16.308  -7.434   2.414  0.00  0.00    +0.000 A 
ATOM     34  C   UNL     1      15.100  -6.774   2.311  0.00  0.00    +0.002 A 
ATOM     35  C   UNL     1      14.279  -6.637   3.421  0.00  0.00    -0.061 A 
ATOM     36  C   UNL     1      12.974  -5.902   3.265  0.00  0.00    -0.043 C 
ATOM     37  H   UNL     1      11.804  -7.197   4.319  0.00  0.00    -0.081 HD
ENDBRANCH  26  27
ENDBRANCH  25  26
ENDBRANCH  24  25
ENDBRANCH  22  24
ENDBRANCH   7  20
TORSDOF 7
