REMARK  Name = ZINC36850433
REMARK  9 active torsions:
REMARK  status: ('A' for Active; 'I' for Inactive)
REMARK    1  A    between atoms: C_1  and  O_2
REMARK    2  A    between atoms: O_2  and  C_3
REMARK    3  A    between atoms: C_6  and  C_13
REMARK    4  A    between atoms: C_7  and  O_11
REMARK    5  A    between atoms: C_8  and  O_9
REMARK    6  A    between atoms: O_9  and  C_10
REMARK    7  A    between atoms: O_11  and  C_12
REMARK    8  A    between atoms: C_13  and  C_15
REMARK    9  A    between atoms: C_13  and  N_22
REMARK                            x       y       z     vdW  Elec       q    Type
REMARK                         _______ _______ _______ _____ _____    ______ ____
ROOT
ATOM      1  C   UNL     1       1.265   0.152  -1.268  0.00  0.00    +0.165 A 
ATOM      2  C   UNL     1       2.190   0.572  -2.212  0.00  0.00    +0.050 A 
ATOM      3  C   UNL     1       2.590  -0.285  -3.220  0.00  0.00    +0.009 A 
ATOM      4  C   UNL     1       2.069  -1.564  -3.292  0.00  0.00    -0.012 A 
ATOM      5  C   UNL     1       1.144  -1.992  -2.353  0.00  0.00    +0.167 A 
ATOM      6  C   UNL     1       0.744  -1.135  -1.334  0.00  0.00    +0.204 A 
ENDROOT
BRANCH   1   8
ATOM      7  C   UNL     1       1.448   2.303  -0.272  0.00  0.00    +0.277 C 
ATOM      8  O   UNL     1       0.872   0.996  -0.277  0.00  0.00    -0.491 OA
ENDBRANCH   1   8
BRANCH   6   9
ATOM      9  O   UNL     1      -0.161  -1.553  -0.407  0.00  0.00    -0.488 OA
ATOM     10  C   UNL     1      -1.541  -1.330  -0.701  0.00  0.00    +0.277 C 
ENDBRANCH   6   9
BRANCH   5  11
ATOM     11  O   UNL     1       0.631  -3.249  -2.425  0.00  0.00    -0.491 OA
ATOM     12  C   UNL     1       1.333  -4.277  -1.722  0.00  0.00    +0.277 C 
ENDBRANCH   5  11
BRANCH   4  13
ATOM     13  C   UNL     1       2.509  -2.494  -4.394  0.00  0.00    -0.008 C 
BRANCH  13  14
ATOM     14  C   UNL     1       1.740  -2.181  -5.651  0.00  0.00    -0.035 A 
ATOM     15  C   UNL     1       2.231  -1.266  -6.565  0.00  0.00    +0.026 A 
ATOM     16  C   UNL     1       1.513  -1.008  -7.687  0.00  0.00    +0.056 A 
ATOM     17  S   UNL     1       0.097  -2.074  -7.473  0.00  0.00    -0.074 S 
ATOM     18  C   UNL     1       0.558  -2.796  -5.907  0.00  0.00    +0.058 A 
ATOM     19 BR   UNL     1      -0.362  -4.083  -4.872  0.00  0.00    -0.042 Br
ATOM     20 BR   UNL     1       1.910   0.174  -9.108  0.00  0.00    -0.043 Br
ENDBRANCH  13  14
BRANCH  13  21
ATOM     21  N   UNL     1       3.946  -2.316  -4.641  0.00  0.00    +0.385 N 
ATOM     22  H   UNL     1       4.460  -2.525  -3.799  0.00  0.00    -0.089 HD
ATOM     23  H   UNL     1       4.239  -2.938  -5.379  0.00  0.00    -0.089 HD
ATOM     24  H   UNL     1       4.124  -1.361  -4.916  0.00  0.00    -0.089 HD
ENDBRANCH  13  21
ENDBRANCH   4  13
TORSDOF 6
