REMARK  Name = ZINC39394225
REMARK  13 active torsions:
REMARK  status: ('A' for Active; 'I' for Inactive)
REMARK    1  A    between atoms: C_1  and  C_2
REMARK    2  A    between atoms: C_2  and  C_3
REMARK    3  A    between atoms: C_2  and  C_4
REMARK    4  A    between atoms: C_4  and  C_5
REMARK    5  A    between atoms: C_7  and  C_11
REMARK    6  A    between atoms: C_11  and  N_12
REMARK    7  A    between atoms: C_24  and  N_32
REMARK    8  A    between atoms: C_26  and  O_28
REMARK    9  A    between atoms: O_28  and  C_29
REMARK   10  A    between atoms: C_29  and  C_30
REMARK   11  A    between atoms: C_33  and  C_35
REMARK   12  A    between atoms: C_35  and  S_36
REMARK   13  A    between atoms: S_36  and  C_37
REMARK                            x       y       z     vdW  Elec       q    Type
REMARK                         _______ _______ _______ _____ _____    ______ ____
ROOT
ATOM      1  N   UNL     1       0.018  -6.299  -0.016  0.00  0.00    +0.381 N 
ATOM      2  C   UNL     1       0.337  -6.023  -1.422  0.00  0.00    -0.078 C 
ATOM      3  C   UNL     1       0.452  -7.343  -2.189  0.00  0.00    -0.005 C 
ATOM      4  C   UNL     1       1.546  -8.201  -1.559  0.00  0.00    +0.021 C 
ATOM      5  C   UNL     1       1.265  -8.407  -0.072  0.00  0.00    -0.005 C 
ATOM      6  C   UNL     1       1.117  -7.044   0.609  0.00  0.00    -0.078 C 
ATOM      7  C   UNL     1       1.643  -9.532  -2.264  0.00  0.00    -0.034 A 
ATOM      8  C   UNL     1       0.850 -10.663  -2.168  0.00  0.00    +0.004 A 
ATOM      9  C   UNL     1       1.141 -11.783  -2.923  0.00  0.00    +0.000 A 
ATOM     10  C   UNL     1       2.227 -11.776  -3.777  0.00  0.00    +0.000 A 
ATOM     11  C   UNL     1       3.019 -10.649  -3.876  0.00  0.00    +0.006 A 
ATOM     12  C   UNL     1       2.729  -9.524  -3.121  0.00  0.00    -0.021 A 
ATOM     13  C   UNL     1       3.427  -8.183  -3.051  0.00  0.00    +0.133 C 
ATOM     14  C   UNL     1       2.917  -7.529  -1.748  0.00  0.00    +0.154 C 
ATOM     15  H   UNL     1      -0.829  -6.846   0.034  0.00  0.00    -0.082 HD
ENDROOT
BRANCH  13  16
ATOM     16  N   UNL     1       3.067  -7.361  -4.210  0.00  0.00    -0.305 N 
ATOM     17  C   UNL     1       3.761  -7.475  -5.359  0.00  0.00    +0.223 C 
ATOM     18  O   UNL     1       4.685  -8.258  -5.434  0.00  0.00    -0.275 OA
ATOM     19  H   UNL     1       2.329  -6.735  -4.149  0.00  0.00    +0.149 HD
BRANCH  17  20
ATOM     20  C   UNL     1       3.391  -6.630  -6.550  0.00  0.00    +0.164 C 
BRANCH  20  21
ATOM     21  S   UNL     1       4.503  -7.012  -7.932  0.00  0.00    -0.155 S 
ATOM     22  C   UNL     1       3.931  -5.926  -9.268  0.00  0.00    +0.085 C 
ENDBRANCH  20  21
ENDBRANCH  17  20
ENDBRANCH  13  16
BRANCH   1  23
ATOM     23  C   UNL     1      -0.180  -5.030   0.698  0.00  0.00    -0.046 C 
BRANCH  23  26
ATOM     24  C   UNL     1      -2.280  -4.125   3.134  0.00  0.00    +0.062 C 
ATOM     25  C   UNL     1      -0.980  -4.021   2.850  0.00  0.00    +0.024 C 
ATOM     26  C   UNL     1      -0.661  -5.315   2.122  0.00  0.00    +0.136 C 
ATOM     27  N   UNL     1      -1.957  -6.015   2.107  0.00  0.00    -0.182 NA
ATOM     28  N   UNL     1      -2.778  -5.298   2.684  0.00  0.00    -0.159 NA
BRANCH  24  29
ATOM     29  C   UNL     1      -3.082  -3.078   3.864  0.00  0.00    +0.060 C 
BRANCH  29  31
ATOM     30  C   UNL     1      -4.697  -1.192   3.586  0.00  0.00    +0.007 C 
ATOM     31  C   UNL     1      -3.785  -2.175   2.849  0.00  0.00    -0.011 C 
ATOM     32  C   UNL     1      -2.740  -1.397   2.047  0.00  0.00    +0.007 C 
ENDBRANCH  29  31
ENDBRANCH  24  29
ENDBRANCH  23  26
ENDBRANCH   1  23
BRANCH  14  33
ATOM     33  O   UNL     1       3.787  -7.830  -0.655  0.00  0.00    -0.370 OA
BRANCH  33  34
ATOM     34  C   UNL     1       4.741  -6.805  -0.372  0.00  0.00    +0.187 C 
BRANCH  34  35
ATOM     35  C   UNL     1       5.600  -7.226   0.793  0.00  0.00    -0.007 C 
ATOM     36  C   UNL     1       6.899  -7.063   0.742  0.00  0.00    +0.006 C 
ENDBRANCH  34  35
ENDBRANCH  33  34
ENDBRANCH  14  33
TORSDOF 10
