REMARK  Name = ZINC62825382
REMARK  8 active torsions:
REMARK  status: ('A' for Active; 'I' for Inactive)
REMARK    1  A    between atoms: C_1  and  C_2
REMARK    2  A    between atoms: C_2  and  C_3
REMARK    3  A    between atoms: C_3  and  C_5
REMARK    4  A    between atoms: C_3  and  N_6
REMARK    5  A    between atoms: N_6  and  C_7
REMARK    6  A    between atoms: C_7  and  C_8
REMARK    7  A    between atoms: N_10  and  C_11
REMARK    8  A    between atoms: C_12  and  C_19
REMARK                            x       y       z     vdW  Elec       q    Type
REMARK                         _______ _______ _______ _____ _____    ______ ____
ROOT
ATOM      1  C   UNL     1       0.443   0.297   4.963  0.00  0.00    +0.200 C 
ATOM      2  O   UNL     1      -0.256   1.286   4.896  0.00  0.00    -0.278 OA
ATOM      3  N   UNL     1       0.492  -0.419   6.104  0.00  0.00    -0.285 N 
ATOM      4  H   UNL     1       0.987  -1.252   6.133  0.00  0.00    +0.155 HD
ENDROOT
BRANCH   3   5
ATOM      5  C   UNL     1      -0.167   0.039   7.241  0.00  0.00    +0.062 A 
ATOM      6  C   UNL     1       0.530   0.180   8.452  0.00  0.00    +0.086 A 
ATOM      7  C   UNL     1      -0.145   0.642   9.587  0.00  0.00    +0.032 A 
ATOM      8  C   UNL     1      -1.485   0.954   9.511  0.00  0.00    +0.020 A 
ATOM      9  C   UNL     1      -2.170   0.814   8.313  0.00  0.00    +0.032 A 
ATOM     10  C   UNL     1      -1.516   0.364   7.183  0.00  0.00    +0.041 A 
ATOM     11 BR   UNL     1      -2.461   0.184   5.554  0.00  0.00    -0.048 Br
ATOM     12 BR   UNL     1      -2.395   1.577  11.047  0.00  0.00    -0.050 Br
BRANCH   6  13
ATOM     13  C   UNL     1       1.960  -0.155   8.527  0.00  0.00    +0.388 C 
ATOM     14  O   UNL     1       2.539  -0.130   9.604  0.00  0.00    -0.241 OA
ATOM     15  O   UNL     1       2.571  -0.459   7.511  0.00  0.00    -0.241 OA
ENDBRANCH   6  13
ENDBRANCH   3   5
BRANCH   1  16
ATOM     16  C   UNL     1       1.257  -0.132   3.769  0.00  0.00    +0.015 C 
BRANCH  16  17
ATOM     17  N   UNL     1       1.031   0.805   2.660  0.00  0.00    +0.386 N 
ATOM     18  H   UNL     1       1.311   1.732   2.942  0.00  0.00    -0.085 HD
ATOM     19  H   UNL     1       0.052   0.808   2.416  0.00  0.00    -0.085 HD
BRANCH  17  20
ATOM     20  C   UNL     1       1.824   0.386   1.496  0.00  0.00    -0.075 C 
ATOM     21  C   UNL     1       1.317  -0.966   0.993  0.00  0.00    -0.014 C 
BRANCH  20  23
ATOM     22  C   UNL     1       2.308   2.749   0.844  0.00  0.00    +0.002 C 
ATOM     23  C   UNL     1       1.687   1.429   0.385  0.00  0.00    -0.019 C 
ENDBRANCH  20  23
ENDBRANCH  17  20
ENDBRANCH  16  17
ENDBRANCH   1  16
TORSDOF 6
