REMARK  Name = ZINC35216584
REMARK  13 active torsions:
REMARK  status: ('A' for Active; 'I' for Inactive)
REMARK    1  A    between atoms: C_1  and  C_2
REMARK    2  A    between atoms: C_2  and  C_3
REMARK    3  A    between atoms: C_6  and  C_10
REMARK    4  A    between atoms: N_12  and  C_13
REMARK    5  A    between atoms: C_13  and  C_14
REMARK    6  A    between atoms: C_14  and  C_15
REMARK    7  A    between atoms: C_15  and  N_16
REMARK    8  A    between atoms: C_21  and  C_23
REMARK    9  A    between atoms: C_24  and  C_26
REMARK   10  A    between atoms: C_29  and  C_32
REMARK   11  A    between atoms: C_32  and  C_33
REMARK   12  A    between atoms: C_32  and  C_34
REMARK   13  A    between atoms: C_32  and  C_35
REMARK                            x       y       z     vdW  Elec       q    Type
REMARK                         _______ _______ _______ _____ _____    ______ ____
ROOT
ATOM      1  C   UNL     1       0.125  -0.587  -1.081  0.00  0.00    +0.135 C 
ATOM      2  N   UNL     1       0.487  -2.017  -1.194  0.00  0.00    -0.273 N 
ATOM      3  C   UNL     1       0.212  -2.657  -2.470  0.00  0.00    +0.173 C 
ATOM      4  C   UNL     1      -0.448  -1.732  -3.521  0.00  0.00    +0.103 C 
ATOM      5  S   UNL     1      -1.149  -0.432  -2.409  0.00  0.00    -0.136 S 
ATOM      6  C   UNL     1       1.042  -2.691  -0.168  0.00  0.00    +0.248 C 
ATOM      7  O   UNL     1       1.398  -2.094   0.830  0.00  0.00    -0.270 OA
ENDROOT
BRANCH   6   8
ATOM      8  C   UNL     1       1.218  -4.156  -0.255  0.00  0.00    +0.037 A 
ATOM      9  C   UNL     1       1.237  -4.787  -1.499  0.00  0.00    +0.013 A 
ATOM     10  C   UNL     1       1.402  -6.155  -1.574  0.00  0.00    +0.005 A 
ATOM     11  C   UNL     1       1.548  -6.901  -0.418  0.00  0.00    -0.042 A 
ATOM     12  C   UNL     1       1.530  -6.281   0.820  0.00  0.00    +0.005 A 
ATOM     13  C   UNL     1       1.372  -4.914   0.907  0.00  0.00    +0.013 A 
BRANCH  11  14
ATOM     14  C   UNL     1       1.728  -8.394  -0.506  0.00  0.00    -0.013 C 
ATOM     15  C   UNL     1       2.989  -8.709  -1.314  0.00  0.00    +0.015 C 
ATOM     16  C   UNL     1       1.866  -8.976   0.902  0.00  0.00    +0.015 C 
ATOM     17  C   UNL     1       0.511  -9.014  -1.197  0.00  0.00    +0.015 C 
ENDBRANCH  11  14
ENDBRANCH   6   8
BRANCH   3  18
ATOM     18  C   UNL     1      -0.703  -3.830  -2.229  0.00  0.00    +0.234 C 
ATOM     19  O   UNL     1      -1.075  -4.087  -1.103  0.00  0.00    -0.274 OA
ATOM     20  N   UNL     1      -1.107  -4.592  -3.264  0.00  0.00    -0.314 N 
ATOM     21  H   UNL     1      -0.809  -4.386  -4.163  0.00  0.00    +0.149 HD
BRANCH  20  22
ATOM     22  C   UNL     1      -1.997  -5.733  -3.029  0.00  0.00    +0.102 C 
BRANCH  22  23
ATOM     23  C   UNL     1      -2.301  -6.424  -4.360  0.00  0.00    +0.000 C 
BRANCH  23  24
ATOM     24  C   UNL     1      -3.230  -7.615  -4.115  0.00  0.00    -0.077 C 
BRANCH  24  25
ATOM     25  N   UNL     1      -3.521  -8.279  -5.393  0.00  0.00    +0.381 N 
ATOM     26  C   UNL     1      -2.284  -8.847  -5.941  0.00  0.00    -0.078 C 
ATOM     27  C   UNL     1      -2.567  -9.469  -7.311  0.00  0.00    -0.019 C 
ATOM     28  C   UNL     1      -3.614 -10.576  -7.156  0.00  0.00    -0.003 C 
ATOM     29  C   UNL     1      -4.874  -9.987  -6.514  0.00  0.00    -0.016 C 
ATOM     30  C   UNL     1      -4.505  -9.346  -5.175  0.00  0.00    -0.072 C 
ATOM     31  C   UNL     1      -5.761  -8.756  -4.530  0.00  0.00    -0.013 C 
ATOM     32  H   UNL     1      -3.897  -7.604  -6.043  0.00  0.00    -0.081 HD
ENDBRANCH  24  25
ENDBRANCH  23  24
ENDBRANCH  22  23
ENDBRANCH  20  22
ENDBRANCH   3  18
BRANCH   1  34
ATOM     33  C   UNL     1      -1.038   1.144   0.295  0.00  0.00    +0.006 C 
ATOM     34  C   UNL     1      -0.472  -0.277   0.293  0.00  0.00    +0.030 C 
ENDBRANCH   1  34
TORSDOF 8
