REMARK  Name = ZINC48382787
REMARK  7 active torsions:
REMARK  status: ('A' for Active; 'I' for Inactive)
REMARK    1  A    between atoms: C_1  and  C_2
REMARK    2  A    between atoms: C_4  and  O_26
REMARK    3  A    between atoms: C_5  and  C_23
REMARK    4  A    between atoms: C_7  and  S_8
REMARK    5  A    between atoms: S_8  and  N_11
REMARK    6  A    between atoms: N_11  and  C_12
REMARK    7  A    between atoms: C_16  and  C_18
REMARK                            x       y       z     vdW  Elec       q    Type
REMARK                         _______ _______ _______ _____ _____    ______ ____
ROOT
ATOM      1  S   UNL     1      -0.075  -0.029   2.747  0.00  0.00    +0.073 S 
ATOM      2  O   UNL     1      -1.271   0.739   2.740  0.00  0.00    -0.150 OA
ATOM      3  O   UNL     1       0.157  -1.069   3.688  0.00  0.00    -0.150 OA
ENDROOT
BRANCH   1  10
ATOM      4  C   UNL     1       2.239  -1.761   1.877  0.00  0.00    +0.046 C 
ATOM      5  C   UNL     1       1.168  -1.537   0.841  0.00  0.00    -0.020 A 
ATOM      6  C   UNL     1       1.289  -2.116  -0.406  0.00  0.00    +0.051 A 
ATOM      7  C   UNL     1       0.307  -1.914  -1.365  0.00  0.00    +0.131 A 
ATOM      8  C   UNL     1      -0.808  -1.119  -1.060  0.00  0.00    +0.106 A 
ATOM      9  C   UNL     1      -0.917  -0.539   0.208  0.00  0.00    +0.047 A 
ATOM     10  C   UNL     1       0.066  -0.755   1.148  0.00  0.00    +0.112 A 
BRANCH   8  11
ATOM     11  C   UNL     1      -1.857  -0.896  -2.068  0.00  0.00    +0.390 C 
ATOM     12  O   UNL     1      -2.828  -0.203  -1.799  0.00  0.00    -0.240 OA
ATOM     13  O   UNL     1      -1.758  -1.405  -3.177  0.00  0.00    -0.240 OA
ENDBRANCH   8  11
BRANCH   7  14
ATOM     14  O   UNL     1       0.425  -2.482  -2.591  0.00  0.00    -0.506 OA
ATOM     15  H   UNL     1       0.029  -3.361  -2.657  0.00  0.00    +0.292 HD
ENDBRANCH   7  14
ENDBRANCH   1  10
BRANCH   1  16
ATOM     16  N   UNL     1       1.175   1.044   2.910  0.00  0.00    -0.216 N 
ATOM     17  H   UNL     1       1.881   0.872   3.553  0.00  0.00    +0.174 HD
BRANCH  16  18
ATOM     18  C   UNL     1       1.213   2.197   2.122  0.00  0.00    +0.049 A 
ATOM     19  C   UNL     1       0.964   2.115   0.757  0.00  0.00    +0.024 A 
ATOM     20  C   UNL     1       1.000   3.252  -0.027  0.00  0.00    +0.003 A 
ATOM     21  C   UNL     1       1.284   4.478   0.541  0.00  0.00    +0.012 A 
ATOM     22  C   UNL     1       1.536   4.572   1.910  0.00  0.00    +0.021 A 
ATOM     23  C   UNL     1       1.493   3.425   2.703  0.00  0.00    +0.036 A 
BRANCH  22  24
ATOM     24  C   UNL     1       1.840   5.883   2.521  0.00  0.00    +0.153 A 
ATOM     25  C   UNL     1       1.904   7.079   1.880  0.00  0.00    +0.132 A 
ATOM     26  N   UNL     1       2.206   8.012   2.795  0.00  0.00    -0.335 N 
ATOM     27  C   UNL     1       2.328   7.438   3.959  0.00  0.00    +0.284 A 
ATOM     28  O   UNL     1       2.102   6.124   3.824  0.00  0.00    -0.444 OA
ATOM     29  H   UNL     1       2.316   8.959   2.619  0.00  0.00    +0.168 HD
ENDBRANCH  22  24
ENDBRANCH  16  18
ENDBRANCH   1  16
TORSDOF 6
