REMARK  Name = ZINC12412428
REMARK  7 active torsions:
REMARK  status: ('A' for Active; 'I' for Inactive)
REMARK    1  A    between atoms: C_1  and  C_2
REMARK    2  A    between atoms: C_2  and  O_3
REMARK    3  A    between atoms: O_3  and  C_4
REMARK    4  A    between atoms: C_4  and  C_6
REMARK    5  A    between atoms: C_7  and  C_35
REMARK    6  A    between atoms: C_14  and  C_15
REMARK    7  A    between atoms: C_26  and  C_28
REMARK                            x       y       z     vdW  Elec       q    Type
REMARK                         _______ _______ _______ _____ _____    ______ ____
ROOT
ATOM      1  C   UNL     1       5.192  -5.497   0.320  0.00  0.00    +0.085 C 
ATOM      2  C   UNL     1       6.483  -5.052   0.385  0.00  0.00    +0.053 C 
ATOM      3  N   UNL     1       6.752  -3.753   0.348  0.00  0.00    -0.228 NA
ATOM      4  C   UNL     1       5.852  -2.809   0.252  0.00  0.00    +0.178 A 
ATOM      5  N   UNL     1       4.496  -3.037   0.174  0.00  0.00    -0.275 N 
ATOM      6  C   UNL     1       3.681  -1.980   0.085  0.00  0.00    +0.268 A 
ATOM      7  O   UNL     1       2.475  -2.137   0.021  0.00  0.00    -0.266 OA
ATOM      8  C   UNL     1       4.237  -0.673   0.060  0.00  0.00    +0.081 A 
ATOM      9  C   UNL     1       3.607   0.532  -0.030  0.00  0.00    +0.030 C 
ATOM     10  S   UNL     1       5.982  -1.033   0.186  0.00  0.00    -0.046 S 
ATOM     11  C   UNL     1       4.089  -4.469   0.207  0.00  0.00    +0.162 C 
ATOM     12  C   UNL     1       7.611  -6.046   0.497  0.00  0.00    +0.066 C 
ENDROOT
BRANCH   9  13
ATOM     13  C   UNL     1       2.168   0.589  -0.282  0.00  0.00    +0.001 A 
ATOM     14  C   UNL     1       1.454  -0.209  -1.133  0.00  0.00    +0.091 A 
ATOM     15  N   UNL     1       0.144   0.144  -1.097  0.00  0.00    -0.360 N 
ATOM     16  H   UNL     1      -0.558  -0.280  -1.617  0.00  0.00    +0.165 HD
ATOM     17  C   UNL     1      -0.050   1.190  -0.218  0.00  0.00    +0.047 A 
ATOM     18  C   UNL     1       1.199   1.517   0.332  0.00  0.00    +0.007 A 
ATOM     19  C   UNL     1       1.305   2.548   1.261  0.00  0.00    +0.010 A 
ATOM     20  C   UNL     1       0.177   3.245   1.637  0.00  0.00    +0.001 A 
ATOM     21  C   UNL     1      -1.058   2.923   1.095  0.00  0.00    +0.002 A 
ATOM     22  C   UNL     1      -1.177   1.901   0.178  0.00  0.00    +0.026 A 
ENDBRANCH   9  13
BRANCH  11  23
ATOM     23  C   UNL     1       3.157  -4.659   1.376  0.00  0.00    -0.020 A 
ATOM     24  C   UNL     1       3.492  -4.148   2.617  0.00  0.00    +0.007 A 
ATOM     25  C   UNL     1       2.636  -4.317   3.688  0.00  0.00    +0.020 A 
ATOM     26  C   UNL     1       1.448  -5.006   3.522  0.00  0.00    +0.041 A 
ATOM     27  C   UNL     1       1.115  -5.521   2.281  0.00  0.00    +0.020 A 
ATOM     28  C   UNL     1       1.970  -5.347   1.210  0.00  0.00    +0.007 A 
ATOM     29 CL   UNL     1       0.374  -5.224   4.869  0.00  0.00    -0.084 Cl
ENDBRANCH  11  23
BRANCH   1  30
ATOM     30  C   UNL     1       4.898  -6.869   0.359  0.00  0.00    +0.339 C 
ATOM     31  O   UNL     1       5.801  -7.683   0.451  0.00  0.00    -0.245 OA
BRANCH  30  32
ATOM     32  O   UNL     1       3.616  -7.287   0.294  0.00  0.00    -0.462 OA
BRANCH  32  34
ATOM     33  C   UNL     1       1.889  -8.977   0.254  0.00  0.00    +0.048 C 
ATOM     34  C   UNL     1       3.390  -8.698   0.338  0.00  0.00    +0.229 C 
ENDBRANCH  32  34
ENDBRANCH  30  32
ENDBRANCH   1  30
TORSDOF 5
