REMARK  Name = ZINC09138554
REMARK  8 active torsions:
REMARK  status: ('A' for Active; 'I' for Inactive)
REMARK    1  A    between atoms: C_1  and  C_2
REMARK    2  A    between atoms: C_2  and  C_4
REMARK    3  A    between atoms: C_2  and  N_12
REMARK    4  A    between atoms: C_13  and  C_15
REMARK    5  A    between atoms: C_15  and  C_17
REMARK    6  A    between atoms: C_15  and  S_18
REMARK    7  A    between atoms: S_18  and  C_19
REMARK    8  A    between atoms: N_31  and  C_32
REMARK                            x       y       z     vdW  Elec       q    Type
REMARK                         _______ _______ _______ _____ _____    ______ ____
ROOT
ATOM      1  C   UNL     1      -4.487   1.218   0.631  0.00  0.00    +0.137 C 
ATOM      2  C   UNL     1      -5.203   1.711   1.890  0.00  0.00    +0.029 C 
ENDROOT
BRANCH   1   4
ATOM      3  N   UNL     1      -2.103   1.072   1.277  0.00  0.00    -0.308 N 
ATOM      4  C   UNL     1      -3.073   1.740   0.621  0.00  0.00    +0.227 C 
ATOM      5  O   UNL     1      -2.807   2.760   0.021  0.00  0.00    -0.275 OA
ATOM      6  H   UNL     1      -2.316   0.256   1.757  0.00  0.00    +0.149 HD
BRANCH   3   8
ATOM      7  C   UNL     1      -0.013   1.086   0.008  0.00  0.00    +0.033 C 
ATOM      8  C   UNL     1      -0.729   1.579   1.267  0.00  0.00    +0.102 C 
BRANCH   8   9
ATOM      9  C   UNL     1       0.000   1.080   2.488  0.00  0.00    -0.009 A 
ATOM     10  C   UNL     1      -0.411  -0.084   3.110  0.00  0.00    +0.008 A 
ATOM     11  C   UNL     1       0.257  -0.543   4.230  0.00  0.00    +0.020 A 
ATOM     12  C   UNL     1       1.337   0.164   4.729  0.00  0.00    +0.042 A 
ATOM     13  C   UNL     1       1.749   1.329   4.107  0.00  0.00    +0.040 A 
ATOM     14  C   UNL     1       1.083   1.784   2.982  0.00  0.00    +0.047 A 
ATOM     15 CL   UNL     1       1.604   3.241   2.196  0.00  0.00    -0.083 Cl
ATOM     16 CL   UNL     1       2.176  -0.412   6.135  0.00  0.00    -0.083 Cl
ENDBRANCH   8   9
ENDBRANCH   3   8
ENDBRANCH   1   4
BRANCH   1  17
ATOM     17  S   UNL     1      -5.362   1.817  -0.835  0.00  0.00    -0.075 S 
BRANCH  17  18
ATOM     18  C   UNL     1      -6.890   0.959  -0.652  0.00  0.00    +0.173 A 
ATOM     19  N   UNL     1      -7.063   0.154   0.378  0.00  0.00    -0.216 NA
ATOM     20  C   UNL     1      -8.207  -0.501   0.542  0.00  0.00    +0.117 A 
ATOM     21  C   UNL     1      -9.271  -0.380  -0.364  0.00  0.00    +0.076 A 
ATOM     22  C   UNL     1     -10.474  -1.171  -0.054  0.00  0.00    -0.023 A 
ATOM     23  C   UNL     1     -10.436  -1.927   1.054  0.00  0.00    -0.004 A 
ATOM     24  S   UNL     1      -8.825  -1.640   1.752  0.00  0.00    -0.073 S 
ATOM     25  C   UNL     1     -11.715  -2.691   1.266  0.00  0.00    +0.043 C 
ATOM     26  C   UNL     1     -12.425  -2.645  -0.105  0.00  0.00    +0.010 C 
ATOM     27  C   UNL     1     -11.843  -1.356  -0.716  0.00  0.00    +0.037 C 
ATOM     28  C   UNL     1      -9.055   0.495  -1.474  0.00  0.00    +0.263 A 
ATOM     29  O   UNL     1      -9.926   0.660  -2.311  0.00  0.00    -0.267 OA
ATOM     30  N   UNL     1      -7.875   1.133  -1.580  0.00  0.00    -0.290 N 
ATOM     31  C   UNL     1      -7.643   2.032  -2.714  0.00  0.00    +0.154 C 
ENDBRANCH  17  18
ENDBRANCH   1  17
TORSDOF 5
