REMARK  Name = ZINC09524322
REMARK  10 active torsions:
REMARK  status: ('A' for Active; 'I' for Inactive)
REMARK    1  A    between atoms: C_1  and  C_2
REMARK    2  A    between atoms: C_2  and  C_3
REMARK    3  A    between atoms: C_2  and  C_4
REMARK    4  A    between atoms: C_4  and  C_5
REMARK    5  A    between atoms: C_5  and  S_6
REMARK    6  A    between atoms: S_6  and  C_7
REMARK    7  A    between atoms: C_14  and  C_24
REMARK    8  A    between atoms: C_27  and  N_30
REMARK    9  A    between atoms: N_30  and  C_31
REMARK   10  A    between atoms: N_30  and  C_32
REMARK                            x       y       z     vdW  Elec       q    Type
REMARK                         _______ _______ _______ _____ _____    ______ ____
ROOT
ATOM      1  C   UNL     1       4.694  -0.098  -2.494  0.00  0.00    +0.171 A 
ATOM      2  N   UNL     1       5.617  -0.368  -3.460  0.00  0.00    -0.322 N 
ATOM      3  C   UNL     1       6.910   0.059  -3.313  0.00  0.00    +0.111 A 
ATOM      4  C   UNL     1       7.260   0.753  -2.197  0.00  0.00    +0.069 A 
ATOM      5  C   UNL     1       6.273   1.017  -1.222  0.00  0.00    +0.280 A 
ATOM      6  N   UNL     1       5.019   0.581  -1.413  0.00  0.00    -0.185 NA
ATOM      7  O   UNL     1       6.559   1.645  -0.212  0.00  0.00    -0.265 OA
ATOM      8  C   UNL     1       8.668   1.228  -1.993  0.00  0.00    +0.092 C 
ATOM      9  C   UNL     1       9.441   1.222  -3.287  0.00  0.00    +0.024 C 
ATOM     10  C   UNL     1      10.624   1.978  -3.354  0.00  0.00    +0.162 C 
ATOM     11  C   UNL     1      11.447   2.031  -4.612  0.00  0.00    +0.080 C 
ATOM     12  C   UNL     1      10.525   1.823  -5.819  0.00  0.00    +0.014 C 
ATOM     13  C   UNL     1       9.789   0.493  -5.643  0.00  0.00    +0.051 C 
ATOM     14  C   UNL     1       9.009   0.512  -4.351  0.00  0.00    +0.017 C 
ATOM     15  N   UNL     1       7.847  -0.208  -4.284  0.00  0.00    -0.304 N 
ATOM     16  O   UNL     1      10.991   2.599  -2.376  0.00  0.00    -0.292 OA
ATOM     17  H   UNL     1       7.683  -0.915  -4.928  0.00  0.00    +0.153 HD
ATOM     18  H   UNL     1       5.357  -0.864  -4.252  0.00  0.00    +0.169 HD
ENDROOT
BRANCH   8  19
ATOM     19  C   UNL     1       9.357   0.323  -1.004  0.00  0.00    -0.035 A 
ATOM     20  C   UNL     1       9.494  -1.024  -1.282  0.00  0.00    +0.006 A 
ATOM     21  C   UNL     1      10.125  -1.857  -0.378  0.00  0.00    +0.023 A 
ATOM     22  C   UNL     1      10.621  -1.339   0.812  0.00  0.00    +0.029 A 
ATOM     23  C   UNL     1      10.480   0.015   1.088  0.00  0.00    +0.023 A 
ATOM     24  C   UNL     1       9.854   0.843   0.177  0.00  0.00    +0.006 A 
BRANCH  22  25
ATOM     25  N   UNL     1      11.258  -2.178   1.728  0.00  0.00    -0.336 N 
ATOM     26  C   UNL     1      11.405  -3.606   1.435  0.00  0.00    +0.129 C 
ATOM     27  C   UNL     1      11.781  -1.630   2.983  0.00  0.00    +0.129 C 
ENDBRANCH  22  25
ENDBRANCH   8  19
BRANCH   1  28
ATOM     28  S   UNL     1       3.036  -0.658  -2.700  0.00  0.00    -0.088 S 
BRANCH  28  29
ATOM     29  C   UNL     1       2.187  -0.073  -1.207  0.00  0.00    +0.077 C 
BRANCH  29  30
ATOM     30  C   UNL     1       0.718  -0.497  -1.257  0.00  0.00    +0.014 C 
BRANCH  30  32
ATOM     31  C   UNL     1      -0.019   1.526   0.010  0.00  0.00    +0.007 C 
ATOM     32  C   UNL     1       0.002  -0.004   0.002  0.00  0.00    -0.016 C 
ATOM     33  C   UNL     1      -1.433  -0.534   0.013  0.00  0.00    +0.007 C 
ENDBRANCH  30  32
ENDBRANCH  29  30
ENDBRANCH  28  29
ENDBRANCH   1  28
TORSDOF 6
