REMARK  Name = ZINC20076143
REMARK  5 active torsions:
REMARK  status: ('A' for Active; 'I' for Inactive)
REMARK    1  A    between atoms: N_9  and  C_11
REMARK    2  A    between atoms: C_11  and  C_12
REMARK    3  A    between atoms: C_15  and  C_18
REMARK    4  A    between atoms: N_20  and  N_21
REMARK    5  A    between atoms: C_22  and  C_23
REMARK                            x       y       z     vdW  Elec       q    Type
REMARK                         _______ _______ _______ _____ _____    ______ ____
ROOT
ATOM      1  C   UNL     1       7.190  -0.328  -0.068  0.00  0.00    -0.033 A 
ATOM      2  C   UNL     1       7.174   1.056  -0.061  0.00  0.00    +0.005 A 
ATOM      3  C   UNL     1       5.974   1.736  -0.046  0.00  0.00    +0.013 A 
ATOM      4  C   UNL     1       4.773   1.024  -0.038  0.00  0.00    +0.038 A 
ATOM      5  C   UNL     1       4.795  -0.371  -0.040  0.00  0.00    +0.013 A 
ATOM      6  C   UNL     1       6.003  -1.039  -0.061  0.00  0.00    +0.005 A 
ENDROOT
BRANCH   4   7
ATOM      7  C   UNL     1       3.483   1.746  -0.022  0.00  0.00    +0.263 C 
ATOM      8  O   UNL     1       3.467   2.962  -0.015  0.00  0.00    -0.268 OA
ATOM      9  N   UNL     1       2.325   1.056  -0.015  0.00  0.00    -0.203 N 
ATOM     10  H   UNL     1       2.340  -0.044  -0.021  0.00  0.00    +0.178 HD
BRANCH   9  11
ATOM     11  N   UNL     1       1.103   1.740   0.001  0.00  0.00    -0.187 NA
ATOM     12  C   UNL     1      -0.013   1.076   0.008  0.00  0.00    +0.141 C 
BRANCH  12  13
ATOM     13  C   UNL     1      -1.299   1.796   0.018  0.00  0.00    +0.031 A 
ATOM     14  C   UNL     1      -1.322   3.193   0.032  0.00  0.00    +0.051 A 
ATOM     15  C   UNL     1      -2.531   3.860   0.035  0.00  0.00    +0.021 A 
ATOM     16  C   UNL     1      -3.718   3.148   0.037  0.00  0.00    +0.003 A 
ATOM     17  C   UNL     1      -3.703   1.765   0.029  0.00  0.00    +0.021 A 
ATOM     18  C   UNL     1      -2.502   1.084   0.020  0.00  0.00    +0.051 A 
ATOM     19 CL   UNL     1      -2.487  -0.652   0.011  0.00  0.00    -0.083 Cl
ATOM     20 CL   UNL     1       0.165   4.088   0.037  0.00  0.00    -0.083 Cl
ENDBRANCH  12  13
ENDBRANCH   9  11
ENDBRANCH   4   7
BRANCH   1  21
ATOM     21  C   UNL     1       8.505  -1.063  -0.085  0.00  0.00    +0.120 C 
BRANCH  21  30
ATOM     22  C   UNL     1       9.416  -3.190   5.912  0.00  0.00    +0.000 A 
ATOM     23  C   UNL     1       8.102  -3.424   5.551  0.00  0.00    +0.000 A 
ATOM     24  C   UNL     1       7.672  -3.109   4.279  0.00  0.00    +0.005 A 
ATOM     25  C   UNL     1       8.551  -2.558   3.357  0.00  0.00    -0.030 A 
ATOM     26  C   UNL     1       9.860  -2.323   3.718  0.00  0.00    -0.042 A 
ATOM     27  C   UNL     1      10.292  -2.642   4.997  0.00  0.00    +0.004 A 
ATOM     28  C   UNL     1      10.851  -1.721   2.755  0.00  0.00    +0.051 C 
ATOM     29  C   UNL     1      10.320  -1.831   1.325  0.00  0.00    +0.090 C 
ATOM     30  N   UNL     1       8.945  -1.310   1.295  0.00  0.00    -0.294 NA
ATOM     31  C   UNL     1       8.036  -2.235   1.979  0.00  0.00    +0.120 C 
ENDBRANCH  21  30
ENDBRANCH   1  21
TORSDOF 5
