REMARK  Name = ZINC36207708
REMARK  17 active torsions:
REMARK  status: ('A' for Active; 'I' for Inactive)
REMARK    1  A    between atoms: C_1  and  C_2
REMARK    2  A    between atoms: C_2  and  C_3
REMARK    3  A    between atoms: C_2  and  N_4
REMARK    4  A    between atoms: N_4  and  C_5
REMARK    5  A    between atoms: N_4  and  C_27
REMARK    6  A    between atoms: C_5  and  C_6
REMARK    7  A    between atoms: C_12  and  C_17
REMARK    8  A    between atoms: C_20  and  O_25
REMARK    9  A    between atoms: C_21  and  O_23
REMARK   10  A    between atoms: O_23  and  C_24
REMARK   11  A    between atoms: O_25  and  C_26
REMARK   12  A    between atoms: C_27  and  C_28
REMARK   13  A    between atoms: C_28  and  C_30
REMARK   14  A    between atoms: C_28  and  O_35
REMARK   15  A    between atoms: C_30  and  O_31
REMARK   16  A    between atoms: O_31  and  C_32
REMARK   17  A    between atoms: C_32  and  C_33
REMARK                            x       y       z     vdW  Elec       q    Type
REMARK                         _______ _______ _______ _____ _____    ______ ____
ROOT
ATOM      1  C   UNL     1      -2.560   1.407  -0.607  0.00  0.00    +0.094 A 
ATOM      2  N   UNL     1      -3.321   2.066  -1.519  0.00  0.00    -0.312 N 
ATOM      3  H   UNL     1      -3.620   1.598  -2.315  0.00  0.00    +0.170 HD
ATOM      4  C   UNL     1      -3.668   3.354  -1.341  0.00  0.00    +0.260 A 
ATOM      5  O   UNL     1      -4.351   3.930  -2.170  0.00  0.00    -0.267 OA
ATOM      6  C   UNL     1      -3.223   4.036  -0.164  0.00  0.00    +0.080 A 
ATOM      7  C   UNL     1      -3.464   5.412   0.251  0.00  0.00    +0.004 A 
ATOM      8  C   UNL     1      -2.934   5.842   1.422  0.00  0.00    +0.056 A 
ATOM      9  S   UNL     1      -2.074   4.407   2.037  0.00  0.00    -0.076 S 
ATOM     10  C   UNL     1      -2.442   3.275   0.721  0.00  0.00    +0.116 A 
ATOM     11  N   UNL     1      -2.143   2.001   0.479  0.00  0.00    -0.229 NA
ENDROOT
BRANCH   7  12
ATOM     12  C   UNL     1      -4.272   6.325  -0.592  0.00  0.00    -0.013 A 
ATOM     13  C   UNL     1      -3.993   6.450  -1.952  0.00  0.00    +0.012 A 
ATOM     14  C   UNL     1      -4.747   7.300  -2.736  0.00  0.00    +0.050 A 
ATOM     15  C   UNL     1      -5.782   8.031  -2.175  0.00  0.00    +0.162 A 
ATOM     16  C   UNL     1      -6.066   7.910  -0.817  0.00  0.00    +0.162 A 
ATOM     17  C   UNL     1      -5.317   7.056  -0.027  0.00  0.00    +0.058 A 
BRANCH  16  18
ATOM     18  O   UNL     1      -7.082   8.628  -0.268  0.00  0.00    -0.491 OA
ATOM     19  C   UNL     1      -7.317   8.455   1.131  0.00  0.00    +0.277 C 
ENDBRANCH  16  18
BRANCH  15  20
ATOM     20  O   UNL     1      -6.521   8.868  -2.951  0.00  0.00    -0.491 OA
ATOM     21  C   UNL     1      -6.176   8.944  -4.335  0.00  0.00    +0.277 C 
ENDBRANCH  15  20
ENDBRANCH   7  12
BRANCH   1  22
ATOM     22  C   UNL     1      -2.197  -0.035  -0.848  0.00  0.00    -0.003 C 
BRANCH  22  23
ATOM     23  N   UNL     1      -1.247  -0.479   0.180  0.00  0.00    +0.388 N 
ATOM     24  H   UNL     1      -1.494  -0.067   1.067  0.00  0.00    -0.081 HD
BRANCH  23  26
ATOM     25  C   UNL     1       0.492  -0.701  -1.530  0.00  0.00    -0.014 C 
ATOM     26  C   UNL     1       0.111  -0.061  -0.193  0.00  0.00    -0.074 C 
ATOM     27  C   UNL     1       0.157   1.463  -0.326  0.00  0.00    -0.014 C 
ENDBRANCH  23  26
BRANCH  23  28
ATOM     28  C   UNL     1      -1.295  -1.943   0.291  0.00  0.00    -0.044 C 
BRANCH  28  29
ATOM     29  C   UNL     1      -0.400  -2.397   1.446  0.00  0.00    +0.124 C 
BRANCH  29  30
ATOM     30  O   UNL     1      -0.863  -1.813   2.666  0.00  0.00    -0.391 OA
ATOM     31  H   UNL     1      -1.771  -2.053   2.897  0.00  0.00    +0.210 HD
ENDBRANCH  29  30
BRANCH  29  32
ATOM     32  C   UNL     1      -0.448  -3.922   1.561  0.00  0.00    +0.189 C 
BRANCH  32  33
ATOM     33  O   UNL     1       0.476  -4.354   2.562  0.00  0.00    -0.373 OA
BRANCH  33  34
ATOM     34  C   UNL     1       0.509  -5.770   2.749  0.00  0.00    +0.186 C 
BRANCH  34  35
ATOM     35  C   UNL     1       1.512  -6.111   3.822  0.00  0.00    -0.007 C 
ATOM     36  C   UNL     1       1.204  -6.979   4.754  0.00  0.00    +0.006 C 
ENDBRANCH  34  35
ENDBRANCH  33  34
ENDBRANCH  32  33
ENDBRANCH  29  32
ENDBRANCH  28  29
ENDBRANCH  23  28
ENDBRANCH  22  23
ENDBRANCH   1  22
TORSDOF 13
