REMARK  Name = ZINC66604324
REMARK  7 active torsions:
REMARK  status: ('A' for Active; 'I' for Inactive)
REMARK    1  A    between atoms: C_1  and  C_2
REMARK    2  A    between atoms: C_5  and  C_12
REMARK    3  A    between atoms: C_8  and  C_10
REMARK    4  A    between atoms: C_8  and  C_11
REMARK    5  A    between atoms: C_12  and  C_13
REMARK    6  A    between atoms: N_15  and  C_16
REMARK    7  A    between atoms: N_24  and  C_25
REMARK                            x       y       z     vdW  Elec       q    Type
REMARK                         _______ _______ _______ _____ _____    ______ ____
ROOT
ATOM      1  C   UNL     1       0.994  -2.193  -6.242  0.00  0.00    +0.076 C 
ATOM      2  C   UNL     1       0.412  -3.592  -6.457  0.00  0.00    +0.041 C 
ATOM      3  C   UNL     1      -0.750  -3.510  -7.452  0.00  0.00    +0.111 C 
ATOM      4  N   UNL     1      -0.275  -2.859  -8.681  0.00  0.00    -0.285 N 
ATOM      5  C   UNL     1       0.383  -1.550  -8.577  0.00  0.00    +0.111 C 
ATOM      6  C   UNL     1       1.532  -1.653  -7.570  0.00  0.00    +0.041 C 
ATOM      7  C   UNL     1      -0.440  -3.452  -9.880  0.00  0.00    +0.306 C 
ATOM      8  O   UNL     1      -0.899  -4.577  -9.944  0.00  0.00    -0.252 OA
ATOM      9  N   UNL     1      -0.096  -2.800 -11.007  0.00  0.00    -0.269 N 
ATOM     10  H   UNL     1       0.341  -1.935 -10.953  0.00  0.00    +0.156 HD
ENDROOT
BRANCH   9  11
ATOM     11  C   UNL     1      -0.369  -3.369 -12.256  0.00  0.00    +0.035 A 
ATOM     12  C   UNL     1      -1.503  -4.151 -12.432  0.00  0.00    +0.023 A 
ATOM     13  C   UNL     1      -1.770  -4.711 -13.666  0.00  0.00    +0.002 A 
ATOM     14  C   UNL     1      -0.909  -4.494 -14.726  0.00  0.00    +0.000 A 
ATOM     15  C   UNL     1       0.222  -3.716 -14.554  0.00  0.00    +0.002 A 
ATOM     16  C   UNL     1       0.491  -3.148 -13.324  0.00  0.00    +0.023 A 
ENDBRANCH   9  11
BRANCH   1  19
ATOM     17  C   UNL     1       1.812  -2.212  -3.947  0.00  0.00    +0.214 C 
ATOM     18  O   UNL     1       0.664  -2.109  -3.568  0.00  0.00    -0.276 OA
ATOM     19  N   UNL     1       2.084  -2.262  -5.266  0.00  0.00    -0.312 N 
ATOM     20  H   UNL     1       3.002  -2.344  -5.569  0.00  0.00    +0.149 HD
BRANCH  17  21
ATOM     21  C   UNL     1       2.933  -2.283  -2.943  0.00  0.00    +0.099 C 
BRANCH  21  25
ATOM     22  C   UNL     1       0.485   0.613   0.312  0.00  0.00    +0.007 C 
ATOM     23  C   UNL     1       1.132  -0.757   0.100  0.00  0.00    -0.013 C 
ATOM     24  C   UNL     1       1.709  -0.835  -1.315  0.00  0.00    +0.007 C 
ATOM     25  C   UNL     1       2.356  -2.205  -1.528  0.00  0.00    -0.002 C 
ATOM     26  C   UNL     1       3.479  -2.402  -0.507  0.00  0.00    +0.010 C 
ATOM     27  C   UNL     1       2.902  -2.325   0.907  0.00  0.00    -0.034 C 
ATOM     28  C   UNL     1       2.255  -0.954   1.120  0.00  0.00    +0.009 C 
ATOM     29  C   UNL     1       1.849  -3.420   1.090  0.00  0.00    +0.011 C 
ATOM     30  C   UNL     1       4.025  -2.522   1.928  0.00  0.00    +0.011 C 
ENDBRANCH  21  25
ENDBRANCH  17  21
ENDBRANCH   1  19
TORSDOF 4
