REMARK  Name = ZINC02369044
REMARK  8 active torsions:
REMARK  status: ('A' for Active; 'I' for Inactive)
REMARK    1  A    between atoms: C_1  and  C_2
REMARK    2  A    between atoms: C_7  and  N_25
REMARK    3  A    between atoms: C_8  and  C_13
REMARK    4  A    between atoms: N_17  and  C_21
REMARK    5  A    between atoms: C_21  and  C_22
REMARK    6  A    between atoms: C_22  and  O_23
REMARK    7  A    between atoms: O_23  and  C_24
REMARK    8  A    between atoms: C_30  and  N_56
REMARK                            x       y       z     vdW  Elec       q    Type
REMARK                         _______ _______ _______ _____ _____    ______ ____
ROOT
ATOM      1  C   UNL     1      -7.366  -0.739  -0.172  0.00  0.00    +0.045 C 
ATOM      2  C   UNL     1      -5.909  -0.458   0.090  0.00  0.00    -0.034 A 
ATOM      3  C   UNL     1      -5.526   0.755   0.679  0.00  0.00    +0.008 A 
ATOM      4  C   UNL     1      -4.205   1.001   0.913  0.00  0.00    +0.047 A 
ATOM      5  C   UNL     1      -3.247   0.035   0.559  0.00  0.00    +0.142 A 
ATOM      6  N   UNL     1      -1.958   0.284   0.791  0.00  0.00    -0.214 NA
ATOM      7  C   UNL     1      -1.012  -0.590   0.478  0.00  0.00    +0.136 A 
ATOM      8  C   UNL     1      -1.371  -1.820  -0.122  0.00  0.00    +0.081 A 
ATOM      9  C   UNL     1      -2.743  -2.077  -0.359  0.00  0.00    +0.267 A 
ATOM     10  O   UNL     1      -3.098  -3.125  -0.871  0.00  0.00    -0.267 OA
ATOM     11  N   UNL     1      -3.651  -1.139  -0.014  0.00  0.00    -0.267 N 
ATOM     12  C   UNL     1      -4.974  -1.375  -0.243  0.00  0.00    +0.099 A 
ENDROOT
BRANCH   8  13
ATOM     13  C   UNL     1      -0.385  -2.771  -0.472  0.00  0.00    +0.037 C 
ATOM     14  C   UNL     1       0.655  -2.410  -1.280  0.00  0.00    +0.077 C 
ATOM     15  C   UNL     1       1.802  -3.159  -1.669  0.00  0.00    +0.258 C 
ATOM     16  O   UNL     1       1.969  -4.299  -1.275  0.00  0.00    -0.269 OA
ATOM     17  N   UNL     1       2.678  -2.583  -2.474  0.00  0.00    -0.253 N 
ATOM     18  C   UNL     1       2.496  -1.315  -2.906  0.00  0.00    +0.121 C 
ATOM     19  S   UNL     1       3.493  -0.378  -3.934  0.00  0.00    -0.027 S 
ATOM     20  S   UNL     1       0.951  -0.866  -2.130  0.00  0.00    -0.061 S 
BRANCH  17  21
ATOM     21  C   UNL     1       3.865  -3.327  -2.900  0.00  0.00    +0.143 C 
BRANCH  21  22
ATOM     22  C   UNL     1       5.000  -3.093  -1.900  0.00  0.00    +0.179 C 
BRANCH  22  23
ATOM     23  O   UNL     1       4.640  -3.647  -0.633  0.00  0.00    -0.381 OA
ATOM     24  C   UNL     1       5.636  -3.481   0.378  0.00  0.00    +0.194 C 
ENDBRANCH  22  23
ENDBRANCH  21  22
ENDBRANCH  17  21
ENDBRANCH   8  13
BRANCH   7  25
ATOM     25  N   UNL     1       0.311  -0.301   0.731  0.00  0.00    -0.318 N 
ATOM     26  C   UNL     1       0.473   1.097   1.154  0.00  0.00    +0.088 C 
ATOM     27  C   UNL     1       1.961   1.399   1.347  0.00  0.00    -0.060 C 
ATOM     28  C   UNL     1       2.357  -0.918   1.925  0.00  0.00    -0.060 C 
ATOM     29  C   UNL     1       0.869  -1.220   1.732  0.00  0.00    +0.088 C 
ATOM     30  C   UNL     1       3.930   0.787   2.618  0.00  0.00    -0.096 C 
ATOM     31  N   UNL     1       2.505   0.482   2.372  0.00  0.00    +0.380 N 
ATOM     32  H   UNL     1       1.981   0.611   3.246  0.00  0.00    -0.082 HD
ENDBRANCH   7  25
TORSDOF 5
