REMARK  Name = ZINC35592325
REMARK  6 active torsions:
REMARK  status: ('A' for Active; 'I' for Inactive)
REMARK    1  A    between atoms: C_1  and  C_2
REMARK    2  A    between atoms: C_2  and  C_3
REMARK    3  A    between atoms: C_2  and  C_4
REMARK    4  A    between atoms: C_2  and  N_5
REMARK    5  A    between atoms: C_8  and  C_10
REMARK    6  A    between atoms: C_16  and  C_23
REMARK                            x       y       z     vdW  Elec       q    Type
REMARK                         _______ _______ _______ _____ _____    ______ ____
ROOT
ATOM      1  N   UNL     1      -1.184  -2.098  -1.938  0.00  0.00    -0.244 N 
ATOM      2  C   UNL     1      -0.353  -3.117  -2.342  0.00  0.00    +0.129 A 
ATOM      3  C   UNL     1       0.358  -2.659  -3.393  0.00  0.00    +0.037 A 
ATOM      4  C   UNL     1      -0.048  -1.321  -3.640  0.00  0.00    +0.099 A 
ATOM      5  N   UNL     1      -0.972  -0.999  -2.770  0.00  0.00    -0.169 NA
ATOM      6  C   UNL     1       1.402  -3.338  -4.224  0.00  0.00    +0.115 C 
ATOM      7  S   UNL     1       1.107  -5.095  -4.439  0.00  0.00    -0.138 S 
ATOM      8  C   UNL     1       1.328  -5.837  -2.816  0.00  0.00    +0.166 C 
ATOM      9  C   UNL     1       0.265  -5.460  -1.861  0.00  0.00    +0.228 C 
ATOM     10  O   UNL     1      -0.091  -6.350  -1.116  0.00  0.00    -0.275 OA
ATOM     11  N   UNL     1      -0.350  -4.329  -1.692  0.00  0.00    -0.270 N 
ATOM     12  H   UNL     1      -0.946  -4.340  -0.927  0.00  0.00    +0.156 HD
ENDROOT
BRANCH   6  13
ATOM     13  C   UNL     1       1.437  -2.686  -5.582  0.00  0.00    +0.005 A 
ATOM     14  C   UNL     1       2.648  -2.464  -6.210  0.00  0.00    +0.010 A 
ATOM     15  C   UNL     1       2.682  -1.867  -7.456  0.00  0.00    +0.039 A 
ATOM     16  C   UNL     1       1.503  -1.491  -8.077  0.00  0.00    +0.126 A 
ATOM     17  C   UNL     1       0.290  -1.713  -7.449  0.00  0.00    +0.077 A 
ATOM     18  C   UNL     1       0.257  -2.316  -6.203  0.00  0.00    +0.131 A 
ATOM     19  F   UNL     1      -0.927  -2.539  -5.592  0.00  0.00    -0.205 F 
ATOM     20  F   UNL     1       1.536  -0.906  -9.295  0.00  0.00    -0.205 F 
ENDBRANCH   6  13
BRANCH   4  21
ATOM     21  C   UNL     1       0.482  -0.437  -4.709  0.00  0.00    +0.002 A 
ATOM     22  C   UNL     1      -0.394   0.247  -5.549  0.00  0.00    +0.010 A 
ATOM     23  C   UNL     1       0.104   1.067  -6.540  0.00  0.00    +0.001 A 
ATOM     24  C   UNL     1       1.470   1.212  -6.701  0.00  0.00    +0.000 A 
ATOM     25  C   UNL     1       2.345   0.535  -5.869  0.00  0.00    +0.001 A 
ATOM     26  C   UNL     1       1.857  -0.284  -4.871  0.00  0.00    +0.010 A 
ENDBRANCH   4  21
BRANCH   1  28
ATOM     27  C   UNL     1      -2.887  -0.831  -0.724  0.00  0.00    +0.036 C 
ATOM     28  C   UNL     1      -2.135  -2.159  -0.826  0.00  0.00    +0.057 C 
ATOM     29  C   UNL     1      -1.379  -2.419   0.479  0.00  0.00    +0.036 C 
ATOM     30  C   UNL     1      -3.134  -3.292  -1.071  0.00  0.00    +0.036 C 
ENDBRANCH   1  28
TORSDOF 3
