REMARK  Name = ZINC39675352
REMARK  11 active torsions:
REMARK  status: ('A' for Active; 'I' for Inactive)
REMARK    1  A    between atoms: C_1  and  C_2
REMARK    2  A    between atoms: C_2  and  C_4
REMARK    3  A    between atoms: C_2  and  N_14
REMARK    4  A    between atoms: C_4  and  C_5
REMARK    5  A    between atoms: C_5  and  C_6
REMARK    6  A    between atoms: C_9  and  O_12
REMARK    7  A    between atoms: O_12  and  C_13
REMARK    8  A    between atoms: C_15  and  C_17
REMARK    9  A    between atoms: C_28  and  C_30
REMARK   10  A    between atoms: C_30  and  O_31
REMARK   11  A    between atoms: O_31  and  C_32
REMARK                            x       y       z     vdW  Elec       q    Type
REMARK                         _______ _______ _______ _____ _____    ______ ____
ROOT
ATOM      1  C   UNL     1       0.780  -1.133   3.576  0.00  0.00    +0.100 C 
ATOM      2  C   UNL     1       1.973  -0.207   3.907  0.00  0.00    +0.121 C 
ATOM      3  N   UNL     1       1.444   0.739   4.916  0.00  0.00    -0.297 N 
ATOM      4  C   UNL     1       0.577  -0.093   5.784  0.00  0.00    +0.115 C 
ATOM      5  C   UNL     1      -0.132  -1.058   4.812  0.00  0.00    -0.004 C 
ATOM      6  C   UNL     1      -0.275  -2.438   5.448  0.00  0.00    -0.010 C 
ATOM      7  C   UNL     1      -1.232  -2.349   6.640  0.00  0.00    -0.082 C 
ATOM      8  N   UNL     1      -2.539  -1.860   6.184  0.00  0.00    +0.379 N 
ATOM      9  C   UNL     1      -2.409  -0.496   5.660  0.00  0.00    -0.082 C 
ATOM     10  C   UNL     1      -1.501  -0.506   4.426  0.00  0.00    -0.010 C 
ATOM     11  C   UNL     1       1.694   2.059   5.022  0.00  0.00    +0.253 C 
ATOM     12  O   UNL     1       1.181   2.705   5.912  0.00  0.00    -0.272 OA
ATOM     13  H   UNL     1      -2.889  -2.466   5.458  0.00  0.00    -0.086 HD
ATOM     14  H   UNL     1      -3.186  -1.861   6.959  0.00  0.00    -0.086 HD
ENDROOT
BRANCH   1  16
ATOM     15  N   UNL     1      -0.597  -1.503   1.555  0.00  0.00    -0.312 N 
ATOM     16  C   UNL     1       0.051  -0.633   2.355  0.00  0.00    +0.218 C 
ATOM     17  O   UNL     1       0.048   0.551   2.093  0.00  0.00    -0.275 OA
ATOM     18  H   UNL     1      -0.595  -2.450   1.765  0.00  0.00    +0.149 HD
BRANCH  15  20
ATOM     19  C   UNL     1      -0.324  -0.901  -0.799  0.00  0.00    +0.028 C 
ATOM     20  C   UNL     1      -1.306  -1.018   0.368  0.00  0.00    +0.070 C 
BRANCH  20  21
ATOM     21  C   UNL     1      -2.420  -2.000   0.002  0.00  0.00    +0.026 C 
BRANCH  21  22
ATOM     22  C   UNL     1      -3.467  -2.022   1.118  0.00  0.00    +0.037 C 
BRANCH  22  23
ATOM     23  C   UNL     1      -4.564  -2.990   0.757  0.00  0.00    -0.047 A 
ATOM     24  C   UNL     1      -5.664  -2.552   0.042  0.00  0.00    +0.007 A 
ATOM     25  C   UNL     1      -6.671  -3.437  -0.289  0.00  0.00    +0.046 A 
ATOM     26  C   UNL     1      -6.579  -4.767   0.096  0.00  0.00    +0.120 A 
ATOM     27  C   UNL     1      -5.475  -5.204   0.812  0.00  0.00    +0.046 A 
ATOM     28  C   UNL     1      -4.468  -4.316   1.137  0.00  0.00    +0.007 A 
BRANCH  26  29
ATOM     29  O   UNL     1      -7.569  -5.639  -0.229  0.00  0.00    -0.495 OA
ATOM     30  C   UNL     1      -7.408  -6.993   0.200  0.00  0.00    +0.277 C 
ENDBRANCH  26  29
ENDBRANCH  22  23
ENDBRANCH  21  22
ENDBRANCH  20  21
ENDBRANCH  15  20
ENDBRANCH   1  16
BRANCH  11  31
ATOM     31  C   UNL     1       2.612   2.734   4.035  0.00  0.00    +0.324 C 
BRANCH  31  32
ATOM     32  O   UNL     1       2.717   4.122   4.355  0.00  0.00    -0.483 OA
BRANCH  32  33
ATOM     33  C   UNL     1       3.514   4.881   3.556  0.00  0.00    +0.123 A 
ATOM     34  C   UNL     1       4.175   4.301   2.483  0.00  0.00    +0.046 A 
ATOM     35  C   UNL     1       4.983   5.073   1.671  0.00  0.00    +0.005 A 
ATOM     36  C   UNL     1       5.134   6.423   1.927  0.00  0.00    +0.020 A 
ATOM     37  C   UNL     1       4.476   7.004   2.997  0.00  0.00    +0.044 A 
ATOM     38  C   UNL     1       3.662   6.236   3.808  0.00  0.00    +0.065 A 
ATOM     39 CL   UNL     1       4.668   8.700   3.316  0.00  0.00    -0.083 Cl
ENDBRANCH  32  33
ENDBRANCH  31  32
ENDBRANCH  11  31
TORSDOF 9
