REMARK  Name = ZINC17860780
REMARK  11 active torsions:
REMARK  status: ('A' for Active; 'I' for Inactive)
REMARK    1  A    between atoms: C_1  and  C_2
REMARK    2  A    between atoms: C_2  and  N_3
REMARK    3  A    between atoms: N_3  and  C_4
REMARK    4  A    between atoms: N_3  and  C_6
REMARK    5  A    between atoms: C_4  and  C_5
REMARK    6  A    between atoms: C_9  and  N_13
REMARK    7  A    between atoms: C_10  and  C_12
REMARK    8  A    between atoms: C_16  and  C_25
REMARK    9  A    between atoms: N_27  and  C_28
REMARK   10  A    between atoms: C_31  and  S_34
REMARK   11  A    between atoms: S_34  and  C_37
REMARK                            x       y       z     vdW  Elec       q    Type
REMARK                         _______ _______ _______ _____ _____    ______ ____
ROOT
ATOM      1  N   UNL     1      -3.108  -4.632  -0.911  0.00  0.00    -0.247 NA
ATOM      2  C   UNL     1      -2.050  -5.261  -1.382  0.00  0.00    +0.073 C 
ATOM      3  C   UNL     1      -1.251  -4.664  -2.455  0.00  0.00    +0.045 C 
ATOM      4  C   UNL     1      -0.005  -5.170  -2.752  0.00  0.00    +0.086 C 
ATOM      5  C   UNL     1       0.527  -6.312  -1.991  0.00  0.00    +0.199 C 
ATOM      6  O   UNL     1       1.706  -6.607  -2.067  0.00  0.00    -0.286 OA
ATOM      7  C   UNL     1      -0.383  -7.094  -1.135  0.00  0.00    +0.032 A 
ATOM      8  C   UNL     1      -1.654  -6.573  -0.829  0.00  0.00    +0.011 A 
ATOM      9  C   UNL     1      -2.519  -7.300  -0.018  0.00  0.00    +0.011 A 
ATOM     10  C   UNL     1      -2.122  -8.524   0.484  0.00  0.00    +0.001 A 
ATOM     11  C   UNL     1      -0.868  -9.034   0.187  0.00  0.00    +0.001 A 
ATOM     12  C   UNL     1      -0.003  -8.333  -0.623  0.00  0.00    +0.012 A 
ENDROOT
BRANCH   1  16
ATOM     13  C   UNL     1      -4.019  -0.844  -2.252  0.00  0.00    +0.014 A 
ATOM     14  C   UNL     1      -2.745  -1.119  -1.779  0.00  0.00    +0.024 A 
ATOM     15  C   UNL     1      -2.431  -2.381  -1.328  0.00  0.00    +0.030 A 
ATOM     16  C   UNL     1      -3.406  -3.392  -1.349  0.00  0.00    +0.068 A 
ATOM     17  C   UNL     1      -4.693  -3.103  -1.831  0.00  0.00    -0.023 A 
ATOM     18  C   UNL     1      -4.989  -1.832  -2.272  0.00  0.00    +0.027 A 
ATOM     19  C   UNL     1      -5.749  -4.178  -1.859  0.00  0.00    +0.046 C 
BRANCH  13  20
ATOM     20  N   UNL     1      -4.327   0.441  -2.707  0.00  0.00    -0.394 NA
ATOM     21  H   UNL     1      -5.290   0.469  -3.010  0.00  0.00    +0.126 HD
BRANCH  20  23
ATOM     22  C   UNL     1      -5.141   1.137  -0.505  0.00  0.00    +0.022 C 
ATOM     23  C   UNL     1      -4.128   1.407  -1.619  0.00  0.00    +0.081 C 
ENDBRANCH  20  23
BRANCH  20  24
ATOM     24  C   UNL     1      -3.450   0.786  -3.834  0.00  0.00    +0.081 C 
ATOM     25  C   UNL     1      -3.705  -0.180  -4.993  0.00  0.00    +0.022 C 
ENDBRANCH  20  24
ENDBRANCH  13  20
ENDBRANCH   1  16
BRANCH   4  26
ATOM     26  C   UNL     1       0.796  -4.567  -3.832  0.00  0.00    +0.252 C 
ATOM     27  O   UNL     1       0.415  -3.549  -4.377  0.00  0.00    -0.270 OA
ATOM     28  N   UNL     1       1.952  -5.145  -4.216  0.00  0.00    -0.281 N 
ATOM     29  H   UNL     1       2.214  -6.001  -3.843  0.00  0.00    +0.155 HD
BRANCH  28  30
ATOM     30  C   UNL     1       2.773  -4.510  -5.153  0.00  0.00    +0.034 A 
ATOM     31  C   UNL     1       2.908  -3.127  -5.136  0.00  0.00    +0.025 A 
ATOM     32  C   UNL     1       3.720  -2.503  -6.063  0.00  0.00    +0.029 A 
ATOM     33  C   UNL     1       4.398  -3.253  -7.007  0.00  0.00    +0.088 A 
ATOM     34  C   UNL     1       4.265  -4.629  -7.027  0.00  0.00    +0.029 A 
ATOM     35  C   UNL     1       3.460  -5.260  -6.099  0.00  0.00    +0.025 A 
BRANCH  33  36
ATOM     36  S   UNL     1       5.433  -2.452  -8.187  0.00  0.00    -0.006 S 
ATOM     37  O   UNL     1       5.458  -3.332  -9.303  0.00  0.00    -0.170 OA
ATOM     38  O   UNL     1       4.896  -1.142  -8.310  0.00  0.00    -0.170 OA
ATOM     39  C   UNL     1       7.068  -2.387  -7.405  0.00  0.00    +0.200 C 
ENDBRANCH  33  36
ENDBRANCH  28  30
ENDBRANCH   4  26
TORSDOF 7
