REMARK  Name = ZINC63137811
REMARK  6 active torsions:
REMARK  status: ('A' for Active; 'I' for Inactive)
REMARK    1  A    between atoms: C_1  and  O_2
REMARK    2  A    between atoms: O_2  and  C_3
REMARK    3  A    between atoms: C_6  and  C_11
REMARK    4  A    between atoms: C_8  and  O_9
REMARK    5  A    between atoms: O_9  and  C_10
REMARK    6  A    between atoms: N_30  and  C_33
REMARK                            x       y       z     vdW  Elec       q    Type
REMARK                         _______ _______ _______ _____ _____    ______ ____
ROOT
ATOM      1  C   UNL     1      -4.987  -2.627   0.035  0.00  0.00    +0.134 C 
ATOM      2  C   UNL     1      -5.540  -2.660  -1.389  0.00  0.00    +0.131 C 
ATOM      3  C   UNL     1      -7.013  -3.040  -1.256  0.00  0.00    -0.034 C 
ATOM      4  C   UNL     1      -7.175  -4.179  -1.914  0.00  0.00    -0.001 A 
ATOM      5  C   UNL     1      -8.366  -5.009  -2.158  0.00  0.00    +0.010 A 
ATOM      6  C   UNL     1      -8.171  -6.141  -2.884  0.00  0.00    +0.001 A 
ATOM      7  C   UNL     1      -6.923  -6.526  -3.386  0.00  0.00    +0.002 A 
ATOM      8  C   UNL     1      -5.776  -5.824  -3.212  0.00  0.00    +0.026 A 
ATOM      9  C   UNL     1      -5.855  -4.612  -2.464  0.00  0.00    +0.043 A 
ATOM     10  N   UNL     1      -4.914  -3.742  -2.160  0.00  0.00    -0.375 N 
ATOM     11  C   UNL     1      -7.969  -2.190  -0.465  0.00  0.00    +0.065 C 
ATOM     12  C   UNL     1      -7.303  -1.712   0.800  0.00  0.00    +0.167 C 
ATOM     13  N   UNL     1      -5.880  -1.930   0.949  0.00  0.00    -0.279 N 
ATOM     14  C   UNL     1      -5.333  -1.460   2.118  0.00  0.00    +0.234 C 
ATOM     15  O   UNL     1      -4.141  -1.523   2.332  0.00  0.00    -0.274 OA
ATOM     16  C   UNL     1      -6.289  -0.860   3.128  0.00  0.00    +0.204 C 
ATOM     17  N   UNL     1      -7.475  -1.731   3.224  0.00  0.00    -0.288 N 
ATOM     18  C   UNL     1      -8.018  -2.160   2.049  0.00  0.00    +0.237 C 
ATOM     19  O   UNL     1      -9.013  -2.853   2.011  0.00  0.00    -0.274 OA
ATOM     20  H   UNL     1      -3.974  -3.797  -2.395  0.00  0.00    +0.160 HD
ENDROOT
BRANCH   1  24
ATOM     21  C   UNL     1      -1.201  -0.638   0.010  0.00  0.00    +0.162 A 
ATOM     22  C   UNL     1      -2.374   0.099   0.019  0.00  0.00    +0.050 A 
ATOM     23  C   UNL     1      -3.596  -0.546   0.027  0.00  0.00    +0.009 A 
ATOM     24  C   UNL     1      -3.652  -1.928   0.026  0.00  0.00    -0.021 A 
ATOM     25  C   UNL     1      -2.485  -2.669   0.017  0.00  0.00    +0.055 A 
ATOM     26  C   UNL     1      -1.257  -2.028   0.003  0.00  0.00    +0.162 A 
BRANCH  21  28
ATOM     27  C   UNL     1      -0.017   1.425   0.010  0.00  0.00    +0.277 C 
ATOM     28  O   UNL     1       0.002  -0.004   0.002  0.00  0.00    -0.491 OA
ENDBRANCH  21  28
BRANCH  26  29
ATOM     29  O   UNL     1      -0.108  -2.756  -0.012  0.00  0.00    -0.491 OA
ATOM     30  C   UNL     1      -0.242  -4.179  -0.018  0.00  0.00    +0.277 C 
ENDBRANCH  26  29
ENDBRANCH   1  24
BRANCH  17  31
ATOM     31  C   UNL     1      -8.040  -2.120   4.519  0.00  0.00    +0.077 C 
ATOM     32  C   UNL     1      -8.468  -0.866   5.285  0.00  0.00    +0.022 C 
ATOM     33  C   UNL     1      -9.059  -1.272   6.637  0.00  0.00    +0.002 C 
ATOM     34  C   UNL     1      -8.005  -2.030   7.447  0.00  0.00    +0.000 C 
ATOM     35  C   UNL     1      -7.577  -3.283   6.681  0.00  0.00    +0.002 C 
ATOM     36  C   UNL     1      -6.987  -2.878   5.329  0.00  0.00    +0.022 C 
ENDBRANCH  17  31
TORSDOF 4
