REMARK  Name = ZINC15770170
REMARK  6 active torsions:
REMARK  status: ('A' for Active; 'I' for Inactive)
REMARK    1  A    between atoms: C_4  and  C_7
REMARK    2  A    between atoms: N_8  and  N_9
REMARK    3  A    between atoms: C_10  and  C_12
REMARK    4  A    between atoms: C_14  and  C_32
REMARK    5  A    between atoms: C_16  and  C_24
REMARK    6  A    between atoms: C_24  and  C_26
REMARK                            x       y       z     vdW  Elec       q    Type
REMARK                         _______ _______ _______ _____ _____    ______ ____
ROOT
ATOM      1  C   UNL     1      -0.875   4.622   0.694  0.00  0.00    +0.153 C 
ATOM      2  C   UNL     1      -1.148   3.656  -0.492  0.00  0.00    +0.059 C 
ATOM      3  C   UNL     1      -1.156   2.276   0.218  0.00  0.00    +0.092 C 
ATOM      4  C   UNL     1      -1.708   2.584   1.619  0.00  0.00    +0.090 C 
ATOM      5  C   UNL     1      -2.343   4.697   2.806  0.00  0.00    +0.053 C 
ATOM      6  C   UNL     1      -3.515   4.127   3.170  0.00  0.00    +0.013 C 
ATOM      7  C   UNL     1      -3.981   2.924   2.468  0.00  0.00    -0.001 C 
ATOM      8  C   UNL     1      -3.156   2.176   1.734  0.00  0.00    -0.006 C 
ATOM      9  N   UNL     1      -1.358   3.940   1.937  0.00  0.00    -0.384 NA
ATOM     10  H   UNL     1      -0.525   3.859   2.532  0.00  0.00    +0.127 HD
ENDROOT
BRANCH   2  11
ATOM     11  C   UNL     1      -0.043   3.731  -1.513  0.00  0.00    -0.041 A 
ATOM     12  C   UNL     1      -0.340   3.656  -2.861  0.00  0.00    +0.004 A 
ATOM     13  C   UNL     1       0.673   3.729  -3.798  0.00  0.00    +0.000 A 
ATOM     14  C   UNL     1       1.986   3.868  -3.387  0.00  0.00    +0.000 A 
ATOM     15  C   UNL     1       2.284   3.938  -2.039  0.00  0.00    +0.000 A 
ATOM     16  C   UNL     1       1.270   3.869  -1.102  0.00  0.00    +0.004 A 
ENDBRANCH   2  11
BRANCH   1  18
ATOM     17  N   UNL     1      -0.559   6.852  -0.328  0.00  0.00    -0.205 N 
ATOM     18  C   UNL     1      -1.353   6.013   0.366  0.00  0.00    +0.252 C 
ATOM     19  O   UNL     1      -2.453   6.378   0.727  0.00  0.00    -0.272 OA
ATOM     20  H   UNL     1       0.320   6.561  -0.616  0.00  0.00    +0.177 HD
BRANCH  17  22
ATOM     21  C   UNL     1      -0.238   8.953  -1.300  0.00  0.00    +0.138 C 
ATOM     22  N   UNL     1      -1.003   8.146  -0.632  0.00  0.00    -0.188 NA
BRANCH  21  26
ATOM     23  C   UNL     1      -1.584  12.871  -2.225  0.00  0.00    +0.000 A 
ATOM     24  C   UNL     1      -0.329  12.459  -2.638  0.00  0.00    +0.001 A 
ATOM     25  C   UNL     1       0.115  11.187  -2.341  0.00  0.00    +0.009 A 
ATOM     26  C   UNL     1      -0.706  10.315  -1.621  0.00  0.00    -0.005 A 
ATOM     27  C   UNL     1      -1.974  10.736  -1.213  0.00  0.00    +0.009 A 
ATOM     28  C   UNL     1      -2.402  12.012  -1.513  0.00  0.00    +0.001 A 
ENDBRANCH  21  26
ENDBRANCH  17  22
ENDBRANCH   1  18
BRANCH   3  29
ATOM     29  C   UNL     1       0.242   1.722   0.310  0.00  0.00    +0.169 C 
ATOM     30  O   UNL     1       0.959   2.036   1.237  0.00  0.00    -0.292 OA
BRANCH  29  31
ATOM     31  C   UNL     1       0.740   0.803  -0.726  0.00  0.00    +0.018 A 
ATOM     32  C   UNL     1      -0.086   0.433  -1.793  0.00  0.00    +0.011 A 
ATOM     33  C   UNL     1       0.390  -0.423  -2.763  0.00  0.00    +0.001 A 
ATOM     34  C   UNL     1       1.677  -0.926  -2.677  0.00  0.00    +0.000 A 
ATOM     35  C   UNL     1       2.498  -0.569  -1.622  0.00  0.00    +0.001 A 
ATOM     36  C   UNL     1       2.039   0.291  -0.646  0.00  0.00    +0.011 A 
ENDBRANCH  29  31
ENDBRANCH   3  29
TORSDOF 6
