REMARK  Name = ZINC32675974
REMARK  8 active torsions:
REMARK  status: ('A' for Active; 'I' for Inactive)
REMARK    1  A    between atoms: C_1  and  C_2
REMARK    2  A    between atoms: C_2  and  N_3
REMARK    3  A    between atoms: N_6  and  C_9
REMARK    4  A    between atoms: C_12  and  S_27
REMARK    5  A    between atoms: C_14  and  N_15
REMARK    6  A    between atoms: C_16  and  C_18
REMARK    7  A    between atoms: C_19  and  C_20
REMARK    8  A    between atoms: S_27  and  N_30
REMARK                            x       y       z     vdW  Elec       q    Type
REMARK                         _______ _______ _______ _____ _____    ______ ____
ROOT
ATOM      1  C   UNL     1       4.833  -1.815  -2.680  0.00  0.00    +0.051 A 
ATOM      2  C   UNL     1       3.924  -2.640  -2.034  0.00  0.00    +0.027 A 
ATOM      3  C   UNL     1       3.489  -2.326  -0.760  0.00  0.00    +0.030 A 
ATOM      4  C   UNL     1       3.947  -1.183  -0.131  0.00  0.00    +0.107 A 
ATOM      5  C   UNL     1       4.853  -0.355  -0.767  0.00  0.00    +0.053 A 
ATOM      6  C   UNL     1       5.300  -0.665  -2.042  0.00  0.00    +0.057 A 
ENDROOT
BRANCH   1  10
ATOM      7  N   UNL     1       5.386  -3.687  -6.351  0.00  0.00    +0.382 N 
ATOM      8  C   UNL     1       6.495  -3.715  -5.386  0.00  0.00    -0.060 C 
ATOM      9  C   UNL     1       5.953  -3.440  -3.982  0.00  0.00    +0.086 C 
ATOM     10  N   UNL     1       5.279  -2.134  -3.967  0.00  0.00    -0.332 N 
ATOM     11  C   UNL     1       4.171  -2.105  -4.931  0.00  0.00    +0.086 C 
ATOM     12  C   UNL     1       4.713  -2.381  -6.335  0.00  0.00    -0.060 C 
ATOM     13  H   UNL     1       4.654  -4.450  -6.049  0.00  0.00    -0.082 HD
BRANCH   7  15
ATOM     14  C   UNL     1       4.741  -3.741  -8.712  0.00  0.00    -0.017 C 
ATOM     15  C   UNL     1       5.855  -4.021  -7.702  0.00  0.00    -0.082 C 
ENDBRANCH   7  15
ENDBRANCH   1  10
BRANCH   6  16
ATOM     16  N   UNL     1       6.217   0.173  -2.689  0.00  0.00    -0.280 N 
ATOM     17  C   UNL     1       7.036   0.961  -1.964  0.00  0.00    +0.241 C 
ATOM     18  O   UNL     1       7.050   0.872  -0.750  0.00  0.00    -0.270 OA
ATOM     19  H   UNL     1       6.269   0.188  -3.787  0.00  0.00    +0.155 HD
BRANCH  17  20
ATOM     20  C   UNL     1       7.909   1.924  -2.638  0.00  0.00    +0.068 C 
ATOM     21  C   UNL     1       8.729   2.713  -1.913  0.00  0.00    +0.013 C 
BRANCH  21  22
ATOM     22  C   UNL     1       9.606   3.681  -2.590  0.00  0.00    -0.025 A 
ATOM     23  C   UNL     1       9.597   3.782  -3.985  0.00  0.00    +0.009 A 
ATOM     24  C   UNL     1      10.418   4.695  -4.612  0.00  0.00    +0.020 A 
ATOM     25  C   UNL     1      11.258   5.503  -3.864  0.00  0.00    +0.041 A 
ATOM     26  C   UNL     1      11.276   5.405  -2.482  0.00  0.00    +0.020 A 
ATOM     27  C   UNL     1      10.457   4.500  -1.841  0.00  0.00    +0.009 A 
ATOM     28 CL   UNL     1      12.294   6.645  -4.662  0.00  0.00    -0.084 Cl
ENDBRANCH  21  22
ENDBRANCH  17  20
ENDBRANCH   6  16
BRANCH   4  29
ATOM     29  S   UNL     1       3.381  -0.786   1.490  0.00  0.00    +0.061 S 
ATOM     30  O   UNL     1       4.378   0.039   2.077  0.00  0.00    -0.153 OA
ATOM     31  O   UNL     1       2.956  -2.006   2.082  0.00  0.00    -0.153 OA
BRANCH  29  32
ATOM     32  N   UNL     1       2.029   0.154   1.319  0.00  0.00    -0.177 NA
ATOM     33  C   UNL     1       0.696  -0.459   1.244  0.00  0.00    +0.109 C 
ATOM     34  C   UNL     1      -0.008   0.045  -0.019  0.00  0.00    +0.017 C 
ATOM     35  C   UNL     1      -0.019   1.576  -0.017  0.00  0.00    +0.003 C 
ATOM     36  C   UNL     1       1.419   2.098  -0.024  0.00  0.00    +0.017 C 
ATOM     37  C   UNL     1       2.139   1.617   1.240  0.00  0.00    +0.109 C 
ENDBRANCH  29  32
ENDBRANCH   4  29
TORSDOF 7
