REMARK  Name = ZINC01438595
REMARK  9 active torsions:
REMARK  status: ('A' for Active; 'I' for Inactive)
REMARK    1  A    between atoms: C_1  and  C_2
REMARK    2  A    between atoms: C_2  and  O_3
REMARK    3  A    between atoms: O_3  and  C_4
REMARK    4  A    between atoms: C_4  and  C_6
REMARK    5  A    between atoms: C_7  and  C_34
REMARK    6  A    between atoms: C_11  and  C_13
REMARK    7  A    between atoms: C_16  and  C_22
REMARK    8  A    between atoms: C_17  and  N_19
REMARK    9  A    between atoms: C_26  and  C_29
REMARK                            x       y       z     vdW  Elec       q    Type
REMARK                         _______ _______ _______ _____ _____    ______ ____
ROOT
ATOM      1  C   UNL     1       4.380   8.015   1.020  0.00  0.00    +0.065 C 
ATOM      2  C   UNL     1       4.155   7.419   2.203  0.00  0.00    +0.016 C 
ATOM      3  N   UNL     1       3.960   6.068   2.272  0.00  0.00    -0.321 N 
ATOM      4  C   UNL     1       3.592   5.359   1.160  0.00  0.00    +0.016 C 
ATOM      5  C   UNL     1       3.796   5.867  -0.074  0.00  0.00    +0.024 C 
ATOM      6  C   UNL     1       4.432   7.223  -0.254  0.00  0.00    +0.092 C 
ATOM      7  C   UNL     1       3.423   5.151  -1.225  0.00  0.00    +0.162 C 
ATOM      8  O   UNL     1       3.607   5.643  -2.320  0.00  0.00    -0.292 OA
ATOM      9  C   UNL     1       2.801   3.785  -1.123  0.00  0.00    +0.088 C 
ATOM     10  C   UNL     1       3.296   3.106   0.158  0.00  0.00    +0.039 C 
ATOM     11  C   UNL     1       2.953   4.006   1.347  0.00  0.00    +0.060 C 
ATOM     12  C   UNL     1       4.117   8.246   3.463  0.00  0.00    +0.061 C 
ATOM     13  H   UNL     1       4.098   5.540   3.227  0.00  0.00    +0.152 HD
ENDROOT
BRANCH   6  14
ATOM     14  C   UNL     1       5.871   7.043  -0.664  0.00  0.00    -0.033 A 
ATOM     15  C   UNL     1       6.747   6.365   0.163  0.00  0.00    +0.005 A 
ATOM     16  C   UNL     1       8.066   6.200  -0.214  0.00  0.00    +0.006 A 
ATOM     17  C   UNL     1       8.510   6.713  -1.419  0.00  0.00    -0.020 A 
ATOM     18  C   UNL     1       7.635   7.391  -2.246  0.00  0.00    +0.129 A 
ATOM     19  C   UNL     1       6.314   7.552  -1.871  0.00  0.00    +0.037 A 
ATOM     20  C   UNL     1       9.949   6.534  -1.830  0.00  0.00    +0.046 C 
BRANCH  18  21
ATOM     21  N   UNL     1       8.110   7.941  -3.535  0.00  0.00    +0.057 N 
ATOM     22  O   UNL     1       7.691   9.013  -3.932  0.00  0.00    -0.126 OA
ATOM     23  O   UNL     1       8.921   7.320  -4.200  0.00  0.00    -0.126 OA
ENDBRANCH  18  21
ENDBRANCH   6  14
BRANCH  10  24
ATOM     24  C   UNL     1       2.614   1.772   0.320  0.00  0.00    -0.006 A 
ATOM     25  C   UNL     1       3.165   0.535   0.388  0.00  0.00    +0.011 A 
ATOM     26  C   UNL     1       2.335  -0.561   0.539  0.00  0.00    +0.008 A 
ATOM     27  C   UNL     1       0.996  -0.366   0.609  0.00  0.00    +0.045 A 
ATOM     28  S   UNL     1       0.873   1.409   0.471  0.00  0.00    -0.101 S 
ENDBRANCH  10  24
BRANCH   1  29
ATOM     29  C   UNL     1       4.571   9.416   0.973  0.00  0.00    +0.338 C 
ATOM     30  O   UNL     1       4.378  10.090   1.968  0.00  0.00    -0.245 OA
BRANCH  29  31
ATOM     31  O   UNL     1       4.967  10.005  -0.174  0.00  0.00    -0.462 OA
BRANCH  31  33
ATOM     32  C   UNL     1       5.588  11.908  -1.530  0.00  0.00    +0.048 C 
ATOM     33  C   UNL     1       5.140  11.424  -0.149  0.00  0.00    +0.229 C 
ENDBRANCH  31  33
ENDBRANCH  29  31
ENDBRANCH   1  29
TORSDOF 6
