REMARK  Name = ZINC40709691
REMARK  10 active torsions:
REMARK  status: ('A' for Active; 'I' for Inactive)
REMARK    1  A    between atoms: C_4  and  C_7
REMARK    2  A    between atoms: C_7  and  N_8
REMARK    3  A    between atoms: N_8  and  C_9
REMARK    4  A    between atoms: C_9  and  C_10
REMARK    5  A    between atoms: C_17  and  N_31
REMARK    6  A    between atoms: C_18  and  N_22
REMARK    7  A    between atoms: N_22  and  C_23
REMARK    8  A    between atoms: C_23  and  C_24
REMARK    9  A    between atoms: C_24  and  C_25
REMARK   10  A    between atoms: C_25  and  N_26
REMARK                            x       y       z     vdW  Elec       q    Type
REMARK                         _______ _______ _______ _____ _____    ______ ____
ROOT
ATOM      1  N   UNL     1       4.157  -0.957   1.359  0.00  0.00    -0.305 N 
ATOM      2  C   UNL     1       4.928  -0.027   2.046  0.00  0.00    +0.148 A 
ATOM      3  C   UNL     1       5.418  -0.316   3.321  0.00  0.00    +0.105 A 
ATOM      4  C   UNL     1       6.188   0.653   3.966  0.00  0.00    +0.145 A 
ATOM      5  N   UNL     1       6.423   1.808   3.346  0.00  0.00    -0.219 NA
ATOM      6  C   UNL     1       5.942   2.040   2.142  0.00  0.00    +0.225 A 
ATOM      7  N   UNL     1       5.215   1.151   1.496  0.00  0.00    -0.219 NA
ENDROOT
BRANCH   3   8
ATOM      8  N   UNL     1       5.144  -1.548   3.937  0.00  0.00    -0.353 N 
ATOM      9  H   UNL     1       4.550  -2.183   3.508  0.00  0.00    +0.143 HD
ATOM     10  H   UNL     1       5.549  -1.763   4.792  0.00  0.00    +0.143 HD
ENDBRANCH   3   8
BRANCH   4  11
ATOM     11  N   UNL     1       6.699   0.417   5.237  0.00  0.00    -0.327 N 
ATOM     12  H   UNL     1       6.523  -0.426   5.681  0.00  0.00    +0.148 HD
BRANCH  11  13
ATOM     13  C   UNL     1       7.506   1.443   5.904  0.00  0.00    +0.105 C 
BRANCH  13  14
ATOM     14  C   UNL     1       7.941   0.934   7.279  0.00  0.00    +0.040 C 
BRANCH  14  15
ATOM     15  C   UNL     1       8.783   2.004   7.976  0.00  0.00    +0.124 C 
BRANCH  15  16
ATOM     16  N   UNL     1       9.200   1.517   9.293  0.00  0.00    -0.338 N 
ATOM     17  C   UNL     1       8.517   1.668  10.469  0.00  0.00    +0.104 A 
ATOM     18  C   UNL     1       9.252   1.073  11.427  0.00  0.00    +0.101 A 
ATOM     19  N   UNL     1      10.355   0.572  10.852  0.00  0.00    -0.352 N 
ATOM     20  C   UNL     1      10.329   0.830   9.573  0.00  0.00    +0.173 A 
ATOM     21  H   UNL     1      11.060   0.090  11.313  0.00  0.00    +0.166 HD
ENDBRANCH  15  16
ENDBRANCH  14  15
ENDBRANCH  13  14
ENDBRANCH  11  13
ENDBRANCH   4  11
BRANCH   1  22
ATOM     22  C   UNL     1       2.696  -0.874   1.405  0.00  0.00    +0.142 C 
BRANCH  22  26
ATOM     23  C   UNL     1       1.240  -3.168   4.701  0.00  0.00    +0.000 A 
ATOM     24  C   UNL     1       1.553  -1.833   4.873  0.00  0.00    +0.000 A 
ATOM     25  C   UNL     1       2.025  -1.091   3.806  0.00  0.00    +0.005 A 
ATOM     26  C   UNL     1       2.183  -1.684   2.568  0.00  0.00    -0.030 A 
ATOM     27  C   UNL     1       1.870  -3.019   2.396  0.00  0.00    +0.005 A 
ATOM     28  C   UNL     1       1.397  -3.761   3.462  0.00  0.00    +0.000 A 
ENDBRANCH  22  26
ENDBRANCH   1  22
BRANCH   1  29
ATOM     29  C   UNL     1       4.807  -2.021   0.588  0.00  0.00    +0.142 C 
BRANCH  29  30
ATOM     30  C   UNL     1       4.934  -1.593  -0.851  0.00  0.00    -0.030 A 
ATOM     31  C   UNL     1       3.879  -1.783  -1.724  0.00  0.00    +0.005 A 
ATOM     32  C   UNL     1       3.995  -1.390  -3.045  0.00  0.00    +0.000 A 
ATOM     33  C   UNL     1       5.166  -0.807  -3.492  0.00  0.00    +0.000 A 
ATOM     34  C   UNL     1       6.220  -0.616  -2.618  0.00  0.00    +0.000 A 
ATOM     35  C   UNL     1       6.103  -1.005  -1.297  0.00  0.00    +0.005 A 
ENDBRANCH  29  30
ENDBRANCH   1  29
TORSDOF 10
