REMARK  Name = ZINC38975786
REMARK  9 active torsions:
REMARK  status: ('A' for Active; 'I' for Inactive)
REMARK    1  A    between atoms: C_1  and  C_2
REMARK    2  A    between atoms: C_2  and  C_3
REMARK    3  A    between atoms: C_3  and  C_4
REMARK    4  A    between atoms: C_4  and  N_5
REMARK    5  A    between atoms: N_5  and  C_6
REMARK    6  A    between atoms: N_9  and  S_10
REMARK    7  A    between atoms: S_10  and  C_13
REMARK    8  A    between atoms: C_16  and  C_20
REMARK    9  A    between atoms: C_17  and  C_19
REMARK                            x       y       z     vdW  Elec       q    Type
REMARK                         _______ _______ _______ _____ _____    ______ ____
ROOT
ATOM      1  C   UNL     1       1.466  -3.969  -2.516  0.00  0.00    +0.217 C 
ATOM      2  C   UNL     1       0.995  -4.404  -3.885  0.00  0.00    +0.167 C 
ATOM      3  N   UNL     1      -0.181  -4.056  -4.320  0.00  0.00    -0.112 NA
ATOM      4  N   UNL     1       1.808  -5.154  -4.646  0.00  0.00    -0.338 N 
ATOM      5  C   UNL     1       3.002  -5.519  -4.229  0.00  0.00    +0.064 A 
ATOM      6  C   UNL     1       3.834  -6.312  -5.059  0.00  0.00    +0.028 A 
ATOM      7  C   UNL     1       5.060  -6.690  -4.635  0.00  0.00    +0.002 A 
ATOM      8  C   UNL     1       5.574  -6.330  -3.378  0.00  0.00    +0.002 A 
ATOM      9  C   UNL     1       4.864  -5.577  -2.510  0.00  0.00    +0.027 A 
ATOM     10  C   UNL     1       3.519  -5.124  -2.895  0.00  0.00    +0.060 A 
ATOM     11  N   UNL     1       2.806  -4.395  -2.084  0.00  0.00    -0.362 N 
ATOM     12  H   UNL     1       3.151  -4.140  -1.214  0.00  0.00    +0.162 HD
ATOM     13  H   UNL     1       1.508  -5.434  -5.525  0.00  0.00    +0.167 HD
ENDROOT
BRANCH   3  14
ATOM     14  S   UNL     1      -0.684  -4.540  -5.822  0.00  0.00    +0.100 S 
ATOM     15  O   UNL     1       0.159  -3.889  -6.762  0.00  0.00    -0.146 OA
ATOM     16  O   UNL     1      -0.819  -5.953  -5.769  0.00  0.00    -0.146 OA
BRANCH  14  17
ATOM     17  C   UNL     1      -2.304  -3.888  -6.062  0.00  0.00    +0.113 A 
ATOM     18  C   UNL     1      -3.409  -4.623  -5.675  0.00  0.00    +0.029 A 
ATOM     19  C   UNL     1      -4.679  -4.112  -5.864  0.00  0.00    +0.005 A 
ATOM     20  C   UNL     1      -4.845  -2.866  -6.440  0.00  0.00    -0.047 A 
ATOM     21  C   UNL     1      -3.740  -2.131  -6.827  0.00  0.00    -0.046 A 
ATOM     22  C   UNL     1      -2.469  -2.641  -6.634  0.00  0.00    +0.032 A 
ATOM     23  C   UNL     1      -3.920  -0.774  -7.455  0.00  0.00    +0.044 C 
ATOM     24  C   UNL     1      -6.230  -2.310  -6.647  0.00  0.00    +0.044 C 
ENDBRANCH  14  17
ENDBRANCH   3  14
BRANCH   1  25
ATOM     25  N   UNL     1       1.427  -2.501  -2.474  0.00  0.00    -0.291 NA
ATOM     26  H   UNL     1       0.995  -2.127  -3.305  0.00  0.00    +0.124 HD
BRANCH  25  27
ATOM     27  C   UNL     1       0.739  -2.027  -1.265  0.00  0.00    +0.083 C 
BRANCH  27  28
ATOM     28  C   UNL     1       0.718  -0.497  -1.257  0.00  0.00    +0.015 C 
BRANCH  28  30
ATOM     29  C   UNL     1      -0.019   1.526   0.010  0.00  0.00    +0.004 C 
ATOM     30  C   UNL     1       0.002  -0.004   0.002  0.00  0.00    -0.002 C 
ENDBRANCH  28  30
ENDBRANCH  27  28
ENDBRANCH  25  27
ENDBRANCH   1  25
TORSDOF 6
