REMARK  Name = ZINC34750242
REMARK  9 active torsions:
REMARK  status: ('A' for Active; 'I' for Inactive)
REMARK    1  A    between atoms: C_1  and  C_2
REMARK    2  A    between atoms: C_5  and  N_8
REMARK    3  A    between atoms: C_9  and  C_11
REMARK    4  A    between atoms: C_11  and  S_12
REMARK    5  A    between atoms: S_12  and  C_13
REMARK    6  A    between atoms: C_24  and  C_26
REMARK    7  A    between atoms: C_24  and  C_27
REMARK    8  A    between atoms: N_31  and  C_34
REMARK    9  A    between atoms: C_34  and  C_35
REMARK                            x       y       z     vdW  Elec       q    Type
REMARK                         _______ _______ _______ _____ _____    ______ ____
ROOT
ATOM      1  C   UNL     1       0.395  -8.741   2.635  0.00  0.00    +0.191 A 
ATOM      2  N   UNL     1       0.517  -9.503   3.716  0.00  0.00    -0.206 NA
ATOM      3  C   UNL     1       0.822 -10.787   3.639  0.00  0.00    +0.134 A 
ATOM      4  C   UNL     1       1.027 -11.379   2.361  0.00  0.00    +0.051 A 
ATOM      5  C   UNL     1       1.369 -12.763   2.035  0.00  0.00    -0.020 A 
ATOM      6  C   UNL     1       1.510 -13.070   0.728  0.00  0.00    +0.021 A 
ATOM      7  S   UNL     1       1.198 -11.558  -0.138  0.00  0.00    -0.071 S 
ATOM      8  C   UNL     1       0.881 -10.511   1.260  0.00  0.00    +0.115 A 
ATOM      9  N   UNL     1       0.570  -9.239   1.419  0.00  0.00    -0.214 NA
ATOM     10  C   UNL     1       1.857 -14.414   0.166  0.00  0.00    +0.203 C 
ATOM     11  O   UNL     1       2.326 -15.236   1.246  0.00  0.00    -0.368 OA
ATOM     12  C   UNL     1       1.474 -15.210   2.395  0.00  0.00    +0.068 C 
ATOM     13  C   UNL     1       1.570 -13.848   3.090  0.00  0.00    +0.071 C 
ATOM     14  C   UNL     1       0.028 -15.456   1.959  0.00  0.00    +0.041 C 
ATOM     15  C   UNL     1       1.902 -16.308   3.370  0.00  0.00    +0.041 C 
ATOM     16  N   UNL     1       0.940 -11.547   4.788  0.00  0.00    -0.318 N 
ATOM     17  C   UNL     1       2.249 -11.755   5.427  0.00  0.00    +0.088 C 
ATOM     18  C   UNL     1       2.121 -11.421   6.917  0.00  0.00    -0.059 C 
ATOM     19  N   UNL     1       1.029 -12.209   7.502  0.00  0.00    +0.384 N 
ATOM     20  C   UNL     1      -0.251 -11.817   6.898  0.00  0.00    -0.059 C 
ATOM     21  C   UNL     1      -0.241 -12.166   5.410  0.00  0.00    +0.088 C 
ATOM     22  H   UNL     1       1.194 -13.190   7.330  0.00  0.00    -0.081 HD
ENDROOT
BRANCH   1  23
ATOM     23  S   UNL     1      -0.013  -7.037   2.821  0.00  0.00    -0.077 S 
BRANCH  23  24
ATOM     24  C   UNL     1      -0.079  -6.413   1.119  0.00  0.00    +0.173 C 
BRANCH  24  26
ATOM     25  N   UNL     1      -0.528  -4.266  -0.024  0.00  0.00    -0.285 N 
ATOM     26  C   UNL     1      -0.424  -4.946   1.135  0.00  0.00    +0.227 C 
ATOM     27  O   UNL     1      -0.607  -4.377   2.190  0.00  0.00    -0.275 OA
ATOM     28  H   UNL     1      -0.447  -4.734  -0.870  0.00  0.00    +0.155 HD
BRANCH  25  33
ATOM     29  C   UNL     1      -1.440   1.333   0.043  0.00  0.00    +0.044 C 
ATOM     30  C   UNL     1      -1.198  -0.154   0.025  0.00  0.00    -0.050 A 
ATOM     31  C   UNL     1      -0.446  -0.743   1.025  0.00  0.00    +0.005 A 
ATOM     32  C   UNL     1      -0.222  -2.106   1.012  0.00  0.00    +0.023 A 
ATOM     33  C   UNL     1      -0.753  -2.885  -0.007  0.00  0.00    +0.033 A 
ATOM     34  C   UNL     1      -1.508  -2.291  -1.010  0.00  0.00    +0.023 A 
ATOM     35  C   UNL     1      -1.732  -0.928  -0.988  0.00  0.00    +0.005 A 
ENDBRANCH  25  33
ENDBRANCH  24  26
ENDBRANCH  23  24
ENDBRANCH   1  23
BRANCH  19  36
ATOM     36  C   UNL     1       0.978 -11.972   8.951  0.00  0.00    -0.052 C 
BRANCH  36  37
ATOM     37  C   UNL     1      -0.060 -12.871   9.571  0.00  0.00    -0.053 C 
ATOM     38  C   UNL     1       0.270 -13.668  10.557  0.00  0.00    +0.002 C 
ENDBRANCH  36  37
ENDBRANCH  19  36
TORSDOF 6
