REMARK  Name = ZINC12456996
REMARK  9 active torsions:
REMARK  status: ('A' for Active; 'I' for Inactive)
REMARK    1  A    between atoms: C_1  and  C_2
REMARK    2  A    between atoms: C_3  and  C_7
REMARK    3  A    between atoms: C_15  and  S_21
REMARK    4  A    between atoms: C_16  and  C_17
REMARK    5  A    between atoms: C_17  and  O_19
REMARK    6  A    between atoms: O_19  and  C_20
REMARK    7  A    between atoms: S_21  and  N_24
REMARK    8  A    between atoms: N_24  and  C_25
REMARK    9  A    between atoms: C_25  and  C_26
REMARK                            x       y       z     vdW  Elec       q    Type
REMARK                         _______ _______ _______ _____ _____    ______ ____
ROOT
ATOM      1  C   UNL     1      -1.179   2.150   0.019  0.00  0.00    +0.257 C 
ATOM      2  O   UNL     1      -2.221   1.536   0.155  0.00  0.00    -0.269 OA
ATOM      3  N   UNL     1      -0.035   1.487  -0.240  0.00  0.00    -0.292 N 
ATOM      4  C   UNL     1       0.015   0.017  -0.226  0.00  0.00    +0.113 C 
ATOM      5  C   UNL     1       0.332  -0.499  -1.631  0.00  0.00    +0.056 C 
ATOM      6  C   UNL     1       1.514   0.279  -2.195  0.00  0.00    -0.018 A 
ATOM      7  C   UNL     1       1.870   1.481  -1.688  0.00  0.00    +0.013 A 
ATOM      8  S   UNL     1       3.264   1.984  -2.655  0.00  0.00    -0.071 S 
ATOM      9  C   UNL     1       3.374   0.616  -3.714  0.00  0.00    +0.157 A 
ATOM     10  C   UNL     1       2.336  -0.189  -3.297  0.00  0.00    +0.096 A 
ATOM     11  C   UNL     1       1.214   2.209  -0.554  0.00  0.00    +0.150 C 
ENDROOT
BRANCH   1  14
ATOM     12  C   UNL     1      -3.672   4.083   0.283  0.00  0.00    +0.069 C 
ATOM     13  C   UNL     1      -2.228   4.511   0.256  0.00  0.00    +0.081 A 
ATOM     14  C   UNL     1      -1.169   3.617   0.138  0.00  0.00    +0.117 A 
ATOM     15  S   UNL     1       0.204   4.755   0.165  0.00  0.00    +0.041 S 
ATOM     16  N   UNL     1      -0.608   6.103   0.314  0.00  0.00    -0.110 NA
ATOM     17  N   UNL     1      -1.845   5.762   0.346  0.00  0.00    -0.146 NA
ENDBRANCH   1  14
BRANCH   9  18
ATOM     18  S   UNL     1       4.531   0.325  -5.010  0.00  0.00    +0.065 S 
ATOM     19  O   UNL     1       5.318  -0.788  -4.610  0.00  0.00    -0.153 OA
ATOM     20  O   UNL     1       3.793   0.339  -6.224  0.00  0.00    -0.153 OA
BRANCH  18  21
ATOM     21  N   UNL     1       5.548   1.631  -5.060  0.00  0.00    -0.189 NA
ATOM     22  H   UNL     1       5.557   2.210  -5.838  0.00  0.00    +0.148 HD
BRANCH  21  23
ATOM     23  C   UNL     1       6.436   1.912  -3.929  0.00  0.00    +0.109 C 
BRANCH  23  24
ATOM     24  C   UNL     1       7.511   2.911  -4.360  0.00  0.00    +0.005 C 
ATOM     25  C   UNL     1       8.403   2.273  -5.426  0.00  0.00    +0.005 C 
ATOM     26  C   UNL     1       9.479   3.272  -5.856  0.00  0.00    +0.000 C 
ATOM     27  C   UNL     1      10.329   3.661  -4.645  0.00  0.00    +0.000 C 
ATOM     28  C   UNL     1       9.436   4.300  -3.579  0.00  0.00    +0.000 C 
ATOM     29  C   UNL     1       8.361   3.300  -3.148  0.00  0.00    +0.005 C 
ENDBRANCH  23  24
ENDBRANCH  21  23
ENDBRANCH  18  21
ENDBRANCH   9  18
BRANCH  10  30
ATOM     30  C   UNL     1       2.069  -1.481  -3.946  0.00  0.00    +0.342 C 
ATOM     31  O   UNL     1       1.315  -1.539  -4.898  0.00  0.00    -0.245 OA
BRANCH  30  32
ATOM     32  O   UNL     1       2.661  -2.602  -3.487  0.00  0.00    -0.464 OA
ATOM     33  C   UNL     1       2.352  -3.841  -4.177  0.00  0.00    +0.280 C 
ENDBRANCH  30  32
ENDBRANCH  10  30
TORSDOF 7
