REMARK  Name = ZINC36579528
REMARK  19 active torsions:
REMARK  status: ('A' for Active; 'I' for Inactive)
REMARK    1  A    between atoms: C_1  and  C_2
REMARK    2  A    between atoms: C_2  and  C_3
REMARK    3  A    between atoms: C_2  and  C_4
REMARK    4  A    between atoms: C_2  and  C_5
REMARK    5  A    between atoms: C_5  and  C_6
REMARK    6  A    between atoms: C_6  and  C_7
REMARK    7  A    between atoms: C_6  and  C_8
REMARK    8  A    between atoms: C_6  and  N_9
REMARK    9  A    between atoms: C_10  and  C_12
REMARK   10  A    between atoms: C_12  and  C_14
REMARK   11  A    between atoms: C_12  and  N_19
REMARK   12  A    between atoms: N_19  and  C_38
REMARK   13  A    between atoms: C_20  and  C_22
REMARK   14  A    between atoms: C_28  and  O_30
REMARK   15  A    between atoms: O_30  and  C_31
REMARK   16  A    between atoms: C_31  and  C_32
REMARK   17  A    between atoms: C_38  and  C_39
REMARK   18  A    between atoms: C_38  and  C_40
REMARK   19  A    between atoms: C_38  and  C_41
REMARK                            x       y       z     vdW  Elec       q    Type
REMARK                         _______ _______ _______ _____ _____    ______ ____
ROOT
ATOM      1  N   UNL     1       5.761  -0.098  -1.945  0.00  0.00    -0.277 N 
ATOM      2  C   UNL     1       6.939  -0.745  -1.845  0.00  0.00    +0.238 C 
ATOM      3  O   UNL     1       7.015  -1.915  -2.157  0.00  0.00    -0.274 OA
ENDROOT
BRANCH   2   4
ATOM      4  C   UNL     1       8.160  -0.017  -1.347  0.00  0.00    +0.165 C 
ATOM      5  C   UNL     1       8.942   0.574  -2.539  0.00  0.00    +0.033 C 
ATOM      6  C   UNL     1      10.421   0.359  -2.124  0.00  0.00    +0.021 C 
ATOM      7  C   UNL     1      10.342  -0.996  -1.378  0.00  0.00    +0.112 C 
ATOM      8  N   UNL     1       9.055  -0.956  -0.655  0.00  0.00    -0.256 N 
ATOM      9  C   UNL     1       8.750  -1.660   0.453  0.00  0.00    +0.404 C 
ATOM     10  O   UNL     1       7.653  -1.545   0.963  0.00  0.00    -0.226 OA
BRANCH   9  11
ATOM     11  O   UNL     1       9.660  -2.492   0.994  0.00  0.00    -0.445 OA
BRANCH  11  12
ATOM     12  C   UNL     1       9.269  -3.207   2.167  0.00  0.00    +0.269 C 
BRANCH  12  13
ATOM     13  C   UNL     1      10.408  -4.081   2.626  0.00  0.00    -0.010 A 
ATOM     14  C   UNL     1      10.522  -5.373   2.150  0.00  0.00    +0.007 A 
ATOM     15  C   UNL     1      11.567  -6.175   2.571  0.00  0.00    +0.000 A 
ATOM     16  C   UNL     1      12.498  -5.683   3.467  0.00  0.00    +0.000 A 
ATOM     17  C   UNL     1      12.384  -4.390   3.943  0.00  0.00    +0.000 A 
ATOM     18  C   UNL     1      11.341  -3.587   3.518  0.00  0.00    +0.007 A 
ENDBRANCH  12  13
ENDBRANCH  11  12
ENDBRANCH   9  11
ENDBRANCH   2   4
BRANCH   1  19
ATOM     19  C   UNL     1       5.688   1.337  -1.658  0.00  0.00    +0.030 C 
ATOM     20  C   UNL     1       5.668   1.553  -0.143  0.00  0.00    +0.031 C 
ATOM     21  C   UNL     1       6.907   2.041  -2.257  0.00  0.00    +0.031 C 
ATOM     22  C   UNL     1       4.412   1.916  -2.272  0.00  0.00    +0.031 C 
ENDBRANCH   1  19
BRANCH   1  23
ATOM     23  C   UNL     1       4.554  -0.828  -2.342  0.00  0.00    +0.229 C 
BRANCH  23  24
ATOM     24  C   UNL     1       4.215  -0.498  -3.773  0.00  0.00    +0.134 A 
ATOM     25  C   UNL     1       3.754  -1.365  -4.692  0.00  0.00    +0.047 A 
ATOM     26  C   UNL     1       3.573  -0.635  -5.889  0.00  0.00    +0.041 A 
ATOM     27  C   UNL     1       3.933   0.634  -5.630  0.00  0.00    +0.195 A 
ATOM     28  O   UNL     1       4.316   0.713  -4.345  0.00  0.00    -0.465 OA
ENDBRANCH  23  24
BRANCH  23  30
ATOM     29  N   UNL     1       2.184  -0.955  -1.646  0.00  0.00    -0.308 N 
ATOM     30  C   UNL     1       3.409  -0.427  -1.449  0.00  0.00    +0.242 C 
ATOM     31  O   UNL     1       3.588   0.370  -0.553  0.00  0.00    -0.273 OA
ATOM     32  H   UNL     1       2.041  -1.592  -2.363  0.00  0.00    +0.149 HD
BRANCH  29  33
ATOM     33  C   UNL     1       1.070  -0.566  -0.778  0.00  0.00    +0.030 C 
ATOM     34  C   UNL     1       0.849   0.945  -0.878  0.00  0.00    +0.031 C 
ATOM     35  C   UNL     1       1.397  -0.938   0.669  0.00  0.00    +0.031 C 
BRANCH  33  36
ATOM     36  C   UNL     1      -0.199  -1.297  -1.218  0.00  0.00    +0.031 C 
BRANCH  36  38
ATOM     37  C   UNL     1       0.560  -1.953  -3.506  0.00  0.00    +0.010 C 
ATOM     38  C   UNL     1      -0.418  -1.081  -2.717  0.00  0.00    -0.036 C 
ATOM     39  C   UNL     1      -0.181   0.391  -3.061  0.00  0.00    +0.010 C 
ATOM     40  C   UNL     1      -1.853  -1.466  -3.083  0.00  0.00    +0.010 C 
ENDBRANCH  36  38
ENDBRANCH  33  36
ENDBRANCH  29  33
ENDBRANCH  23  30
ENDBRANCH   1  23
TORSDOF 11
