REMARK  Name = ZINC40125069
REMARK  14 active torsions:
REMARK  status: ('A' for Active; 'I' for Inactive)
REMARK    1  A    between atoms: C_1  and  C_2
REMARK    2  A    between atoms: C_2  and  O_3
REMARK    3  A    between atoms: O_3  and  C_4
REMARK    4  A    between atoms: C_6  and  C_16
REMARK    5  A    between atoms: C_9  and  O_10
REMARK    6  A    between atoms: O_10  and  C_11
REMARK    7  A    between atoms: C_11  and  C_12
REMARK    8  A    between atoms: C_12  and  C_13
REMARK    9  A    between atoms: C_13  and  C_14
REMARK   10  A    between atoms: C_13  and  C_15
REMARK   11  A    between atoms: C_18  and  C_24
REMARK   12  A    between atoms: C_24  and  C_26
REMARK   13  A    between atoms: C_27  and  C_32
REMARK   14  A    between atoms: C_29  and  C_31
REMARK                            x       y       z     vdW  Elec       q    Type
REMARK                         _______ _______ _______ _____ _____    ______ ____
ROOT
ATOM      1  C   UNL     1      -0.734  -4.035   0.040  0.00  0.00    +0.142 C 
ATOM      2  C   UNL     1      -0.664  -4.072   1.549  0.00  0.00    +0.077 C 
ATOM      3  C   UNL     1      -1.939  -4.090   1.998  0.00  0.00    +0.249 C 
ATOM      4  C   UNL     1      -2.861  -4.067   0.845  0.00  0.00    +0.285 C 
ATOM      5  O   UNL     1      -4.074  -4.075   0.922  0.00  0.00    -0.267 OA
ATOM      6  N   UNL     1      -2.160  -4.036  -0.305  0.00  0.00    -0.298 N 
ATOM      7  O   UNL     1      -2.311  -4.124   3.299  0.00  0.00    -0.282 OA
ATOM      8  H   UNL     1      -2.531  -4.016  -1.201  0.00  0.00    +0.150 HD
ENDROOT
BRANCH   1  11
ATOM      9  C   UNL     1       0.208  -0.404  -0.405  0.00  0.00    +0.162 A 
ATOM     10  C   UNL     1      -0.396  -1.556   0.071  0.00  0.00    +0.055 A 
ATOM     11  C   UNL     1      -0.075  -2.783  -0.480  0.00  0.00    -0.019 A 
ATOM     12  C   UNL     1       0.848  -2.864  -1.505  0.00  0.00    +0.009 A 
ATOM     13  C   UNL     1       1.455  -1.718  -1.985  0.00  0.00    +0.050 A 
ATOM     14  C   UNL     1       1.134  -0.485  -1.442  0.00  0.00    +0.162 A 
BRANCH   9  15
ATOM     15  O   UNL     1      -0.106   0.804   0.135  0.00  0.00    -0.489 OA
BRANCH  15  17
ATOM     16  C   UNL     1      -1.261   2.243   1.695  0.00  0.00    +0.048 C 
ATOM     17  C   UNL     1      -1.019   0.805   1.235  0.00  0.00    +0.226 C 
ENDBRANCH  15  17
ENDBRANCH   9  15
BRANCH  14  18
ATOM     18  O   UNL     1       1.725   0.644  -1.916  0.00  0.00    -0.488 OA
BRANCH  18  19
ATOM     19  C   UNL     1       2.665   0.485  -2.981  0.00  0.00    +0.229 C 
BRANCH  19  20
ATOM     20  C   UNL     1       3.222   1.854  -3.378  0.00  0.00    +0.044 C 
BRANCH  20  21
ATOM     21  C   UNL     1       4.228   1.684  -4.518  0.00  0.00    -0.014 C 
ATOM     22  C   UNL     1       4.691   3.061  -4.999  0.00  0.00    +0.007 C 
ATOM     23  C   UNL     1       5.434   0.886  -4.019  0.00  0.00    +0.007 C 
ENDBRANCH  20  21
ENDBRANCH  19  20
ENDBRANCH  18  19
ENDBRANCH  14  18
ENDBRANCH   1  11
BRANCH   2  24
ATOM     24  C   UNL     1       0.554  -4.085   2.368  0.00  0.00    +0.203 C 
ATOM     25  O   UNL     1       0.476  -3.952   3.577  0.00  0.00    -0.286 OA
BRANCH  24  26
ATOM     26  C   UNL     1       1.864  -4.260   1.733  0.00  0.00    +0.082 A 
ATOM     27  C   UNL     1       3.138  -4.152   2.278  0.00  0.00    +0.057 A 
ATOM     28  N   UNL     1       4.138  -4.365   1.460  0.00  0.00    -0.249 NA
ATOM     29  C   UNL     1       3.944  -4.662   0.195  0.00  0.00    +0.076 A 
ATOM     30  S   UNL     1       2.268  -4.676   0.044  0.00  0.00    -0.069 S 
ATOM     31  C   UNL     1       4.977  -4.933  -0.867  0.00  0.00    +0.073 C 
ATOM     32  C   UNL     1       3.356  -3.810   3.730  0.00  0.00    +0.067 C 
ENDBRANCH  24  26
ENDBRANCH   2  24
TORSDOF 9
