REMARK  Name = ZINC09278728
REMARK  10 active torsions:
REMARK  status: ('A' for Active; 'I' for Inactive)
REMARK    1  A    between atoms: C_1  and  O_2
REMARK    2  A    between atoms: O_2  and  C_3
REMARK    3  A    between atoms: C_6  and  N_9
REMARK    4  A    between atoms: C_10  and  C_26
REMARK    5  A    between atoms: C_13  and  S_14
REMARK    6  A    between atoms: S_14  and  C_15
REMARK    7  A    between atoms: C_15  and  C_16
REMARK    8  A    between atoms: N_18  and  C_19
REMARK    9  A    between atoms: C_19  and  C_20
REMARK   10  A    between atoms: C_26  and  N_27
REMARK                            x       y       z     vdW  Elec       q    Type
REMARK                         _______ _______ _______ _____ _____    ______ ____
ROOT
ATOM      1  N   UNL     1       1.425  -2.107   0.042  0.00  0.00    -0.273 N 
ATOM      2  C   UNL     1       1.608  -2.905  -1.056  0.00  0.00    +0.159 A 
ATOM      3  N   UNL     1       1.296  -4.121  -0.708  0.00  0.00    -0.131 NA
ATOM      4  N   UNL     1       0.930  -4.148   0.524  0.00  0.00    -0.122 NA
ATOM      5  C   UNL     1       0.995  -2.941   1.037  0.00  0.00    +0.197 A 
ENDROOT
BRANCH   1   9
ATOM      6  C   UNL     1       2.064   2.008   0.301  0.00  0.00    +0.120 A 
ATOM      7  C   UNL     1       0.778   1.497   0.410  0.00  0.00    +0.047 A 
ATOM      8  C   UNL     1       0.567   0.136   0.325  0.00  0.00    +0.030 A 
ATOM      9  C   UNL     1       1.640  -0.723   0.129  0.00  0.00    +0.050 A 
ATOM     10  C   UNL     1       2.926  -0.211   0.020  0.00  0.00    +0.030 A 
ATOM     11  C   UNL     1       3.137   1.151   0.106  0.00  0.00    +0.047 A 
BRANCH   6  13
ATOM     12  C   UNL     1       3.620   3.805   0.264  0.00  0.00    +0.277 C 
ATOM     13  O   UNL     1       2.272   3.349   0.385  0.00  0.00    -0.495 OA
ENDBRANCH   6  13
ENDBRANCH   1   9
BRANCH   5  14
ATOM     14  S   UNL     1       0.600  -2.482   2.691  0.00  0.00    -0.076 S 
BRANCH  14  15
ATOM     15  C   UNL     1       0.128  -4.096   3.361  0.00  0.00    +0.173 C 
BRANCH  15  16
ATOM     16  C   UNL     1      -0.262  -3.945   4.809  0.00  0.00    +0.223 C 
ATOM     17  O   UNL     1      -0.224  -2.853   5.336  0.00  0.00    -0.275 OA
ATOM     18  N   UNL     1      -0.652  -5.022   5.518  0.00  0.00    -0.312 N 
ATOM     19  H   UNL     1      -0.682  -5.896   5.096  0.00  0.00    +0.149 HD
BRANCH  18  20
ATOM     20  C   UNL     1      -1.030  -4.875   6.926  0.00  0.00    +0.135 C 
BRANCH  20  21
ATOM     21  C   UNL     1      -1.429  -6.240   7.492  0.00  0.00    +0.135 C 
ATOM     22  C   UNL     1      -1.829  -6.096   8.973  0.00  0.00    +0.035 C 
ATOM     23  C   UNL     1      -3.285  -6.619   9.025  0.00  0.00    +0.031 C 
ATOM     24  C   UNL     1      -3.365  -7.485   7.742  0.00  0.00    +0.160 C 
ATOM     25  O   UNL     1      -2.575  -6.745   6.787  0.00  0.00    -0.375 OA
ENDBRANCH  20  21
ENDBRANCH  18  20
ENDBRANCH  15  16
ENDBRANCH  14  15
ENDBRANCH   5  14
BRANCH   2  26
ATOM     26  C   UNL     1       2.084  -2.459  -2.415  0.00  0.00    +0.202 C 
BRANCH  26  27
ATOM     27  N   UNL     1       0.927  -2.216  -3.281  0.00  0.00    -0.294 N 
ATOM     28  C   UNL     1       0.356  -3.271  -3.973  0.00  0.00    +0.060 A 
ATOM     29  C   UNL     1       0.743  -4.622  -3.954  0.00  0.00    +0.027 A 
ATOM     30  C   UNL     1       0.067  -5.560  -4.697  0.00  0.00    +0.002 A 
ATOM     31  C   UNL     1      -1.017  -5.209  -5.483  0.00  0.00    +0.001 A 
ATOM     32  C   UNL     1      -1.424  -3.887  -5.518  0.00  0.00    +0.017 A 
ATOM     33  C   UNL     1      -0.749  -2.949  -4.775  0.00  0.00    +0.041 A 
ATOM     34  S   UNL     1      -0.926  -1.198  -4.534  0.00  0.00    -0.027 S 
ATOM     35  C   UNL     1       0.435  -0.968  -3.401  0.00  0.00    +0.292 A 
ATOM     36  O   UNL     1       0.820   0.058  -2.871  0.00  0.00    -0.259 OA
ENDBRANCH  26  27
ENDBRANCH   2  26
TORSDOF 9
