REMARK  Name = ZINC05219713
REMARK  8 active torsions:
REMARK  status: ('A' for Active; 'I' for Inactive)
REMARK    1  A    between atoms: C_1  and  C_2
REMARK    2  A    between atoms: C_2  and  C_28
REMARK    3  A    between atoms: C_10  and  C_16
REMARK    4  A    between atoms: C_17  and  C_18
REMARK    5  A    between atoms: C_22  and  O_26
REMARK    6  A    between atoms: C_23  and  O_24
REMARK    7  A    between atoms: O_24  and  C_25
REMARK    8  A    between atoms: O_26  and  C_27
REMARK                            x       y       z     vdW  Elec       q    Type
REMARK                         _______ _______ _______ _____ _____    ______ ____
ROOT
ATOM      1  C   UNL     1      -0.019   1.526   0.010  0.00  0.00    +0.020 C 
ATOM      2  C   UNL     1       0.002  -0.004   0.002  0.00  0.00    +0.034 C 
ATOM      3  C   UNL     1       0.815  -0.516  -1.169  0.00  0.00    -0.017 A 
ATOM      4  C   UNL     1       0.592  -0.436  -2.529  0.00  0.00    +0.006 A 
ATOM      5  C   UNL     1       1.487  -1.007  -3.415  0.00  0.00    +0.000 A 
ATOM      6  C   UNL     1       2.608  -1.660  -2.935  0.00  0.00    +0.002 A 
ATOM      7  C   UNL     1       2.839  -1.736  -1.579  0.00  0.00    +0.023 A 
ATOM      8  C   UNL     1       1.945  -1.155  -0.676  0.00  0.00    +0.035 A 
ATOM      9  N   UNL     1       2.005  -1.075   0.709  0.00  0.00    -0.304 N 
ATOM     10  C   UNL     1       0.739  -0.537   1.235  0.00  0.00    +0.130 C 
ATOM     11  N   UNL     1       1.063   0.525   2.181  0.00  0.00    -0.290 N 
ATOM     12  C   UNL     1       2.276   0.655   2.725  0.00  0.00    +0.216 C 
ATOM     13  O   UNL     1       2.397   1.474   3.611  0.00  0.00    -0.276 OA
ATOM     14  C   UNL     1       3.498  -0.119   2.342  0.00  0.00    +0.115 C 
ATOM     15  C   UNL     1       3.131  -1.408   1.594  0.00  0.00    +0.117 C 
ATOM     16  C   UNL     1      -1.424  -0.557  -0.050  0.00  0.00    +0.020 C 
ATOM     17  H   UNL     1       0.372   1.161   2.424  0.00  0.00    +0.151 HD
ENDROOT
BRANCH  10  18
ATOM     18  C   UNL     1      -0.064  -1.627   1.897  0.00  0.00    +0.020 C 
ATOM     19  C   UNL     1       0.448  -2.844   2.022  0.00  0.00    +0.011 C 
BRANCH  19  20
ATOM     20  C   UNL     1      -0.338  -3.913   2.671  0.00  0.00    +0.020 A 
ATOM     21  C   UNL     1      -1.623  -3.647   3.149  0.00  0.00    +0.012 A 
ATOM     22  C   UNL     1      -2.354  -4.647   3.755  0.00  0.00    +0.004 A 
ATOM     23  C   UNL     1      -1.821  -5.917   3.892  0.00  0.00    +0.049 A 
ATOM     24  C   UNL     1      -0.547  -6.195   3.422  0.00  0.00    +0.162 A 
ATOM     25  C   UNL     1       0.199  -5.197   2.804  0.00  0.00    +0.169 A 
BRANCH  25  26
ATOM     26  O   UNL     1       1.446  -5.468   2.337  0.00  0.00    -0.491 OA
ATOM     27  C   UNL     1       2.534  -5.274   3.243  0.00  0.00    +0.277 C 
ENDBRANCH  25  26
BRANCH  24  28
ATOM     28  O   UNL     1      -0.029  -7.444   3.561  0.00  0.00    -0.491 OA
ATOM     29  C   UNL     1      -0.852  -8.421   4.201  0.00  0.00    +0.277 C 
ENDBRANCH  24  28
ENDBRANCH  19  20
ENDBRANCH  10  18
TORSDOF 4
