REMARK  Name = ZINC40011159
REMARK  8 active torsions:
REMARK  status: ('A' for Active; 'I' for Inactive)
REMARK    1  A    between atoms: C_1  and  C_2
REMARK    2  A    between atoms: C_9  and  C_14
REMARK    3  A    between atoms: C_16  and  N_26
REMARK    4  A    between atoms: C_20  and  C_25
REMARK    5  A    between atoms: N_26  and  C_27
REMARK    6  A    between atoms: C_27  and  C_28
REMARK    7  A    between atoms: C_28  and  O_29
REMARK    8  A    between atoms: O_29  and  C_30
REMARK                            x       y       z     vdW  Elec       q    Type
REMARK                         _______ _______ _______ _____ _____    ______ ____
ROOT
ATOM      1  C   UNL     1      -1.191  -4.906   3.016  0.00  0.00    +0.126 C 
ATOM      2  C   UNL     1      -1.063  -6.439   3.059  0.00  0.00    +0.049 C 
ATOM      3  N   UNL     1      -0.977  -6.737   4.499  0.00  0.00    -0.304 N 
ATOM      4  C   UNL     1      -0.851  -7.932   5.147  0.00  0.00    +0.078 C 
ATOM      5  C   UNL     1      -0.789  -7.988   6.493  0.00  0.00    -0.036 C 
ATOM      6  C   UNL     1      -0.854  -6.805   7.250  0.00  0.00    +0.008 C 
ATOM      7  C   UNL     1      -0.979  -5.610   6.622  0.00  0.00    +0.044 C 
ATOM      8  C   UNL     1      -1.044  -5.562   5.201  0.00  0.00    +0.119 C 
ATOM      9  N   UNL     1      -1.166  -4.502   4.425  0.00  0.00    -0.265 NA
ATOM     10  C   UNL     1      -0.650  -9.319   7.186  0.00  0.00    +0.045 C 
ENDROOT
BRANCH   1  19
ATOM     11  C   UNL     1      -0.345   1.677   0.378  0.00  0.00    +0.044 C 
ATOM     12  C   UNL     1      -0.285   0.174   0.291  0.00  0.00    -0.050 A 
ATOM     13  C   UNL     1      -0.312  -0.439  -0.963  0.00  0.00    +0.005 A 
ATOM     14  C   UNL     1      -0.261  -1.787  -1.120  0.00  0.00    +0.024 A 
ATOM     15  C   UNL     1      -0.177  -2.635  -0.001  0.00  0.00    +0.040 A 
ATOM     16  N   UNL     1      -0.127  -3.956  -0.167  0.00  0.00    -0.284 N 
ATOM     17  C   UNL     1      -0.049  -4.809   0.840  0.00  0.00    +0.226 C 
ATOM     18  O   UNL     1      -0.006  -6.006   0.626  0.00  0.00    -0.275 OA
ATOM     19  C   UNL     1      -0.011  -4.291   2.260  0.00  0.00    +0.123 C 
ATOM     20  C   UNL     1      -0.067  -2.788   2.456  0.00  0.00    -0.003 C 
ATOM     21  C   UNL     1      -0.147  -2.015   1.336  0.00  0.00    -0.007 A 
ATOM     22  C   UNL     1      -0.200  -0.556   1.433  0.00  0.00    +0.012 A 
ATOM     23  H   UNL     1      -0.150  -4.309  -1.071  0.00  0.00    +0.155 HD
ENDBRANCH   1  19
BRANCH   2  24
ATOM     24  N   UNL     1      -2.248  -7.074   2.467  0.00  0.00    +0.394 N 
ATOM     25  H   UNL     1      -3.055  -6.883   3.042  0.00  0.00    -0.083 HD
ATOM     26  H   UNL     1      -2.400  -6.704   1.541  0.00  0.00    -0.083 HD
BRANCH  24  27
ATOM     27  C   UNL     1      -2.037  -8.526   2.386  0.00  0.00    -0.051 C 
BRANCH  27  28
ATOM     28  C   UNL     1      -3.208  -9.171   1.643  0.00  0.00    +0.140 C 
BRANCH  28  29
ATOM     29  O   UNL     1      -3.224  -8.715   0.289  0.00  0.00    -0.385 OA
ATOM     30  C   UNL     1      -4.285  -9.261  -0.496  0.00  0.00    +0.193 C 
ENDBRANCH  28  29
ENDBRANCH  27  28
ENDBRANCH  24  27
ENDBRANCH   2  24
TORSDOF 5
