REMARK  Name = ZINC63234423
REMARK  8 active torsions:
REMARK  status: ('A' for Active; 'I' for Inactive)
REMARK    1  A    between atoms: C_1  and  C_2
REMARK    2  A    between atoms: C_5  and  S_8
REMARK    3  A    between atoms: S_8  and  C_9
REMARK    4  A    between atoms: C_12  and  N_29
REMARK    5  A    between atoms: C_14  and  C_15
REMARK    6  A    between atoms: N_17  and  C_18
REMARK    7  A    between atoms: C_18  and  C_19
REMARK    8  A    between atoms: C_19  and  C_20
REMARK                            x       y       z     vdW  Elec       q    Type
REMARK                         _______ _______ _______ _____ _____    ______ ____
ROOT
ATOM      1  C   UNL     1       0.225  -4.966   1.677  0.00  0.00    +0.025 A 
ATOM      2  C   UNL     1       0.192  -3.979   2.656  0.00  0.00    +0.018 A 
ATOM      3  C   UNL     1       0.320  -4.321   3.986  0.00  0.00    +0.034 A 
ATOM      4  C   UNL     1       0.482  -5.646   4.358  0.00  0.00    +0.127 A 
ATOM      5  C   UNL     1       0.518  -6.638   3.403  0.00  0.00    +0.047 A 
ATOM      6  C   UNL     1       0.384  -6.310   2.051  0.00  0.00    +0.053 A 
ENDROOT
BRANCH   6   7
ATOM      7  C   UNL     1       0.415  -7.367   1.025  0.00  0.00    +0.245 C 
ATOM      8  O   UNL     1       0.302  -7.076  -0.151  0.00  0.00    -0.270 OA
ATOM      9  N   UNL     1       0.568  -8.655   1.389  0.00  0.00    -0.311 N 
ATOM     10  H   UNL     1       0.657  -8.887   2.326  0.00  0.00    +0.149 HD
BRANCH   9  11
ATOM     11  C   UNL     1       0.598  -9.706   0.368  0.00  0.00    +0.109 C 
BRANCH  11  12
ATOM     12  C   UNL     1       0.780 -11.067   1.043  0.00  0.00    +0.052 C 
BRANCH  12  13
ATOM     13  C   UNL     1       0.811 -12.148  -0.007  0.00  0.00    -0.040 C 
ATOM     14  C   UNL     1       1.908 -12.695  -0.579  0.00  0.00    -0.001 A 
ATOM     15  C   UNL     1       3.346 -12.456  -0.402  0.00  0.00    +0.010 A 
ATOM     16  C   UNL     1       4.226 -13.176  -1.134  0.00  0.00    +0.001 A 
ATOM     17  C   UNL     1       3.800 -14.142  -2.056  0.00  0.00    +0.002 A 
ATOM     18  C   UNL     1       2.497 -14.418  -2.274  0.00  0.00    +0.026 A 
ATOM     19  C   UNL     1       1.485 -13.721  -1.558  0.00  0.00    +0.043 A 
ATOM     20  N   UNL     1       0.177 -13.806  -1.590  0.00  0.00    -0.380 N 
ATOM     21  C   UNL     1      -0.377 -12.845  -0.630  0.00  0.00    +0.144 C 
ATOM     22  H   UNL     1      -0.337 -14.406  -2.152  0.00  0.00    +0.160 HD
ENDBRANCH  12  13
ENDBRANCH  11  12
ENDBRANCH   9  11
ENDBRANCH   6   7
BRANCH   4  23
ATOM     23  N   UNL     1       0.619  -5.997   5.790  0.00  0.00    +0.056 N 
ATOM     24  O   UNL     1       0.589  -5.129   6.631  0.00  0.00    -0.126 OA
ATOM     25  O   UNL     1       0.761  -7.152   6.118  0.00  0.00    -0.126 OA
ENDBRANCH   4  23
BRANCH   1  26
ATOM     26  S   UNL     1       0.062  -4.533  -0.023  0.00  0.00    -0.089 S 
BRANCH  26  31
ATOM     27  C   UNL     1      -0.002   1.503   0.009  0.00  0.00    +0.044 C 
ATOM     28  C   UNL     1       0.014  -0.004   0.001  0.00  0.00    -0.050 A 
ATOM     29  C   UNL     1      -1.177  -0.706   0.006  0.00  0.00    +0.004 A 
ATOM     30  C   UNL     1      -1.166  -2.087  -0.001  0.00  0.00    +0.015 A 
ATOM     31  C   UNL     1       0.043  -2.771  -0.014  0.00  0.00    +0.013 A 
ATOM     32  C   UNL     1       1.238  -2.062  -0.020  0.00  0.00    +0.015 A 
ATOM     33  C   UNL     1       1.220  -0.681  -0.018  0.00  0.00    +0.004 A 
ENDBRANCH  26  31
ENDBRANCH   1  26
TORSDOF 7
