REMARK  Name = ZINC01811924
REMARK  4 active torsions:
REMARK  status: ('A' for Active; 'I' for Inactive)
REMARK    1  A    between atoms: C_1  and  C_2
REMARK    2  A    between atoms: C_16  and  C_18
REMARK    3  A    between atoms: C_21  and  O_24
REMARK    4  A    between atoms: O_24  and  C_25
REMARK                            x       y       z     vdW  Elec       q    Type
REMARK                         _______ _______ _______ _____ _____    ______ ____
ROOT
ATOM      1  C   UNL     1      -0.018   1.503   0.010  0.00  0.00    +0.044 C 
ATOM      2  C   UNL     1       0.002  -0.004   0.002  0.00  0.00    -0.050 A 
ATOM      3  C   UNL     1       0.005  -0.673  -1.205  0.00  0.00    +0.005 A 
ATOM      4  C   UNL     1       0.024  -2.057  -1.277  0.00  0.00    +0.024 A 
ATOM      5  C   UNL     1       0.040  -2.759  -0.070  0.00  0.00    +0.042 A 
ATOM      6  C   UNL     1       0.035  -2.068   1.148  0.00  0.00    +0.043 A 
ATOM      7  C   UNL     1       0.023  -0.691   1.211  0.00  0.00    +0.014 A 
ATOM      8  C   UNL     1       0.051  -3.110   2.220  0.00  0.00    +0.285 C 
ATOM      9  C   UNL     1       0.068  -4.423   1.467  0.00  0.00    +0.283 C 
ATOM     10  O   UNL     1       0.085  -5.534   1.954  0.00  0.00    -0.269 OA
ATOM     11  N   UNL     1       0.060  -4.125   0.151  0.00  0.00    -0.280 N 
ATOM     12  N   UNL     1      -1.089  -3.019   3.096  0.00  0.00    -0.165 NA
ATOM     13  C   UNL     1      -1.145  -1.639   3.670  0.00  0.00    +0.139 C 
ATOM     14  C   UNL     1      -2.460  -1.711   4.398  0.00  0.00    +0.023 C 
ATOM     15  C   UNL     1      -3.157  -2.663   3.734  0.00  0.00    +0.047 C 
ATOM     16  N   UNL     1      -2.365  -3.177   2.679  0.00  0.00    -0.273 N 
ATOM     17  C   UNL     1       0.090  -1.491   4.497  0.00  0.00    +0.018 A 
ATOM     18  C   UNL     1       0.114  -0.705   5.628  0.00  0.00    +0.024 A 
ATOM     19  C   UNL     1       1.279  -0.582   6.364  0.00  0.00    +0.018 A 
ATOM     20  C   UNL     1       2.422  -1.248   5.960  0.00  0.00    +0.019 A 
ATOM     21  C   UNL     1       2.401  -2.040   4.830  0.00  0.00    +0.047 A 
ATOM     22  C   UNL     1       1.234  -2.175   4.089  0.00  0.00    +0.129 A 
ATOM     23  O   UNL     1       1.236  -2.999   3.020  0.00  0.00    -0.456 OA
ATOM     24 BR   UNL     1       1.310   0.496   7.917  0.00  0.00    -0.050 Br
ATOM     25  H   UNL     1       0.067  -4.789  -0.556  0.00  0.00    +0.155 HD
ATOM     26  H   UNL     1      -2.671  -3.558   1.842  0.00  0.00    +0.167 HD
ENDROOT
BRANCH  15  27
ATOM     27  C   UNL     1      -4.535  -3.097   4.059  0.00  0.00    -0.003 A 
ATOM     28  C   UNL     1      -5.220  -2.510   5.123  0.00  0.00    +0.013 A 
ATOM     29  C   UNL     1      -6.502  -2.917   5.424  0.00  0.00    +0.046 A 
ATOM     30  C   UNL     1      -7.112  -3.911   4.669  0.00  0.00    +0.120 A 
ATOM     31  C   UNL     1      -6.432  -4.498   3.610  0.00  0.00    +0.046 A 
ATOM     32  C   UNL     1      -5.152  -4.091   3.300  0.00  0.00    +0.013 A 
BRANCH  30  33
ATOM     33  O   UNL     1      -8.375  -4.311   4.968  0.00  0.00    -0.495 OA
ATOM     34  C   UNL     1      -8.942  -5.338   4.152  0.00  0.00    +0.277 C 
ENDBRANCH  30  33
ENDBRANCH  15  27
TORSDOF 2
