REMARK  Name = ZINC14480060
REMARK  10 active torsions:
REMARK  status: ('A' for Active; 'I' for Inactive)
REMARK    1  A    between atoms: C_1  and  C_2
REMARK    2  A    between atoms: C_2  and  C_3
REMARK    3  A    between atoms: C_3  and  N_4
REMARK    4  A    between atoms: N_4  and  C_5
REMARK    5  A    between atoms: N_4  and  S_8
REMARK    6  A    between atoms: C_5  and  C_6
REMARK    7  A    between atoms: C_6  and  C_7
REMARK    8  A    between atoms: S_8  and  C_11
REMARK    9  A    between atoms: C_24  and  C_27
REMARK   10  A    between atoms: C_31  and  C_33
REMARK                            x       y       z     vdW  Elec       q    Type
REMARK                         _______ _______ _______ _____ _____    ______ ____
ROOT
ATOM      1  C   UNL     1       0.002  -0.004   0.002  0.00  0.00    +0.106 A 
ATOM      2  C   UNL     1      -1.090  -0.705  -0.477  0.00  0.00    +0.030 A 
ATOM      3  C   UNL     1      -1.068  -2.085  -0.481  0.00  0.00    +0.025 A 
ATOM      4  C   UNL     1       0.047  -2.765  -0.007  0.00  0.00    +0.031 A 
ATOM      5  C   UNL     1       1.145  -2.066   0.471  0.00  0.00    -0.018 A 
ATOM      6  C   UNL     1       1.113  -0.678   0.467  0.00  0.00    +0.034 A 
ATOM      7  C   UNL     1       2.369  -2.754   0.986  0.00  0.00    +0.049 C 
ATOM      8  C   UNL     1       2.445  -2.688   2.493  0.00  0.00    -0.023 C 
ATOM      9  C   UNL     1       2.947  -3.800   2.971  0.00  0.00    -0.030 C 
ATOM     10  C   UNL     1       3.282  -4.760   1.846  0.00  0.00    +0.033 C 
ATOM     11  C   UNL     1       2.390  -4.262   0.670  0.00  0.00    +0.029 C 
ATOM     12  C   UNL     1       0.994  -4.859   0.871  0.00  0.00    +0.105 C 
ATOM     13  N   UNL     1       0.050  -4.164  -0.011  0.00  0.00    -0.336 N 
ATOM     14  H   UNL     1      -0.556  -4.661  -0.582  0.00  0.00    +0.147 HD
ENDROOT
BRANCH  12  15
ATOM     15  C   UNL     1       1.018  -6.326   0.529  0.00  0.00    -0.027 A 
ATOM     16  C   UNL     1       0.960  -6.729  -0.792  0.00  0.00    +0.005 A 
ATOM     17  C   UNL     1       0.982  -8.075  -1.105  0.00  0.00    +0.001 A 
ATOM     18  C   UNL     1       1.061  -9.018  -0.098  0.00  0.00    +0.003 A 
ATOM     19  C   UNL     1       1.120  -8.616   1.223  0.00  0.00    -0.050 A 
ATOM     20  C   UNL     1       1.103  -7.269   1.536  0.00  0.00    +0.008 A 
ATOM     21  C   UNL     1       1.206  -9.644   2.321  0.00  0.00    +0.044 C 
ENDBRANCH  12  15
BRANCH   1  22
ATOM     22  S   UNL     1      -0.022   1.758   0.012  0.00  0.00    +0.061 S 
ATOM     23  O   UNL     1       1.334   2.182   0.001  0.00  0.00    -0.153 OA
ATOM     24  O   UNL     1      -0.953   2.157  -0.985  0.00  0.00    -0.153 OA
BRANCH  22  25
ATOM     25  N   UNL     1      -0.654   2.231   1.467  0.00  0.00    -0.177 NA
BRANCH  25  26
ATOM     26  C   UNL     1       0.231   2.453   2.613  0.00  0.00    +0.109 C 
BRANCH  26  28
ATOM     27  C   UNL     1       1.514   4.170   3.897  0.00  0.00    +0.005 C 
ATOM     28  C   UNL     1       0.589   3.938   2.700  0.00  0.00    +0.014 C 
ENDBRANCH  26  28
ENDBRANCH  25  26
BRANCH  25  29
ATOM     29  C   UNL     1      -2.099   2.427   1.609  0.00  0.00    +0.109 C 
BRANCH  29  30
ATOM     30  C   UNL     1      -2.736   1.150   2.161  0.00  0.00    +0.014 C 
ATOM     31  C   UNL     1      -4.245   1.355   2.309  0.00  0.00    +0.005 C 
ENDBRANCH  29  30
ENDBRANCH  25  29
ENDBRANCH  22  25
ENDBRANCH   1  22
TORSDOF 7
