REMARK  Name = ZINC15947170
REMARK  6 active torsions:
REMARK  status: ('A' for Active; 'I' for Inactive)
REMARK    1  A    between atoms: C_1  and  C_2
REMARK    2  A    between atoms: C_2  and  N_51
REMARK    3  A    between atoms: C_13  and  C_16
REMARK    4  A    between atoms: C_20  and  O_22
REMARK    5  A    between atoms: O_22  and  C_23
REMARK    6  A    between atoms: C_23  and  C_25
REMARK                            x       y       z     vdW  Elec       q    Type
REMARK                         _______ _______ _______ _____ _____    ______ ____
ROOT
ATOM      1  C   UNL     1       1.244   6.187  -0.871  0.00  0.00    -0.074 C 
ATOM      2  C   UNL     1       1.887   4.895  -0.358  0.00  0.00    +0.018 C 
ATOM      3  C   UNL     1       0.804   3.826  -0.272  0.00  0.00    -0.027 A 
ATOM      4  C   UNL     1      -0.501   4.184  -0.274  0.00  0.00    -0.021 A 
ATOM      5  S   UNL     1      -1.394   2.658  -0.159  0.00  0.00    -0.080 S 
ATOM      6  C   UNL     1      -0.068   1.575  -0.116  0.00  0.00    +0.080 A 
ATOM      7  C   UNL     1       1.066   2.400  -0.189  0.00  0.00    +0.068 A 
ATOM      8  C   UNL     1       2.393   1.742  -0.176  0.00  0.00    +0.248 C 
ATOM      9  O   UNL     1       3.421   2.390  -0.122  0.00  0.00    -0.270 OA
ATOM     10  N   UNL     1       2.414   0.394  -0.227  0.00  0.00    -0.289 N 
ATOM     11  C   UNL     1       1.242  -0.420  -0.532  0.00  0.00    +0.190 C 
ATOM     12  N   UNL     1       0.008   0.209  -0.027  0.00  0.00    -0.316 N 
ATOM     13  C   UNL     1      -1.041   5.577  -0.350  0.00  0.00    -0.035 C 
ATOM     14  H   UNL     1       3.254  -0.059  -0.050  0.00  0.00    +0.151 HD
ATOM     15  H   UNL     1      -0.715  -0.318   0.349  0.00  0.00    +0.149 HD
ATOM     16  N   UNL     1       0.067   6.512  -0.039  0.00  0.00    +0.383 N 
ATOM     17  H   UNL     1       0.320   6.414   0.951  0.00  0.00    -0.081 HD
ENDROOT
BRANCH  11  18
ATOM     18  C   UNL     1       1.135  -0.588  -2.026  0.00  0.00    -0.006 A 
ATOM     19  C   UNL     1      -0.103  -0.778  -2.613  0.00  0.00    +0.007 A 
ATOM     20  C   UNL     1      -0.204  -0.932  -3.983  0.00  0.00    +0.004 A 
ATOM     21  C   UNL     1       0.931  -0.896  -4.769  0.00  0.00    +0.046 A 
ATOM     22  C   UNL     1       2.174  -0.706  -4.183  0.00  0.00    +0.132 A 
ATOM     23  C   UNL     1       2.273  -0.546  -2.808  0.00  0.00    +0.053 A 
BRANCH  22  24
ATOM     24  O   UNL     1       3.292  -0.671  -4.955  0.00  0.00    -0.422 OA
BRANCH  24  25
ATOM     25  C   UNL     1       4.163  -1.697  -4.855  0.00  0.00    +0.351 C 
ATOM     26  O   UNL     1       3.887  -2.665  -4.172  0.00  0.00    -0.244 OA
BRANCH  25  27
ATOM     27  C   UNL     1       5.440  -1.645  -5.569  0.00  0.00    +0.097 A 
ATOM     28  C   UNL     1       6.465  -2.580  -5.596  0.00  0.00    +0.022 A 
ATOM     29  C   UNL     1       7.565  -2.278  -6.359  0.00  0.00    +0.008 A 
ATOM     30  C   UNL     1       7.603  -1.097  -7.031  0.00  0.00    +0.046 A 
ATOM     31  S   UNL     1       6.087  -0.361  -6.625  0.00  0.00    -0.090 S 
ENDBRANCH  25  27
ENDBRANCH  24  25
ENDBRANCH  22  24
ENDBRANCH  11  18
BRANCH  16  33
ATOM     32  C   UNL     1      -1.428   8.288   0.736  0.00  0.00    -0.017 C 
ATOM     33  C   UNL     1      -0.360   7.905  -0.291  0.00  0.00    -0.082 C 
ENDBRANCH  16  33
TORSDOF 5
