REMARK  Name = ZINC09620207
REMARK  8 active torsions:
REMARK  status: ('A' for Active; 'I' for Inactive)
REMARK    1  A    between atoms: C_1  and  C_2
REMARK    2  A    between atoms: C_2  and  C_4
REMARK    3  A    between atoms: C_2  and  O_16
REMARK    4  A    between atoms: N_6  and  C_7
REMARK    5  A    between atoms: O_16  and  C_17
REMARK    6  A    between atoms: C_20  and  S_26
REMARK    7  A    between atoms: C_22  and  C_23
REMARK    8  A    between atoms: S_26  and  N_29
REMARK                            x       y       z     vdW  Elec       q    Type
REMARK                         _______ _______ _______ _____ _____    ______ ____
ROOT
ATOM      1  C   UNL     1      -2.457   2.893   3.418  0.00  0.00    +0.134 A 
ATOM      2  C   UNL     1      -1.300   3.595   3.113  0.00  0.00    +0.048 A 
ATOM      3  C   UNL     1      -0.560   3.257   1.998  0.00  0.00    +0.032 A 
ATOM      4  C   UNL     1      -0.969   2.223   1.171  0.00  0.00    +0.106 A 
ATOM      5  C   UNL     1      -2.115   1.515   1.460  0.00  0.00    +0.045 A 
ATOM      6  C   UNL     1      -2.871   1.843   2.588  0.00  0.00    +0.080 A 
ENDROOT
BRANCH   6   7
ATOM      7  C   UNL     1      -4.099   1.088   2.903  0.00  0.00    +0.245 C 
ATOM      8  O   UNL     1      -4.755   1.377   3.886  0.00  0.00    -0.270 OA
ATOM      9  N   UNL     1      -4.494   0.079   2.102  0.00  0.00    -0.325 N 
ATOM     10  H   UNL     1      -3.971  -0.151   1.319  0.00  0.00    +0.145 HD
ATOM     11  H   UNL     1      -5.301  -0.417   2.310  0.00  0.00    +0.145 HD
ENDBRANCH   6   7
BRANCH   4  12
ATOM     12  S   UNL     1      -0.016   1.808  -0.251  0.00  0.00    +0.061 S 
ATOM     13  O   UNL     1      -0.309   0.451  -0.554  0.00  0.00    -0.153 OA
ATOM     14  O   UNL     1       1.306   2.264  -0.002  0.00  0.00    -0.153 OA
BRANCH  12  15
ATOM     15  N   UNL     1      -0.599   2.710  -1.512  0.00  0.00    -0.177 NA
ATOM     16  C   UNL     1      -1.670   2.305  -2.433  0.00  0.00    +0.109 C 
ATOM     17  C   UNL     1      -1.855   3.448  -3.453  0.00  0.00    +0.018 C 
ATOM     18  C   UNL     1      -0.489   4.182  -3.399  0.00  0.00    +0.018 C 
ATOM     19  C   UNL     1      -0.124   4.051  -1.900  0.00  0.00    +0.109 C 
ENDBRANCH  12  15
ENDBRANCH   4  12
BRANCH   1  20
ATOM     20  O   UNL     1      -3.183   3.220   4.517  0.00  0.00    -0.479 OA
BRANCH  20  22
ATOM     21  C   UNL     1      -1.662   3.989   6.231  0.00  0.00    +0.062 C 
ATOM     22  C   UNL     1      -2.768   4.377   5.247  0.00  0.00    +0.256 C 
BRANCH  22  23
ATOM     23  C   UNL     1      -3.942   4.938   6.007  0.00  0.00    +0.258 C 
ATOM     24  O   UNL     1      -5.003   4.351   6.003  0.00  0.00    -0.271 OA
ATOM     25  N   UNL     1      -3.812   6.093   6.690  0.00  0.00    -0.282 N 
ATOM     26  H   UNL     1      -2.989   6.601   6.632  0.00  0.00    +0.155 HD
BRANCH  25  27
ATOM     27  C   UNL     1      -4.867   6.558   7.484  0.00  0.00    +0.034 A 
ATOM     28  C   UNL     1      -5.701   5.657   8.132  0.00  0.00    +0.023 A 
ATOM     29  C   UNL     1      -6.739   6.121   8.914  0.00  0.00    +0.006 A 
ATOM     30  C   UNL     1      -6.953   7.483   9.055  0.00  0.00    -0.044 A 
ATOM     31  C   UNL     1      -6.124   8.383   8.411  0.00  0.00    -0.042 A 
ATOM     32  C   UNL     1      -5.078   7.921   7.631  0.00  0.00    +0.027 A 
ATOM     33  C   UNL     1      -6.563   9.797   8.723  0.00  0.00    +0.036 C 
ATOM     34  C   UNL     1      -7.469   9.674   9.967  0.00  0.00    +0.009 C 
ATOM     35  C   UNL     1      -8.006   8.232   9.844  0.00  0.00    +0.036 C 
ENDBRANCH  25  27
ENDBRANCH  22  23
ENDBRANCH  20  22
ENDBRANCH   1  20
TORSDOF 7
