REMARK  Name = ZINC00551660
REMARK  6 active torsions:
REMARK  status: ('A' for Active; 'I' for Inactive)
REMARK    1  A    between atoms: C_1  and  C_2
REMARK    2  A    between atoms: C_8  and  C_24
REMARK    3  A    between atoms: C_9  and  C_12
REMARK    4  A    between atoms: N_14  and  N_15
REMARK    5  A    between atoms: C_16  and  C_17
REMARK    6  A    between atoms: C_22  and  O_23
REMARK                            x       y       z     vdW  Elec       q    Type
REMARK                         _______ _______ _______ _____ _____    ______ ____
ROOT
ATOM      1  C   UNL     1       0.090  -5.575   2.320  0.00  0.00    +0.280 C 
ATOM      2  O   UNL     1       0.096  -5.601   3.537  0.00  0.00    -0.267 OA
ATOM      3  N   UNL     1       0.102  -6.727   1.621  0.00  0.00    -0.202 N 
ATOM      4  H   UNL     1       0.097  -6.705   0.651  0.00  0.00    +0.178 HD
ENDROOT
BRANCH   1  13
ATOM      5  C   UNL     1      -0.018   1.503   0.010  0.00  0.00    +0.044 C 
ATOM      6  C   UNL     1       0.002  -0.004   0.002  0.00  0.00    -0.050 A 
ATOM      7  C   UNL     1       0.006  -0.686  -1.209  0.00  0.00    +0.005 A 
ATOM      8  C   UNL     1       0.024  -2.062  -1.239  0.00  0.00    +0.026 A 
ATOM      9  C   UNL     1       0.040  -2.781  -0.047  0.00  0.00    +0.047 A 
ATOM     10  C   UNL     1       0.037  -2.087   1.179  0.00  0.00    +0.004 A 
ATOM     11  C   UNL     1       0.023  -0.686   1.183  0.00  0.00    +0.013 A 
ATOM     12  C   UNL     1       0.055  -3.063   2.205  0.00  0.00    -0.013 A 
ATOM     13  C   UNL     1       0.069  -4.286   1.613  0.00  0.00    +0.107 A 
ATOM     14  N   UNL     1       0.060  -4.125   0.241  0.00  0.00    -0.350 N 
ATOM     15  H   UNL     1       0.066  -4.842  -0.412  0.00  0.00    +0.166 HD
ATOM     16  C   UNL     1       0.059  -2.793   3.688  0.00  0.00    +0.047 C 
ENDBRANCH   1  13
BRANCH   3  17
ATOM     17  N   UNL     1       0.121  -7.955   2.294  0.00  0.00    -0.187 NA
ATOM     18  C   UNL     1       0.133  -9.065   1.620  0.00  0.00    +0.142 C 
BRANCH  18  19
ATOM     19  C   UNL     1       0.154 -10.357   2.329  0.00  0.00    +0.036 A 
ATOM     20  C   UNL     1       0.172 -11.553   1.608  0.00  0.00    +0.013 A 
ATOM     21  C   UNL     1       0.192 -12.758   2.277  0.00  0.00    +0.001 A 
ATOM     22  C   UNL     1       0.193 -12.789   3.661  0.00  0.00    +0.004 A 
ATOM     23  C   UNL     1       0.175 -11.612   4.386  0.00  0.00    +0.046 A 
ATOM     24  C   UNL     1       0.161 -10.392   3.730  0.00  0.00    +0.125 A 
BRANCH  24  25
ATOM     25  O   UNL     1       0.149  -9.235   4.441  0.00  0.00    -0.506 OA
ATOM     26  H   UNL     1      -0.738  -8.912   4.652  0.00  0.00    +0.292 HD
ENDBRANCH  24  25
ENDBRANCH  18  19
ENDBRANCH   3  17
TORSDOF 4
