REMARK  Name = ZINC14467923
REMARK  6 active torsions:
REMARK  status: ('A' for Active; 'I' for Inactive)
REMARK    1  A    between atoms: C_1  and  C_2
REMARK    2  A    between atoms: C_2  and  C_3
REMARK    3  A    between atoms: C_2  and  C_4
REMARK    4  A    between atoms: N_6  and  C_7
REMARK    5  A    between atoms: C_20  and  C_23
REMARK    6  A    between atoms: C_28  and  O_29
REMARK                            x       y       z     vdW  Elec       q    Type
REMARK                         _______ _______ _______ _____ _____    ______ ____
ROOT
ATOM      1  C   UNL     1      -6.390   1.704  -0.658  0.00  0.00    +0.034 A 
ATOM      2  C   UNL     1      -6.005   0.603   0.095  0.00  0.00    +0.025 A 
ATOM      3  C   UNL     1      -4.690   0.457   0.484  0.00  0.00    +0.025 A 
ATOM      4  C   UNL     1      -3.741   1.407   0.125  0.00  0.00    +0.031 A 
ATOM      5  C   UNL     1      -4.135   2.521  -0.624  0.00  0.00    -0.018 A 
ATOM      6  C   UNL     1      -5.449   2.660  -1.014  0.00  0.00    +0.029 A 
ATOM      7  C   UNL     1      -3.096   3.517  -0.964  0.00  0.00    +0.049 C 
ATOM      8  C   UNL     1      -3.210   4.392  -2.160  0.00  0.00    -0.023 C 
ATOM      9  C   UNL     1      -1.990   4.654  -2.611  0.00  0.00    -0.030 C 
ATOM     10  C   UNL     1      -0.949   3.933  -1.753  0.00  0.00    +0.033 C 
ATOM     11  C   UNL     1      -1.762   2.751  -1.208  0.00  0.00    +0.029 C 
ATOM     12  C   UNL     1      -1.359   2.199   0.147  0.00  0.00    +0.109 C 
ATOM     13  N   UNL     1      -2.404   1.214   0.503  0.00  0.00    -0.336 N 
ATOM     14  H   UNL     1      -2.160   0.422   1.007  0.00  0.00    +0.147 HD
ENDROOT
BRANCH  12  15
ATOM     15  C   UNL     1      -0.015   1.521   0.054  0.00  0.00    +0.017 A 
ATOM     16  C   UNL     1       0.058   0.156  -0.147  0.00  0.00    +0.029 A 
ATOM     17  C   UNL     1       1.290  -0.466  -0.238  0.00  0.00    +0.043 A 
ATOM     18  C   UNL     1       2.452   0.277  -0.127  0.00  0.00    +0.043 A 
ATOM     19  C   UNL     1       2.383   1.643   0.074  0.00  0.00    +0.084 A 
ATOM     20  C   UNL     1       1.147   2.268   0.165  0.00  0.00    +0.140 A 
ATOM     21 CL   UNL     1       3.841   2.575   0.212  0.00  0.00    -0.080 Cl
ATOM     22 CL   UNL     1       1.378  -2.182  -0.491  0.00  0.00    -0.083 Cl
BRANCH  20  23
ATOM     23  O   UNL     1       1.077   3.611   0.362  0.00  0.00    -0.505 OA
ATOM     24  H   UNL     1       1.056   3.871   1.294  0.00  0.00    +0.292 HD
ENDBRANCH  20  23
ENDBRANCH  12  15
BRANCH   1  27
ATOM     25  C   UNL     1      -8.720   1.408  -0.263  0.00  0.00    +0.220 C 
ATOM     26  O   UNL     1      -8.465   0.972   0.840  0.00  0.00    -0.275 OA
ATOM     27  N   UNL     1      -7.726   1.849  -1.059  0.00  0.00    -0.285 N 
ATOM     28  H   UNL     1      -7.934   2.268  -1.909  0.00  0.00    +0.155 HD
BRANCH  25  30
ATOM     29  C   UNL     1     -10.286   0.610  -2.012  0.00  0.00    +0.017 C 
ATOM     30  C   UNL     1     -10.147   1.455  -0.744  0.00  0.00    +0.069 C 
ATOM     31  C   UNL     1     -11.070   0.899   0.343  0.00  0.00    +0.017 C 
ENDBRANCH  25  30
ENDBRANCH   1  27
TORSDOF 4
