REMARK  Name = ZINC64799130
REMARK  5 active torsions:
REMARK  status: ('A' for Active; 'I' for Inactive)
REMARK    1  A    between atoms: C_1  and  O_2
REMARK    2  A    between atoms: O_2  and  C_3
REMARK    3  A    between atoms: C_6  and  S_9
REMARK    4  A    between atoms: S_9  and  C_12
REMARK    5  A    between atoms: C_21  and  C_23
REMARK                            x       y       z     vdW  Elec       q    Type
REMARK                         _______ _______ _______ _____ _____    ______ ____
ROOT
ATOM      1  C   UNL     1      -5.728  -3.122  -1.605  0.00  0.00    +0.122 A 
ATOM      2  C   UNL     1      -5.900  -4.411  -1.986  0.00  0.00    +0.074 A 
ATOM      3  S   UNL     1      -6.415  -4.231  -3.688  0.00  0.00    -0.097 S 
ATOM      4  C   UNL     1      -6.359  -2.466  -3.770  0.00  0.00    +0.021 A 
ATOM      5  C   UNL     1      -5.969  -2.094  -2.512  0.00  0.00    +0.070 A 
ATOM      6  N   UNL     1      -5.825  -0.703  -2.237  0.00  0.00    -0.283 N 
ATOM      7  C   UNL     1      -6.282   0.186  -3.136  0.00  0.00    +0.218 C 
ATOM      8  O   UNL     1      -5.997   1.356  -2.988  0.00  0.00    -0.275 OA
ATOM      9  C   UNL     1      -7.129  -0.201  -4.315  0.00  0.00    +0.109 C 
ATOM     10  C   UNL     1      -6.651  -1.540  -4.904  0.00  0.00    +0.066 C 
ATOM     11  H   UNL     1      -5.404  -0.403  -1.417  0.00  0.00    +0.155 HD
ENDROOT
BRANCH  10  12
ATOM     12  C   UNL     1      -5.405  -1.335  -5.726  0.00  0.00    -0.038 A 
ATOM     13  C   UNL     1      -4.272  -0.801  -5.141  0.00  0.00    +0.007 A 
ATOM     14  C   UNL     1      -3.128  -0.612  -5.894  0.00  0.00    +0.040 A 
ATOM     15  C   UNL     1      -3.118  -0.957  -7.234  0.00  0.00    +0.137 A 
ATOM     16  C   UNL     1      -4.253  -1.492  -7.820  0.00  0.00    +0.053 A 
ATOM     17  C   UNL     1      -5.395  -1.685  -7.063  0.00  0.00    +0.022 A 
ATOM     18 BR   UNL     1      -4.241  -1.964  -9.651  0.00  0.00    -0.047 Br
ATOM     19  F   UNL     1      -2.000  -0.772  -7.971  0.00  0.00    -0.204 F 
ENDBRANCH  10  12
BRANCH   1  20
ATOM     20  S   UNL     1      -5.207  -2.748   0.036  0.00  0.00    +0.027 S 
ATOM     21  O   UNL     1      -4.146  -1.810  -0.078  0.00  0.00    -0.164 OA
ATOM     22  O   UNL     1      -5.055  -3.991   0.708  0.00  0.00    -0.164 OA
BRANCH  20  26
ATOM     23  C   UNL     1      -8.629  -0.588   2.069  0.00  0.00    +0.120 A 
ATOM     24  C   UNL     1      -8.611  -1.975   2.025  0.00  0.00    +0.047 A 
ATOM     25  C   UNL     1      -7.566  -2.631   1.404  0.00  0.00    +0.031 A 
ATOM     26  C   UNL     1      -6.538  -1.908   0.827  0.00  0.00    +0.094 A 
ATOM     27  C   UNL     1      -6.554  -0.526   0.870  0.00  0.00    +0.031 A 
ATOM     28  C   UNL     1      -7.600   0.136   1.484  0.00  0.00    +0.047 A 
BRANCH  23  30
ATOM     29  C   UNL     1     -10.680  -0.749   3.259  0.00  0.00    +0.277 C 
ATOM     30  O   UNL     1      -9.656   0.060   2.679  0.00  0.00    -0.495 OA
ENDBRANCH  23  30
ENDBRANCH  20  26
ENDBRANCH   1  20
TORSDOF 4
