REMARK  Name = ZINC01306528
REMARK  5 active torsions:
REMARK  status: ('A' for Active; 'I' for Inactive)
REMARK    1  A    between atoms: C_4  and  C_7
REMARK    2  A    between atoms: C_16  and  C_23
REMARK    3  A    between atoms: N_17  and  C_18
REMARK    4  A    between atoms: C_18  and  C_19
REMARK    5  A    between atoms: N_21  and  N_22
REMARK                            x       y       z     vdW  Elec       q    Type
REMARK                         _______ _______ _______ _____ _____    ______ ____
ROOT
ATOM      1  C   UNL     1       3.527  -0.595   0.235  0.00  0.00    +0.138 C 
ATOM      2  C   UNL     1       3.640  -0.693  -1.268  0.00  0.00    +0.004 A 
ATOM      3  C   UNL     1       3.892   0.427  -2.027  0.00  0.00    +0.023 A 
ATOM      4  C   UNL     1       3.992   0.320  -3.405  0.00  0.00    +0.018 A 
ATOM      5  C   UNL     1       3.840  -0.910  -4.022  0.00  0.00    +0.017 A 
ATOM      6  C   UNL     1       3.588  -2.039  -3.271  0.00  0.00    +0.029 A 
ATOM      7  C   UNL     1       3.486  -1.940  -1.881  0.00  0.00    +0.071 A 
ATOM      8  N   UNL     1       3.242  -3.051  -1.125  0.00  0.00    -0.232 NA
ATOM      9  C   UNL     1       3.437  -3.044   0.171  0.00  0.00    +0.131 C 
ATOM     10  N   UNL     1       3.894  -1.903   0.801  0.00  0.00    -0.295 N 
ATOM     11 BR   UNL     1       4.338   1.860  -4.447  0.00  0.00    -0.050 Br
ENDROOT
BRANCH   9  12
ATOM     12  C   UNL     1       3.168  -4.262   0.962  0.00  0.00    +0.029 A 
ATOM     13  C   UNL     1       3.228  -4.220   2.357  0.00  0.00    +0.012 A 
ATOM     14  C   UNL     1       2.975  -5.361   3.089  0.00  0.00    +0.001 A 
ATOM     15  C   UNL     1       2.662  -6.546   2.446  0.00  0.00    +0.001 A 
ATOM     16  C   UNL     1       2.600  -6.595   1.065  0.00  0.00    +0.016 A 
ATOM     17  C   UNL     1       2.846  -5.460   0.319  0.00  0.00    +0.028 A 
ATOM     18 BR   UNL     1       2.754  -5.527  -1.569  0.00  0.00    -0.050 Br
ENDBRANCH   9  12
BRANCH   1  22
ATOM     19  C   UNL     1      -0.489   0.376   1.320  0.00  0.00    +0.000 A 
ATOM     20  C   UNL     1       0.481   1.361   1.307  0.00  0.00    +0.000 A 
ATOM     21  C   UNL     1       1.780   1.047   0.956  0.00  0.00    +0.006 A 
ATOM     22  C   UNL     1       2.110  -0.253   0.618  0.00  0.00    -0.023 A 
ATOM     23  C   UNL     1       1.140  -1.238   0.632  0.00  0.00    +0.006 A 
ATOM     24  C   UNL     1      -0.160  -0.923   0.982  0.00  0.00    +0.000 A 
ENDBRANCH   1  22
BRANCH  10  25
ATOM     25  C   UNL     1       4.726  -1.991   2.004  0.00  0.00    +0.204 C 
BRANCH  25  26
ATOM     26  C   UNL     1       3.934  -1.520   3.197  0.00  0.00    +0.244 C 
ATOM     27  O   UNL     1       2.761  -1.240   3.074  0.00  0.00    -0.273 OA
ATOM     28  N   UNL     1       4.531  -1.411   4.401  0.00  0.00    -0.252 N 
ATOM     29  H   UNL     1       5.470  -1.635   4.499  0.00  0.00    +0.169 HD
BRANCH  28  30
ATOM     30  N   UNL     1       3.814  -0.985   5.482  0.00  0.00    -0.254 NA
ATOM     31  H   UNL     1       4.391  -0.954   6.309  0.00  0.00    +0.140 HD
ATOM     32  H   UNL     1       3.389  -0.087   5.303  0.00  0.00    +0.140 HD
ENDBRANCH  28  30
ENDBRANCH  25  26
ENDBRANCH  10  25
TORSDOF 5
