REMARK  Name = ZINC07191837
REMARK  7 active torsions:
REMARK  status: ('A' for Active; 'I' for Inactive)
REMARK    1  A    between atoms: C_1  and  O_2
REMARK    2  A    between atoms: O_2  and  C_3
REMARK    3  A    between atoms: C_6  and  N_9
REMARK    4  A    between atoms: C_10  and  C_12
REMARK    5  A    between atoms: C_12  and  C_13
REMARK    6  A    between atoms: N_24  and  C_25
REMARK    7  A    between atoms: C_25  and  C_26
REMARK                            x       y       z     vdW  Elec       q    Type
REMARK                         _______ _______ _______ _____ _____    ______ ____
ROOT
ATOM      1  C   UNL     1      -6.218  -6.006   0.185  0.00  0.00    +0.169 C 
ATOM      2  C   UNL     1      -7.528  -6.720  -0.033  0.00  0.00    +0.238 C 
ATOM      3  O   UNL     1      -7.964  -6.841  -1.158  0.00  0.00    -0.273 OA
ATOM      4  N   UNL     1      -8.219  -7.224   1.007  0.00  0.00    -0.282 N 
ATOM      5  C   UNL     1      -7.712  -7.141   2.309  0.00  0.00    +0.055 A 
ATOM      6  C   UNL     1      -8.526  -7.386   3.403  0.00  0.00    +0.025 A 
ATOM      7  C   UNL     1      -8.004  -7.304   4.682  0.00  0.00    +0.002 A 
ATOM      8  C   UNL     1      -6.674  -6.979   4.874  0.00  0.00    +0.002 A 
ATOM      9  C   UNL     1      -5.854  -6.731   3.788  0.00  0.00    +0.025 A 
ATOM     10  C   UNL     1      -6.370  -6.809   2.506  0.00  0.00    +0.052 A 
ATOM     11  N   UNL     1      -5.566  -6.553   1.385  0.00  0.00    -0.308 N 
ATOM     12  H   UNL     1      -9.077  -7.648   0.852  0.00  0.00    +0.155 HD
ENDROOT
BRANCH   1  13
ATOM     13  C   UNL     1      -6.475  -4.511   0.378  0.00  0.00    +0.128 C 
BRANCH  13  15
ATOM     14  N   UNL     1      -7.426  -2.643  -0.936  0.00  0.00    -0.285 N 
ATOM     15  C   UNL     1      -6.999  -3.921  -0.906  0.00  0.00    +0.219 C 
ATOM     16  O   UNL     1      -7.037  -4.597  -1.912  0.00  0.00    -0.275 OA
ATOM     17  H   UNL     1      -7.324  -2.079  -0.153  0.00  0.00    +0.155 HD
BRANCH  14  21
ATOM     18  C   UNL     1      -9.181  -1.111  -4.394  0.00  0.00    +0.120 A 
ATOM     19  C   UNL     1      -8.128  -2.010  -4.490  0.00  0.00    +0.047 A 
ATOM     20  C   UNL     1      -7.546  -2.517  -3.345  0.00  0.00    +0.027 A 
ATOM     21  C   UNL     1      -8.015  -2.128  -2.098  0.00  0.00    +0.034 A 
ATOM     22  C   UNL     1      -9.069  -1.229  -2.002  0.00  0.00    +0.027 A 
ATOM     23  C   UNL     1      -9.646  -0.718  -3.148  0.00  0.00    +0.047 A 
BRANCH  18  25
ATOM     24  C   UNL     1      -9.224  -1.060  -6.771  0.00  0.00    +0.277 C 
ATOM     25  O   UNL     1      -9.753  -0.612  -5.522  0.00  0.00    -0.495 OA
ENDBRANCH  18  25
ENDBRANCH  14  21
ENDBRANCH  13  15
ENDBRANCH   1  13
BRANCH  11  26
ATOM     26  C   UNL     1      -4.126  -6.821   1.407  0.00  0.00    +0.201 C 
BRANCH  26  27
ATOM     27  C   UNL     1      -3.390  -5.577   1.833  0.00  0.00    +0.233 C 
ATOM     28  O   UNL     1      -4.010  -4.590   2.167  0.00  0.00    -0.274 OA
ATOM     29  N   UNL     1      -2.042  -5.561   1.841  0.00  0.00    -0.300 N 
ATOM     30  C   UNL     1      -1.170  -6.680   1.456  0.00  0.00    +0.108 C 
ATOM     31  C   UNL     1       0.288  -6.212   1.649  0.00  0.00    +0.020 C 
ATOM     32  C   UNL     1       0.148  -5.052   2.670  0.00  0.00    +0.020 C 
ATOM     33  C   UNL     1      -1.199  -4.418   2.233  0.00  0.00    +0.108 C 
ENDBRANCH  26  27
ENDBRANCH  11  26
TORSDOF 6
