REMARK  Name = ZINC25781881
REMARK  7 active torsions:
REMARK  status: ('A' for Active; 'I' for Inactive)
REMARK    1  A    between atoms: C_1  and  C_2
REMARK    2  A    between atoms: C_2  and  C_4
REMARK    3  A    between atoms: C_2  and  C_27
REMARK    4  A    between atoms: N_5  and  N_6
REMARK    5  A    between atoms: C_7  and  C_9
REMARK    6  A    between atoms: C_10  and  C_20
REMARK    7  A    between atoms: C_20  and  N_21
REMARK                            x       y       z     vdW  Elec       q    Type
REMARK                         _______ _______ _______ _____ _____    ______ ____
ROOT
ATOM      1  C   UNL     1       5.975   4.309   5.289  0.00  0.00    +0.154 A 
ATOM      2  C   UNL     1       7.000   4.219   6.194  0.00  0.00    +0.079 A 
ATOM      3  N   UNL     1       6.739   5.114   7.148  0.00  0.00    -0.135 NA
ATOM      4  N   UNL     1       5.641   5.723   6.876  0.00  0.00    -0.058 NA
ATOM      5  N   UNL     1       5.141   5.288   5.772  0.00  0.00    -0.183 N 
ATOM      6  C   UNL     1       3.958   5.731   5.173  0.00  0.00    +0.241 A 
ATOM      7  C   UNL     1       3.131   6.851   5.632  0.00  0.00    +0.206 A 
ATOM      8  N   UNL     1       2.112   6.965   4.826  0.00  0.00    -0.032 NA
ATOM      9  O   UNL     1       2.225   5.957   3.837  0.00  0.00    -0.239 OA
ATOM     10  N   UNL     1       3.405   5.222   4.108  0.00  0.00    -0.027 NA
ATOM     11  N   UNL     1       3.389   7.654   6.737  0.00  0.00    -0.337 N 
ATOM     12  H   UNL     1       2.701   8.472   6.996  0.00  0.00    +0.144 HD
ATOM     13  H   UNL     1       4.282   7.471   7.354  0.00  0.00    +0.144 HD
ENDROOT
BRANCH   1  15
ATOM     14  N   UNL     1       6.128   4.067   2.864  0.00  0.00    -0.202 N 
ATOM     15  C   UNL     1       5.806   3.526   4.055  0.00  0.00    +0.284 C 
ATOM     16  O   UNL     1       5.375   2.389   4.111  0.00  0.00    -0.267 OA
ATOM     17  H   UNL     1       6.450   5.117   2.806  0.00  0.00    +0.178 HD
BRANCH  14  19
ATOM     18  C   UNL     1       6.357   3.807   0.567  0.00  0.00    +0.111 C 
ATOM     19  N   UNL     1       6.051   3.293   1.699  0.00  0.00    -0.192 NA
BRANCH  18  21
ATOM     20  C   UNL     1       7.656   2.901  -1.341  0.00  0.00    +0.018 C 
ATOM     21  C   UNL     1       6.275   2.974  -0.686  0.00  0.00    +0.059 C 
BRANCH  21  22
ATOM     22  C   UNL     1       5.297   3.603  -1.644  0.00  0.00    -0.039 A 
ATOM     23  C   UNL     1       5.513   4.887  -2.109  0.00  0.00    +0.004 A 
ATOM     24  C   UNL     1       4.616   5.464  -2.988  0.00  0.00    +0.000 A 
ATOM     25  C   UNL     1       3.502   4.757  -3.402  0.00  0.00    +0.000 A 
ATOM     26  C   UNL     1       3.285   3.474  -2.937  0.00  0.00    +0.000 A 
ATOM     27  C   UNL     1       4.183   2.897  -2.058  0.00  0.00    +0.004 A 
ENDBRANCH  21  22
ENDBRANCH  18  21
ENDBRANCH  14  19
ENDBRANCH   1  15
BRANCH   2  28
ATOM     28  C   UNL     1       8.187   3.293   6.125  0.00  0.00    -0.018 C 
BRANCH  28  29
ATOM     29  N   UNL     1       9.280   3.952   5.397  0.00  0.00    +0.383 N 
ATOM     30  C   UNL     1       8.918   4.171   3.991  0.00  0.00    -0.078 C 
ATOM     31  C   UNL     1      10.016   4.985   3.301  0.00  0.00    -0.019 C 
ATOM     32  C   UNL     1      11.342   4.226   3.395  0.00  0.00    -0.004 C 
ATOM     33  C   UNL     1      11.671   3.969   4.868  0.00  0.00    -0.019 C 
ATOM     34  C   UNL     1      10.526   3.184   5.511  0.00  0.00    -0.078 C 
ATOM     35  H   UNL     1       9.449   4.937   5.857  0.00  0.00    -0.081 HD
ENDBRANCH  28  29
ENDBRANCH   2  28
TORSDOF 6
