REMARK  Name = ZINC01913180
REMARK  10 active torsions:
REMARK  status: ('A' for Active; 'I' for Inactive)
REMARK    1  A    between atoms: C_1  and  C_2
REMARK    2  A    between atoms: C_2  and  C_3
REMARK    3  A    between atoms: C_6  and  O_9
REMARK    4  A    between atoms: O_9  and  C_10
REMARK    5  A    between atoms: C_16  and  O_34
REMARK    6  A    between atoms: C_17  and  C_25
REMARK    7  A    between atoms: C_20  and  C_21
REMARK    8  A    between atoms: C_25  and  N_62
REMARK    9  A    between atoms: C_30  and  C_32
REMARK   10  A    between atoms: C_32  and  C_33
REMARK                            x       y       z     vdW  Elec       q    Type
REMARK                         _______ _______ _______ _____ _____    ______ ____
ROOT
ATOM      1  C   UNL     1      -2.299   4.166   4.902  0.00  0.00    +0.222 A 
ATOM      2  C   UNL     1      -1.254   4.183   5.869  0.00  0.00    +0.235 A 
ATOM      3  O   UNL     1      -0.690   3.157   6.213  0.00  0.00    -0.283 OA
ATOM      4  C   UNL     1      -0.878   5.491   6.432  0.00  0.00    +0.068 A 
ATOM      5  C   UNL     1       0.139   5.609   7.381  0.00  0.00    +0.019 A 
ATOM      6  C   UNL     1       0.455   6.838   7.886  0.00  0.00    +0.046 A 
ATOM      7  C   UNL     1      -0.231   7.973   7.457  0.00  0.00    +0.122 A 
ATOM      8  C   UNL     1      -1.241   7.873   6.516  0.00  0.00    +0.020 A 
ATOM      9  C   UNL     1      -1.575   6.631   5.994  0.00  0.00    +0.144 A 
ATOM     10  O   UNL     1      -2.555   6.505   5.077  0.00  0.00    -0.447 OA
ATOM     11  C   UNL     1      -2.901   5.321   4.554  0.00  0.00    +0.254 A 
ENDROOT
BRANCH  11  12
ATOM     12  C   UNL     1      -4.009   5.278   3.533  0.00  0.00    +0.454 C 
ATOM     13  F   UNL     1      -5.234   5.097   4.183  0.00  0.00    -0.163 F 
ATOM     14  F   UNL     1      -4.033   6.482   2.821  0.00  0.00    -0.163 F 
ATOM     15  F   UNL     1      -3.788   4.217   2.649  0.00  0.00    -0.163 F 
ENDBRANCH  11  12
BRANCH   7  16
ATOM     16  O   UNL     1       0.095   9.188   7.968  0.00  0.00    -0.506 OA
ATOM     17  H   UNL     1      -0.402   9.428   8.762  0.00  0.00    +0.292 HD
ENDBRANCH   7  16
BRANCH   1  18
ATOM     18  O   UNL     1      -2.692   2.991   4.338  0.00  0.00    -0.448 OA
BRANCH  18  22
ATOM     19  C   UNL     1      -0.815   1.786   0.868  0.00  0.00    -0.047 A 
ATOM     20  C   UNL     1      -0.444   2.970   1.478  0.00  0.00    +0.007 A 
ATOM     21  C   UNL     1      -1.074   3.378   2.637  0.00  0.00    +0.046 A 
ATOM     22  C   UNL     1      -2.074   2.594   3.196  0.00  0.00    +0.129 A 
ATOM     23  C   UNL     1      -2.441   1.403   2.584  0.00  0.00    +0.046 A 
ATOM     24  C   UNL     1      -1.811   1.002   1.422  0.00  0.00    +0.007 A 
BRANCH  19  26
ATOM     25  C   UNL     1      -0.886   1.901  -1.608  0.00  0.00    +0.009 C 
ATOM     26  C   UNL     1      -0.129   1.345  -0.399  0.00  0.00    +0.032 C 
ENDBRANCH  19  26
ENDBRANCH  18  22
ENDBRANCH   1  18
BRANCH   8  27
ATOM     27  C   UNL     1      -1.976   9.107   6.061  0.00  0.00    -0.035 C 
BRANCH  27  33
ATOM     28  C   UNL     1      -4.170   8.308   6.699  0.00  0.00    -0.078 C 
ATOM     29  C   UNL     1      -5.301   8.485   7.715  0.00  0.00    -0.019 C 
ATOM     30  C   UNL     1      -5.903   9.884   7.562  0.00  0.00    -0.003 C 
ATOM     31  C   UNL     1      -4.802  10.930   7.756  0.00  0.00    -0.015 C 
ATOM     32  C   UNL     1      -3.685  10.682   6.739  0.00  0.00    -0.068 C 
ATOM     33  N   UNL     1      -3.131   9.328   6.955  0.00  0.00    +0.384 N 
ATOM     34  H   UNL     1      -2.818   9.248   7.930  0.00  0.00    -0.081 HD
BRANCH  32  35
ATOM     35  C   UNL     1      -2.573  11.712   6.942  0.00  0.00    -0.019 C 
ATOM     36  C   UNL     1      -3.128  13.117   6.699  0.00  0.00    +0.002 C 
ENDBRANCH  32  35
ENDBRANCH  27  33
ENDBRANCH   8  27
TORSDOF 8
