REMARK  Name = ZINC20704032
REMARK  4 active torsions:
REMARK  status: ('A' for Active; 'I' for Inactive)
REMARK    1  A    between atoms: C_4  and  N_7
REMARK    2  A    between atoms: N_7  and  C_8
REMARK    3  A    between atoms: C_21  and  C_24
REMARK    4  A    between atoms: C_28  and  N_30
REMARK                            x       y       z     vdW  Elec       q    Type
REMARK                         _______ _______ _______ _____ _____    ______ ____
ROOT
ATOM      1  C   UNL     1       6.305   0.447  -0.553  0.00  0.00    +0.032 A 
ATOM      2  C   UNL     1       6.138   0.888   0.754  0.00  0.00    +0.025 A 
ATOM      3  C   UNL     1       5.707   2.175   0.999  0.00  0.00    +0.025 A 
ATOM      4  C   UNL     1       5.435   3.039  -0.055  0.00  0.00    +0.031 A 
ATOM      5  C   UNL     1       5.590   2.586  -1.370  0.00  0.00    -0.018 A 
ATOM      6  C   UNL     1       6.028   1.302  -1.611  0.00  0.00    +0.029 A 
ATOM      7  C   UNL     1       5.266   3.531  -2.459  0.00  0.00    +0.049 C 
ATOM      8  C   UNL     1       5.882   3.421  -3.807  0.00  0.00    -0.023 C 
ATOM      9  C   UNL     1       5.982   4.637  -4.328  0.00  0.00    -0.030 C 
ATOM     10  C   UNL     1       5.460   5.677  -3.335  0.00  0.00    +0.033 C 
ATOM     11  C   UNL     1       5.677   4.960  -1.995  0.00  0.00    +0.029 C 
ATOM     12  C   UNL     1       4.725   5.308  -0.864  0.00  0.00    +0.105 C 
ATOM     13  N   UNL     1       5.034   4.354   0.224  0.00  0.00    -0.336 N 
ATOM     14  H   UNL     1       4.950   4.672   1.274  0.00  0.00    +0.147 HD
ENDROOT
BRANCH  12  15
ATOM     15  C   UNL     1       3.297   5.139  -1.315  0.00  0.00    -0.025 A 
ATOM     16  C   UNL     1       2.630   6.196  -1.907  0.00  0.00    +0.007 A 
ATOM     17  C   UNL     1       1.321   6.042  -2.320  0.00  0.00    +0.022 A 
ATOM     18  C   UNL     1       0.675   4.832  -2.136  0.00  0.00    +0.071 A 
ATOM     19  C   UNL     1       1.344   3.774  -1.548  0.00  0.00    +0.145 A 
ATOM     20  C   UNL     1       2.655   3.929  -1.135  0.00  0.00    +0.039 A 
ATOM     21 CL   UNL     1      -0.972   4.640  -2.649  0.00  0.00    -0.081 Cl
BRANCH  19  22
ATOM     22  N   UNL     1       0.656   2.478  -1.356  0.00  0.00    +0.058 N 
ATOM     23  O   UNL     1       1.245   1.547  -0.835  0.00  0.00    -0.126 OA
ATOM     24  O   UNL     1      -0.498   2.341  -1.720  0.00  0.00    -0.126 OA
ENDBRANCH  19  22
ENDBRANCH  12  15
BRANCH   1  25
ATOM     25  N   UNL     1       6.752  -0.857  -0.802  0.00  0.00    -0.314 N 
ATOM     26  H   UNL     1       6.444  -1.377  -1.722  0.00  0.00    +0.152 HD
BRANCH  25  30
ATOM     27  C   UNL     1       9.243  -2.763   1.935  0.00  0.00    +0.000 A 
ATOM     28  C   UNL     1       8.367  -3.507   1.166  0.00  0.00    +0.002 A 
ATOM     29  C   UNL     1       7.539  -2.878   0.257  0.00  0.00    +0.023 A 
ATOM     30  C   UNL     1       7.587  -1.496   0.116  0.00  0.00    +0.031 A 
ATOM     31  C   UNL     1       8.473  -0.753   0.886  0.00  0.00    +0.023 A 
ATOM     32  C   UNL     1       9.294  -1.388   1.798  0.00  0.00    +0.002 A 
ENDBRANCH  25  30
ENDBRANCH   1  25
TORSDOF 4
