REMARK  Name = ZINC36587640
REMARK  17 active torsions:
REMARK  status: ('A' for Active; 'I' for Inactive)
REMARK    1  A    between atoms: C_1  and  C_2
REMARK    2  A    between atoms: C_2  and  C_3
REMARK    3  A    between atoms: C_2  and  C_4
REMARK    4  A    between atoms: C_2  and  N_5
REMARK    5  A    between atoms: C_6  and  C_8
REMARK    6  A    between atoms: C_8  and  C_10
REMARK    7  A    between atoms: C_8  and  N_19
REMARK    8  A    between atoms: C_11  and  O_18
REMARK    9  A    between atoms: C_13  and  O_17
REMARK   10  A    between atoms: C_15  and  O_16
REMARK   11  A    between atoms: N_19  and  C_25
REMARK   12  A    between atoms: C_20  and  C_22
REMARK   13  A    between atoms: C_22  and  C_23
REMARK   14  A    between atoms: C_23  and  S_24
REMARK   15  A    between atoms: C_25  and  C_26
REMARK   16  A    between atoms: C_25  and  C_27
REMARK   17  A    between atoms: C_25  and  C_28
REMARK                            x       y       z     vdW  Elec       q    Type
REMARK                         _______ _______ _______ _____ _____    ______ ____
ROOT
ATOM      1  C   UNL     1       2.099  -0.212  -2.757  0.00  0.00    +0.200 C 
ENDROOT
BRANCH   1   2
ATOM      2  C   UNL     1       1.980  -1.640  -2.288  0.00  0.00    +0.065 A 
ATOM      3  C   UNL     1       2.614  -2.042  -1.122  0.00  0.00    +0.129 A 
ATOM      4  C   UNL     1       2.505  -3.355  -0.691  0.00  0.00    +0.091 A 
ATOM      5  C   UNL     1       1.762  -4.267  -1.426  0.00  0.00    +0.124 A 
ATOM      6  C   UNL     1       1.127  -3.865  -2.591  0.00  0.00    +0.091 A 
ATOM      7  C   UNL     1       1.233  -2.550  -3.020  0.00  0.00    +0.129 A 
BRANCH   7   8
ATOM      8  O   UNL     1       0.607  -2.155  -4.160  0.00  0.00    -0.506 OA
ATOM      9  H   UNL     1       1.144  -2.254  -4.958  0.00  0.00    +0.292 HD
ENDBRANCH   7   8
BRANCH   5  10
ATOM     10  O   UNL     1       1.655  -5.554  -1.004  0.00  0.00    -0.507 OA
ATOM     11  H   UNL     1       0.904  -5.715  -0.416  0.00  0.00    +0.292 HD
ENDBRANCH   5  10
BRANCH   3  12
ATOM     12  O   UNL     1       3.342  -1.148  -0.402  0.00  0.00    -0.506 OA
ATOM     13  H   UNL     1       2.820  -0.630   0.226  0.00  0.00    +0.292 HD
ENDBRANCH   3  12
ENDBRANCH   1   2
BRANCH   1  15
ATOM     14  N   UNL     1       0.296   0.905  -1.484  0.00  0.00    -0.309 N 
ATOM     15  C   UNL     1       1.617   0.715  -1.671  0.00  0.00    +0.239 C 
ATOM     16  O   UNL     1       2.418   1.289  -0.964  0.00  0.00    -0.273 OA
ATOM     17  H   UNL     1      -0.345   0.446  -2.049  0.00  0.00    +0.149 HD
BRANCH  14  19
ATOM     18  C   UNL     1       0.372   3.214  -0.680  0.00  0.00    +0.031 C 
ATOM     19  C   UNL     1      -0.172   1.806  -0.428  0.00  0.00    +0.026 C 
ATOM     20  C   UNL     1       0.324   1.303   0.929  0.00  0.00    +0.031 C 
ATOM     21  C   UNL     1      -1.702   1.843  -0.430  0.00  0.00    +0.031 C 
ENDBRANCH  14  19
ENDBRANCH   1  15
BRANCH   1  22
ATOM     22  N   UNL     1       3.499   0.085  -3.067  0.00  0.00    -0.281 N 
ATOM     23  C   UNL     1       4.440  -0.868  -2.915  0.00  0.00    +0.218 C 
ATOM     24  O   UNL     1       4.115  -2.003  -2.638  0.00  0.00    -0.276 OA
BRANCH  22  25
ATOM     25  C   UNL     1       3.877   1.418  -3.543  0.00  0.00    +0.030 C 
ATOM     26  C   UNL     1       2.676   2.359  -3.431  0.00  0.00    +0.031 C 
ATOM     27  C   UNL     1       5.028   1.956  -2.690  0.00  0.00    +0.031 C 
ATOM     28  C   UNL     1       4.322   1.331  -5.004  0.00  0.00    +0.031 C 
ENDBRANCH  22  25
BRANCH  23  29
ATOM     29  C   UNL     1       5.897  -0.523  -3.090  0.00  0.00    +0.106 C 
BRANCH  29  30
ATOM     30  C   UNL     1       6.727  -1.809  -3.106  0.00  0.00    +0.075 C 
BRANCH  30  31
ATOM     31  S   UNL     1       8.480  -1.394  -3.316  0.00  0.00    -0.178 S 
ATOM     32  H   UNL     1       9.099  -2.588  -3.316  0.00  0.00    +0.102 HD
ENDBRANCH  30  31
ENDBRANCH  29  30
ENDBRANCH  23  29
ENDBRANCH   1  22
TORSDOF 11
