REMARK  Name = ZINC15225992
REMARK  5 active torsions:
REMARK  status: ('A' for Active; 'I' for Inactive)
REMARK    1  A    between atoms: C_6  and  C_11
REMARK    2  A    between atoms: C_11  and  C_13
REMARK    3  A    between atoms: C_15  and  C_27
REMARK    4  A    between atoms: C_21  and  C_22
REMARK    5  A    between atoms: C_21  and  O_26
REMARK                            x       y       z     vdW  Elec       q    Type
REMARK                         _______ _______ _______ _____ _____    ______ ____
ROOT
ATOM      1  C   UNL     1       1.059  -0.210  -0.812  0.00  0.00    +0.144 C 
ATOM      2  C   UNL     1       2.380   0.075  -0.088  0.00  0.00    +0.120 C 
ATOM      3  N   UNL     1       2.560   1.522   0.030  0.00  0.00    -0.292 N 
ATOM      4  C   UNL     1       1.509   2.353   0.102  0.00  0.00    +0.302 C 
ATOM      5  O   UNL     1       1.715   3.547   0.210  0.00  0.00    -0.253 OA
ATOM      6  N   UNL     1       0.241   1.919   0.059  0.00  0.00    -0.264 N 
ATOM      7  C   UNL     1      -0.073   0.494  -0.057  0.00  0.00    +0.243 C 
ATOM      8  H   UNL     1       3.458   1.889   0.058  0.00  0.00    +0.151 HD
ATOM      9  H   UNL     1      -0.483   2.563   0.103  0.00  0.00    +0.153 HD
ENDROOT
BRANCH   2  10
ATOM     10  C   UNL     1       2.344  -0.544   1.286  0.00  0.00    -0.024 A 
ATOM     11  C   UNL     1       2.027   0.233   2.385  0.00  0.00    +0.005 A 
ATOM     12  C   UNL     1       1.989  -0.334   3.645  0.00  0.00    +0.003 A 
ATOM     13  C   UNL     1       2.278  -1.676   3.809  0.00  0.00    +0.038 A 
ATOM     14  C   UNL     1       2.600  -2.453   2.710  0.00  0.00    +0.124 A 
ATOM     15  C   UNL     1       2.633  -1.885   1.447  0.00  0.00    +0.043 A 
ATOM     16  F   UNL     1       2.884  -3.764   2.869  0.00  0.00    -0.205 F 
ENDBRANCH   2  10
BRANCH   7  17
ATOM     17  C   UNL     1      -1.385   0.321  -0.825  0.00  0.00    +0.436 C 
ATOM     18  F   UNL     1      -1.310   1.013  -2.039  0.00  0.00    -0.166 F 
ATOM     19  F   UNL     1      -1.602  -1.038  -1.076  0.00  0.00    -0.166 F 
ATOM     20  F   UNL     1      -2.442   0.829  -0.063  0.00  0.00    -0.166 F 
ENDBRANCH   7  17
BRANCH   1  21
ATOM     21  C   UNL     1       1.132   0.318  -2.222  0.00  0.00    +0.173 C 
ATOM     22  O   UNL     1       0.990   1.503  -2.434  0.00  0.00    -0.292 OA
BRANCH  21  28
ATOM     23  C   UNL     1       2.017  -2.808  -7.779  0.00  0.00    +0.001 A 
ATOM     24  C   UNL     1       1.733  -1.471  -8.051  0.00  0.00    +0.001 A 
ATOM     25  C   UNL     1       1.502  -0.586  -7.044  0.00  0.00    +0.008 A 
ATOM     26  C   UNL     1       1.550  -1.023  -5.708  0.00  0.00    -0.017 A 
ATOM     27  C   UNL     1       1.318  -0.136  -4.646  0.00  0.00    +0.020 A 
ATOM     28  C   UNL     1       1.374  -0.605  -3.341  0.00  0.00    +0.019 A 
ATOM     29  C   UNL     1       1.669  -1.958  -3.081  0.00  0.00    +0.012 A 
ATOM     30  C   UNL     1       1.890  -2.829  -4.097  0.00  0.00    +0.009 A 
ATOM     31  C   UNL     1       1.839  -2.384  -5.431  0.00  0.00    -0.018 A 
ATOM     32  C   UNL     1       2.071  -3.267  -6.498  0.00  0.00    +0.008 A 
ENDBRANCH  21  28
ENDBRANCH   1  21
BRANCH   7  33
ATOM     33  O   UNL     1      -0.203  -0.075   1.247  0.00  0.00    -0.364 OA
ATOM     34  H   UNL     1      -0.899   0.327   1.784  0.00  0.00    +0.212 HD
ENDBRANCH   7  33
TORSDOF 5
