REMARK  Name = ZINC09318260
REMARK  2 active torsions:
REMARK  status: ('A' for Active; 'I' for Inactive)
REMARK    1  A    between atoms: C_1  and  C_2
REMARK    2  A    between atoms: N_20  and  C_23
REMARK                            x       y       z     vdW  Elec       q    Type
REMARK                         _______ _______ _______ _____ _____    ______ ____
ROOT
ATOM      1  C   UNL     1      -4.295   4.670   0.032  0.00  0.00    +0.044 C 
ATOM      2  C   UNL     1      -3.200   3.635   0.032  0.00  0.00    -0.050 A 
ATOM      3  C   UNL     1      -3.519   2.289   0.040  0.00  0.00    +0.005 A 
ATOM      4  C   UNL     1      -2.517   1.341   0.034  0.00  0.00    +0.024 A 
ATOM      5  C   UNL     1      -1.180   1.729   0.017  0.00  0.00    +0.036 A 
ATOM      6  C   UNL     1      -0.869   3.087   0.027  0.00  0.00    -0.027 A 
ATOM      7  C   UNL     1      -1.875   4.028   0.023  0.00  0.00    +0.008 A 
ATOM      8  C   UNL     1       0.629   3.166   0.020  0.00  0.00    +0.053 C 
ATOM      9  C   UNL     1       1.216   4.018  -1.018  0.00  0.00    +0.089 C 
ATOM     10  C   UNL     1       0.821   5.463  -0.505  0.00  0.00    +0.074 C 
ATOM     11  C   UNL     1       1.162   5.304   0.972  0.00  0.00    -0.054 C 
ATOM     12  C   UNL     1       0.228   3.590   2.388  0.00  0.00    -0.076 C 
ATOM     13  C   UNL     1      -0.088   4.961   3.018  0.00  0.00    -0.020 C 
ATOM     14  C   UNL     1       0.030   5.926   1.815  0.00  0.00    -0.016 C 
ATOM     15  C   UNL     1       1.765   6.197  -1.421  0.00  0.00    +0.228 C 
ATOM     16  O   UNL     1       2.398   7.201  -1.174  0.00  0.00    -0.275 OA
ATOM     17  N   UNL     1       1.755   5.490  -2.592  0.00  0.00    -0.209 N 
ATOM     18  C   UNL     1       1.188   4.248  -2.446  0.00  0.00    +0.229 C 
ATOM     19  O   UNL     1       0.763   3.516  -3.314  0.00  0.00    -0.275 OA
ATOM     20  C   UNL     1       1.095   1.732   0.001  0.00  0.00    +0.212 C 
ATOM     21  O   UNL     1       2.245   1.345  -0.017  0.00  0.00    -0.277 OA
ATOM     22  N   UNL     1      -0.011   0.966   0.007  0.00  0.00    -0.286 N 
ATOM     23  H   UNL     1       0.002  -0.004   0.002  0.00  0.00    +0.155 HD
ATOM     24  N   UNL     1       1.138   3.859   1.242  0.00  0.00    +0.395 N 
ATOM     25  H   UNL     1       2.083   3.526   1.464  0.00  0.00    -0.079 HD
ENDROOT
BRANCH  17  26
ATOM     26  C   UNL     1       2.254   5.984  -3.803  0.00  0.00    +0.052 A 
ATOM     27  C   UNL     1       3.573   5.784  -4.144  0.00  0.00    +0.024 A 
ATOM     28  C   UNL     1       4.080   6.271  -5.345  0.00  0.00    +0.002 A 
ATOM     29  C   UNL     1       3.287   6.956  -6.216  0.00  0.00    +0.008 A 
ATOM     30  C   UNL     1       1.936   7.181  -5.905  0.00  0.00    -0.016 A 
ATOM     31  C   UNL     1       1.408   6.685  -4.688  0.00  0.00    +0.004 A 
ATOM     32  C   UNL     1       0.059   6.916  -4.376  0.00  0.00    +0.010 A 
ATOM     33  C   UNL     1      -0.727   7.602  -5.251  0.00  0.00    +0.001 A 
ATOM     34  C   UNL     1      -0.210   8.085  -6.452  0.00  0.00    +0.001 A 
ATOM     35  C   UNL     1       1.094   7.885  -6.784  0.00  0.00    +0.008 A 
ENDBRANCH  17  26
TORSDOF 1
