REMARK  Name = ZINC12502284
REMARK  10 active torsions:
REMARK  status: ('A' for Active; 'I' for Inactive)
REMARK    1  A    between atoms: C_1  and  C_2
REMARK    2  A    between atoms: C_5  and  O_9
REMARK    3  A    between atoms: O_9  and  C_10
REMARK    4  A    between atoms: C_10  and  C_11
REMARK    5  A    between atoms: N_13  and  N_14
REMARK    6  A    between atoms: N_14  and  C_15
REMARK    7  A    between atoms: C_15  and  N_17
REMARK    8  A    between atoms: C_18  and  C_20
REMARK    9  A    between atoms: C_22  and  N_29
REMARK   10  A    between atoms: C_24  and  N_26
REMARK                            x       y       z     vdW  Elec       q    Type
REMARK                         _______ _______ _______ _____ _____    ______ ____
ROOT
ATOM      1  C   UNL     1       0.108  -9.285  -3.083  0.00  0.00    +0.153 C 
ATOM      2  S   UNL     1       0.131 -10.983  -2.869  0.00  0.00    -0.017 S 
ENDROOT
BRANCH   1   3
ATOM      3  N   UNL     1       0.095  -8.763  -4.325  0.00  0.00    -0.263 N 
ATOM      4  C   UNL     1       0.100  -9.577  -5.399  0.00  0.00    +0.250 C 
ATOM      5  O   UNL     1       0.116 -10.783  -5.247  0.00  0.00    -0.270 OA
ATOM      6  H   UNL     1       0.082  -7.800  -4.447  0.00  0.00    +0.157 HD
BRANCH   4   7
ATOM      7  C   UNL     1       0.085  -9.005  -6.761  0.00  0.00    +0.041 A 
ATOM      8  C   UNL     1       0.072  -7.620  -6.939  0.00  0.00    +0.046 A 
ATOM      9  C   UNL     1       0.059  -7.092  -8.214  0.00  0.00    +0.129 A 
ATOM     10  C   UNL     1       0.059  -7.931  -9.314  0.00  0.00    +0.065 A 
ATOM     11  C   UNL     1       0.072  -9.304  -9.144  0.00  0.00    +0.129 A 
ATOM     12  C   UNL     1       0.090  -9.845  -7.876  0.00  0.00    +0.046 A 
BRANCH  11  13
ATOM     13  N   UNL     1       0.071 -10.194 -10.327  0.00  0.00    +0.057 N 
ATOM     14  O   UNL     1       0.060  -9.721 -11.440  0.00  0.00    -0.126 OA
ATOM     15  O   UNL     1       0.083 -11.394 -10.180  0.00  0.00    -0.126 OA
ENDBRANCH  11  13
BRANCH   9  16
ATOM     16  N   UNL     1       0.045  -5.624  -8.405  0.00  0.00    +0.057 N 
ATOM     17  O   UNL     1       0.045  -4.889  -7.444  0.00  0.00    -0.126 OA
ATOM     18  O   UNL     1       0.034  -5.160  -9.521  0.00  0.00    -0.126 OA
ENDBRANCH   9  16
ENDBRANCH   4   7
ENDBRANCH   1   3
BRANCH   1  19
ATOM     19  N   UNL     1       0.103  -8.470  -2.009  0.00  0.00    -0.245 N 
ATOM     20  H   UNL     1       0.112  -8.847  -1.115  0.00  0.00    +0.172 HD
BRANCH  19  23
ATOM     21  C   UNL     1       0.079  -6.266  -1.111  0.00  0.00    +0.267 C 
ATOM     22  O   UNL     1       0.090  -6.736   0.007  0.00  0.00    -0.271 OA
ATOM     23  N   UNL     1       0.084  -7.081  -2.185  0.00  0.00    -0.232 N 
ATOM     24  H   UNL     1       0.074  -6.705  -3.079  0.00  0.00    +0.173 HD
BRANCH  21  25
ATOM     25  C   UNL     1       0.058  -4.771  -1.300  0.00  0.00    +0.326 C 
BRANCH  25  26
ATOM     26  O   UNL     1       0.057  -4.130  -0.022  0.00  0.00    -0.482 OA
BRANCH  26  31
ATOM     27  C   UNL     1      -0.018   1.503   0.010  0.00  0.00    +0.044 C 
ATOM     28  C   UNL     1       0.002  -0.004   0.002  0.00  0.00    -0.049 A 
ATOM     29  C   UNL     1       0.006  -0.688  -1.200  0.00  0.00    +0.007 A 
ATOM     30  C   UNL     1       0.024  -2.069  -1.211  0.00  0.00    +0.047 A 
ATOM     31  C   UNL     1       0.039  -2.771  -0.014  0.00  0.00    +0.135 A 
ATOM     32  C   UNL     1       0.036  -2.083   1.191  0.00  0.00    +0.060 A 
ATOM     33  C   UNL     1       0.023  -0.700   1.196  0.00  0.00    +0.022 A 
ATOM     34 BR   UNL     1       0.056  -3.035   2.825  0.00  0.00    -0.047 Br
ENDBRANCH  26  31
ENDBRANCH  25  26
ENDBRANCH  21  25
ENDBRANCH  19  23
ENDBRANCH   1  19
TORSDOF 9
