REMARK  Name = ZINC08816409
REMARK  9 active torsions:
REMARK  status: ('A' for Active; 'I' for Inactive)
REMARK    1  A    between atoms: C_1  and  C_2
REMARK    2  A    between atoms: C_5  and  C_9
REMARK    3  A    between atoms: C_6  and  C_8
REMARK    4  A    between atoms: C_11  and  C_27
REMARK    5  A    between atoms: C_12  and  C_17
REMARK    6  A    between atoms: C_17  and  S_18
REMARK    7  A    between atoms: S_18  and  C_19
REMARK    8  A    between atoms: C_27  and  O_29
REMARK    9  A    between atoms: O_29  and  C_30
REMARK                            x       y       z     vdW  Elec       q    Type
REMARK                         _______ _______ _______ _____ _____    ______ ____
ROOT
ATOM      1  C   UNL     1       1.047  -2.213   0.314  0.00  0.00    +0.144 C 
ATOM      2  C   UNL     1       1.525  -2.551   1.712  0.00  0.00    +0.079 C 
ATOM      3  C   UNL     1       0.710  -3.292   2.493  0.00  0.00    +0.034 C 
ATOM      4  N   UNL     1      -0.503  -3.722   2.037  0.00  0.00    -0.272 N 
ATOM      5  C   UNL     1      -0.975  -3.452   0.813  0.00  0.00    +0.304 C 
ATOM      6  O   UNL     1      -2.069  -3.879   0.497  0.00  0.00    -0.252 OA
ATOM      7  N   UNL     1      -0.277  -2.724  -0.080  0.00  0.00    -0.288 N 
ATOM      8  H   UNL     1      -1.054  -4.252   2.633  0.00  0.00    +0.156 HD
ATOM      9  H   UNL     1      -0.637  -2.540  -0.962  0.00  0.00    +0.151 HD
ENDROOT
BRANCH   1  14
ATOM     10  C   UNL     1       0.958   3.543  -0.194  0.00  0.00    +0.044 C 
ATOM     11  C   UNL     1       0.981   2.042  -0.061  0.00  0.00    -0.050 A 
ATOM     12  C   UNL     1       0.874   1.456   1.187  0.00  0.00    +0.004 A 
ATOM     13  C   UNL     1       0.896   0.080   1.308  0.00  0.00    +0.006 A 
ATOM     14  C   UNL     1       1.024  -0.712   0.182  0.00  0.00    -0.020 A 
ATOM     15  C   UNL     1       1.130  -0.126  -1.066  0.00  0.00    -0.045 A 
ATOM     16  C   UNL     1       1.109   1.251  -1.187  0.00  0.00    +0.007 A 
ATOM     17  C   UNL     1       1.270  -0.989  -2.293  0.00  0.00    +0.044 C 
ENDBRANCH   1  14
BRANCH   2  18
ATOM     18  C   UNL     1       2.783  -2.106   2.182  0.00  0.00    +0.339 C 
ATOM     19  O   UNL     1       3.799  -2.680   1.838  0.00  0.00    -0.245 OA
BRANCH  18  20
ATOM     20  O   UNL     1       2.856  -1.044   3.012  0.00  0.00    -0.465 OA
ATOM     21  C   UNL     1       4.162  -0.580   3.358  0.00  0.00    +0.280 C 
ENDBRANCH  18  20
ENDBRANCH   2  18
BRANCH   3  22
ATOM     22  C   UNL     1       1.147  -3.651   3.889  0.00  0.00    +0.125 C 
BRANCH  22  23
ATOM     23  S   UNL     1       0.248  -2.627   5.086  0.00  0.00    -0.118 S 
BRANCH  23  24
ATOM     24  C   UNL     1       0.863  -3.160   6.649  0.00  0.00    +0.028 A 
ATOM     25  C   UNL     1       1.824  -4.161   6.715  0.00  0.00    +0.036 A 
ATOM     26  C   UNL     1       2.303  -4.576   7.943  0.00  0.00    +0.042 A 
ATOM     27  C   UNL     1       1.827  -3.996   9.106  0.00  0.00    +0.021 A 
ATOM     28  C   UNL     1       0.870  -3.000   9.044  0.00  0.00    +0.022 A 
ATOM     29  C   UNL     1       0.390  -2.576   7.820  0.00  0.00    +0.054 A 
ATOM     30 CL   UNL     1      -0.805  -1.320   7.743  0.00  0.00    -0.082 Cl
ATOM     31 CL   UNL     1       3.505  -5.827   8.027  0.00  0.00    -0.084 Cl
ENDBRANCH  23  24
ENDBRANCH  22  23
ENDBRANCH   3  22
TORSDOF 6
