REMARK  Name = ZINC03303165
REMARK  9 active torsions:
REMARK  status: ('A' for Active; 'I' for Inactive)
REMARK    1  A    between atoms: C_8  and  C_10
REMARK    2  A    between atoms: C_10  and  C_12
REMARK    3  A    between atoms: C_12  and  O_13
REMARK    4  A    between atoms: O_13  and  C_14
REMARK    5  A    between atoms: C_14  and  C_16
REMARK    6  A    between atoms: C_16  and  C_18
REMARK    7  A    between atoms: C_16  and  N_29
REMARK    8  A    between atoms: C_18  and  C_19
REMARK    9  A    between atoms: C_30  and  C_32
REMARK                            x       y       z     vdW  Elec       q    Type
REMARK                         _______ _______ _______ _____ _____    ______ ____
ROOT
ATOM      1  C   UNL     1      -4.850   0.549   0.028  0.00  0.00    +0.186 C 
ENDROOT
BRANCH   1   2
ATOM      2  N   UNL     1      -6.035   1.262   0.510  0.00  0.00    -0.298 N 
ATOM      3  C   UNL     1      -6.481   2.351  -0.148  0.00  0.00    +0.251 C 
ATOM      4  O   UNL     1      -5.898   2.741  -1.143  0.00  0.00    -0.270 OA
ATOM      5  H   UNL     1      -6.500   0.951   1.303  0.00  0.00    +0.150 HD
BRANCH   3   6
ATOM      6  C   UNL     1      -7.667   3.064   0.334  0.00  0.00    +0.074 A 
ATOM      7  C   UNL     1      -8.282   4.191  -0.190  0.00  0.00    +0.021 A 
ATOM      8  C   UNL     1      -9.393   4.658   0.467  0.00  0.00    +0.008 A 
ATOM      9  C   UNL     1      -9.831   4.008   1.577  0.00  0.00    +0.046 A 
ATOM     10  S   UNL     1      -8.700   2.705   1.743  0.00  0.00    -0.092 S 
ENDBRANCH   3   6
ENDBRANCH   1   2
BRANCH   1  11
ATOM     11  C   UNL     1      -3.667   1.483   0.028  0.00  0.00    +0.328 C 
ATOM     12  O   UNL     1      -3.842   2.679   0.035  0.00  0.00    -0.249 OA
BRANCH  11  13
ATOM     13  O   UNL     1      -2.420   0.987   0.019  0.00  0.00    -0.455 OA
BRANCH  13  14
ATOM     14  C   UNL     1      -1.330   1.945   0.019  0.00  0.00    +0.314 C 
BRANCH  14  15
ATOM     15  C   UNL     1      -0.014   1.210   0.009  0.00  0.00    +0.235 C 
ATOM     16  O   UNL     1       0.002  -0.004   0.002  0.00  0.00    -0.285 OA
BRANCH  15  24
ATOM     17  C   UNL     1       5.387   3.748  -0.030  0.00  0.00    +0.001 A 
ATOM     18  C   UNL     1       4.636   4.917  -0.017  0.00  0.00    +0.004 A 
ATOM     19  C   UNL     1       3.259   4.868  -0.004  0.00  0.00    +0.047 A 
ATOM     20  C   UNL     1       2.610   3.639  -0.004  0.00  0.00    +0.136 A 
ATOM     21  C   UNL     1       3.374   2.456  -0.018  0.00  0.00    +0.021 A 
ATOM     22  C   UNL     1       4.771   2.529  -0.031  0.00  0.00    +0.011 A 
ATOM     23  C   UNL     1       2.448   1.383  -0.014  0.00  0.00    +0.061 A 
ATOM     24  C   UNL     1       1.203   1.935   0.001  0.00  0.00    +0.175 A 
ATOM     25  O   UNL     1       1.310   3.282   0.001  0.00  0.00    -0.452 OA
ENDBRANCH  15  24
ENDBRANCH  14  15
ENDBRANCH  13  14
ENDBRANCH  11  13
ENDBRANCH   1  11
BRANCH   1  26
ATOM     26  C   UNL     1      -5.102   0.044  -1.394  0.00  0.00    +0.071 C 
BRANCH  26  27
ATOM     27  C   UNL     1      -6.204  -0.983  -1.375  0.00  0.00    -0.020 A 
ATOM     28  C   UNL     1      -6.053  -2.316  -1.316  0.00  0.00    +0.087 A 
ATOM     29  N   UNL     1      -7.279  -2.924  -1.314  0.00  0.00    -0.360 N 
ATOM     30  H   UNL     1      -7.425  -3.882  -1.275  0.00  0.00    +0.165 HD
ATOM     31  C   UNL     1      -8.274  -1.975  -1.382  0.00  0.00    +0.047 A 
ATOM     32  C   UNL     1      -7.644  -0.717  -1.423  0.00  0.00    +0.003 A 
ATOM     33  C   UNL     1      -8.414   0.445  -1.494  0.00  0.00    +0.010 A 
ATOM     34  C   UNL     1      -9.777   0.355  -1.524  0.00  0.00    +0.001 A 
ATOM     35  C   UNL     1     -10.403  -0.883  -1.484  0.00  0.00    +0.002 A 
ATOM     36  C   UNL     1      -9.662  -2.043  -1.413  0.00  0.00    +0.026 A 
ENDBRANCH  26  27
ENDBRANCH   1  26
TORSDOF 9
