REMARK  Name = ZINC13003132
REMARK  5 active torsions:
REMARK  status: ('A' for Active; 'I' for Inactive)
REMARK    1  A    between atoms: C_4  and  C_7
REMARK    2  A    between atoms: C_10  and  S_12
REMARK    3  A    between atoms: S_12  and  C_13
REMARK    4  A    between atoms: C_13  and  C_14
REMARK    5  A    between atoms: C_27  and  C_29
REMARK                            x       y       z     vdW  Elec       q    Type
REMARK                         _______ _______ _______ _____ _____    ______ ____
ROOT
ATOM      1  C   UNL     1      -8.271  -1.331   0.035  0.00  0.00    +0.231 C 
ATOM      2  O   UNL     1      -8.989  -0.353   0.044  0.00  0.00    -0.274 OA
ATOM      3  N   UNL     1      -8.812  -2.565   0.032  0.00  0.00    -0.257 N 
ATOM      4  C   UNL     1      -7.995  -3.703   0.022  0.00  0.00    +0.058 A 
ATOM      5  C   UNL     1      -7.277  -4.067   1.149  0.00  0.00    +0.025 A 
ATOM      6  C   UNL     1      -6.494  -5.207   1.128  0.00  0.00    +0.002 A 
ATOM      7  C   UNL     1      -6.425  -5.984  -0.014  0.00  0.00    +0.002 A 
ATOM      8  C   UNL     1      -7.131  -5.622  -1.147  0.00  0.00    +0.025 A 
ATOM      9  C   UNL     1      -7.910  -4.477  -1.137  0.00  0.00    +0.055 A 
ATOM     10  N   UNL     1      -8.589  -4.061  -2.287  0.00  0.00    -0.284 N 
ATOM     11  C   UNL     1      -9.891  -3.706  -2.224  0.00  0.00    +0.219 C 
ATOM     12  O   UNL     1     -10.444  -3.268  -3.210  0.00  0.00    -0.275 OA
ATOM     13  C   UNL     1     -10.659  -3.851  -0.937  0.00  0.00    +0.128 C 
ATOM     14  C   UNL     1     -10.266  -2.741   0.044  0.00  0.00    +0.194 C 
ATOM     15  H   UNL     1      -8.121  -4.026  -3.136  0.00  0.00    +0.155 HD
ENDROOT
BRANCH  14  16
ATOM     16  C   UNL     1     -10.720  -3.119   1.455  0.00  0.00    +0.409 C 
ATOM     17  F   UNL     1     -10.365  -2.101   2.348  0.00  0.00    -0.169 F 
ATOM     18  F   UNL     1     -12.109  -3.287   1.469  0.00  0.00    -0.169 F 
ATOM     19  F   UNL     1     -10.102  -4.313   1.840  0.00  0.00    -0.169 F 
ENDBRANCH  14  16
BRANCH   1  20
ATOM     20  C   UNL     1      -6.773  -1.165   0.029  0.00  0.00    +0.175 C 
BRANCH  20  21
ATOM     21  S   UNL     1      -6.360   0.597   0.035  0.00  0.00    -0.056 S 
BRANCH  21  25
ATOM     22  C   UNL     1      -2.502   1.008   0.019  0.00  0.00    +0.249 A 
ATOM     23  N   UNL     1      -2.634  -0.296   0.013  0.00  0.00    -0.106 NA
ATOM     24  N   UNL     1      -3.884  -0.600   0.018  0.00  0.00    -0.101 NA
ATOM     25  C   UNL     1      -4.601   0.499   0.026  0.00  0.00    +0.278 A 
ATOM     26  O   UNL     1      -3.745   1.539   0.034  0.00  0.00    -0.411 OA
BRANCH  22  30
ATOM     27  C   UNL     1       1.155   3.167   0.008  0.00  0.00    +0.000 A 
ATOM     28  C   UNL     1       1.172   1.783   0.000  0.00  0.00    +0.001 A 
ATOM     29  C   UNL     1      -0.013   1.076   0.008  0.00  0.00    +0.013 A 
ATOM     30  C   UNL     1      -1.230   1.759   0.017  0.00  0.00    +0.039 A 
ATOM     31  C   UNL     1      -1.240   3.155   0.029  0.00  0.00    +0.013 A 
ATOM     32  C   UNL     1      -0.048   3.850   0.022  0.00  0.00    +0.001 A 
ENDBRANCH  22  30
ENDBRANCH  21  25
ENDBRANCH  20  21
ENDBRANCH   1  20
TORSDOF 5
