REMARK  Name = ZINC16907056
REMARK  7 active torsions:
REMARK  status: ('A' for Active; 'I' for Inactive)
REMARK    1  A    between atoms: C_1  and  C_2
REMARK    2  A    between atoms: C_2  and  C_4
REMARK    3  A    between atoms: C_2  and  O_7
REMARK    4  A    between atoms: O_7  and  C_8
REMARK    5  A    between atoms: C_11  and  C_14
REMARK    6  A    between atoms: N_18  and  N_22
REMARK    7  A    between atoms: C_23  and  C_25
REMARK                            x       y       z     vdW  Elec       q    Type
REMARK                         _______ _______ _______ _____ _____    ______ ____
ROOT
ATOM      1  C   UNL     1      -0.073   6.335   0.975  0.00  0.00    +0.028 C 
ATOM      2  C   UNL     1      -1.315   6.875   1.069  0.00  0.00    +0.079 C 
ATOM      3  C   UNL     1      -2.631   6.263   0.796  0.00  0.00    +0.275 C 
ATOM      4  O   UNL     1      -2.734   5.108   0.427  0.00  0.00    -0.267 OA
ATOM      5  N   UNL     1      -3.691   7.033   0.974  0.00  0.00    -0.170 N 
ATOM      6  C   UNL     1      -3.572   8.312   1.384  0.00  0.00    +0.138 C 
ATOM      7  S   UNL     1      -4.812   9.458   1.668  0.00  0.00    -0.026 S 
ATOM      8  S   UNL     1      -1.808   8.521   1.565  0.00  0.00    -0.059 S 
ENDROOT
BRANCH   1  12
ATOM      9  C   UNL     1       0.383   2.180   0.268  0.00  0.00    +0.122 A 
ATOM     10  C   UNL     1       1.266   3.082  -0.314  0.00  0.00    +0.046 A 
ATOM     11  C   UNL     1       1.119   4.433  -0.092  0.00  0.00    +0.011 A 
ATOM     12  C   UNL     1       0.085   4.896   0.731  0.00  0.00    -0.024 A 
ATOM     13  C   UNL     1      -0.798   3.982   1.319  0.00  0.00    +0.011 A 
ATOM     14  C   UNL     1      -0.645   2.634   1.086  0.00  0.00    +0.046 A 
BRANCH   9  15
ATOM     15  O   UNL     1       0.529   0.849   0.041  0.00  0.00    -0.478 OA
BRANCH  15  17
ATOM     16  C   UNL     1       2.883   0.346  -0.179  0.00  0.00    +0.064 C 
ATOM     17  C   UNL     1       1.535   0.457  -0.895  0.00  0.00    +0.282 C 
BRANCH  17  18
ATOM     18  C   UNL     1       1.173  -0.878  -1.493  0.00  0.00    +0.395 C 
ATOM     19  O   UNL     1       0.157  -1.437  -1.152  0.00  0.00    -0.242 OA
ATOM     20  O   UNL     1       1.978  -1.447  -2.403  0.00  0.00    -0.242 OA
ENDBRANCH  17  18
ENDBRANCH  15  17
ENDBRANCH   9  15
ENDBRANCH   1  12
BRANCH   5  21
ATOM     21  N   UNL     1      -4.967   6.508   0.732  0.00  0.00    -0.226 N 
ATOM     22  C   UNL     1      -5.769   6.183   1.764  0.00  0.00    +0.233 C 
ATOM     23  O   UNL     1      -5.387   6.345   2.904  0.00  0.00    -0.274 OA
ATOM     24  H   UNL     1      -5.314   6.361  -0.302  0.00  0.00    +0.173 HD
BRANCH  22  25
ATOM     25  C   UNL     1      -7.142   5.618   1.504  0.00  0.00    +0.076 C 
ATOM     26  C   UNL     1      -7.965   6.627   0.700  0.00  0.00    +0.013 C 
ATOM     27  C   UNL     1      -9.358   6.053   0.435  0.00  0.00    +0.001 C 
ATOM     28  C   UNL     1     -10.056   5.773   1.767  0.00  0.00    +0.000 C 
ATOM     29  C   UNL     1      -9.233   4.764   2.571  0.00  0.00    +0.001 C 
ATOM     30  C   UNL     1      -7.840   5.337   2.836  0.00  0.00    +0.013 C 
ENDBRANCH  22  25
ENDBRANCH   5  21
TORSDOF 6
