REMARK  Name = ZINC38682915
REMARK  14 active torsions:
REMARK  status: ('A' for Active; 'I' for Inactive)
REMARK    1  A    between atoms: C_1  and  C_2
REMARK    2  A    between atoms: C_2  and  C_3
REMARK    3  A    between atoms: C_3  and  C_4
REMARK    4  A    between atoms: C_4  and  O_5
REMARK    5  A    between atoms: O_5  and  C_6
REMARK    6  A    between atoms: C_11  and  C_12
REMARK    7  A    between atoms: C_17  and  O_26
REMARK    8  A    between atoms: C_21  and  N_25
REMARK    9  A    between atoms: C_22  and  C_23
REMARK   10  A    between atoms: O_26  and  C_27
REMARK   11  A    between atoms: C_27  and  C_29
REMARK   12  A    between atoms: C_29  and  C_31
REMARK   13  A    between atoms: C_29  and  O_32
REMARK   14  A    between atoms: O_32  and  C_33
REMARK                            x       y       z     vdW  Elec       q    Type
REMARK                         _______ _______ _______ _____ _____    ______ ____
ROOT
ATOM      1  C   UNL     1       2.724  -3.229  -4.771  0.00  0.00    +0.101 C 
ATOM      2  C   UNL     1       4.200  -3.508  -4.886  0.00  0.00    +0.008 A 
ATOM      3  C   UNL     1       5.059  -3.039  -3.908  0.00  0.00    +0.012 A 
ATOM      4  C   UNL     1       6.415  -3.285  -3.996  0.00  0.00    +0.047 A 
ATOM      5  C   UNL     1       6.920  -4.005  -5.069  0.00  0.00    +0.135 A 
ATOM      6  C   UNL     1       6.063  -4.476  -6.050  0.00  0.00    +0.093 A 
ATOM      7  C   UNL     1       4.699  -4.228  -5.960  0.00  0.00    +0.138 A 
ATOM      8  O   UNL     1       3.873  -4.695  -6.928  0.00  0.00    -0.441 OA
ATOM      9  C   UNL     1       2.650  -4.162  -7.081  0.00  0.00    +0.199 C 
ATOM     10  C   UNL     1       2.051  -3.457  -6.096  0.00  0.00    +0.098 C 
ENDROOT
BRANCH   1  16
ATOM     11  C   UNL     1       1.501  -3.619  -2.618  0.00  0.00    +0.125 A 
ATOM     12  C   UNL     1       0.942  -4.468  -1.673  0.00  0.00    +0.046 A 
ATOM     13  C   UNL     1       1.009  -5.836  -1.849  0.00  0.00    +0.004 A 
ATOM     14  C   UNL     1       1.633  -6.360  -2.966  0.00  0.00    +0.001 A 
ATOM     15  C   UNL     1       2.191  -5.517  -3.909  0.00  0.00    +0.008 A 
ATOM     16  C   UNL     1       2.121  -4.148  -3.740  0.00  0.00    +0.007 A 
BRANCH  11  17
ATOM     17  O   UNL     1       1.435  -2.273  -2.447  0.00  0.00    -0.492 OA
BRANCH  17  18
ATOM     18  C   UNL     1       0.781  -1.799  -1.268  0.00  0.00    +0.229 C 
BRANCH  18  19
ATOM     19  C   UNL     1       0.806  -0.270  -1.250  0.00  0.00    +0.041 C 
BRANCH  19  21
ATOM     20  C   UNL     1       0.131   1.767   0.030  0.00  0.00    +0.004 C 
ATOM     21  C   UNL     1       0.106   0.237   0.013  0.00  0.00    -0.000 C 
ENDBRANCH  19  21
ENDBRANCH  18  19
ENDBRANCH  17  18
ENDBRANCH  11  17
ENDBRANCH   1  16
BRANCH   9  22
ATOM     22  N   UNL     1       1.990  -4.338  -8.271  0.00  0.00    -0.328 N 
ATOM     23  H   UNL     1       2.408  -4.842  -8.987  0.00  0.00    +0.145 HD
ATOM     24  H   UNL     1       1.106  -3.958  -8.397  0.00  0.00    +0.145 HD
ENDBRANCH   9  22
BRANCH  10  25
ATOM     25  C   UNL     1       0.745  -2.916  -6.321  0.00  0.00    +0.101 C 
ATOM     26  N   UNL     1      -0.291  -2.486  -6.500  0.00  0.00    -0.191 NA
ENDBRANCH  10  25
BRANCH   5  27
ATOM     27  O   UNL     1       8.255  -4.248  -5.158  0.00  0.00    -0.423 OA
BRANCH  27  28
ATOM     28  C   UNL     1       8.933  -3.680  -6.168  0.00  0.00    +0.353 C 
ATOM     29  O   UNL     1       8.376  -2.904  -6.909  0.00  0.00    -0.246 OA
BRANCH  28  30
ATOM     30  C   UNL     1      10.388  -4.011  -6.378  0.00  0.00    +0.279 C 
ATOM     31  C   UNL     1      11.203  -3.507  -5.185  0.00  0.00    +0.064 C 
BRANCH  30  32
ATOM     32  O   UNL     1      10.852  -3.379  -7.573  0.00  0.00    -0.475 OA
BRANCH  32  33
ATOM     33  C   UNL     1      11.796  -4.040  -8.294  0.00  0.00    +0.157 A 
ATOM     34  C   UNL     1      12.361  -5.204  -7.797  0.00  0.00    +0.048 A 
ATOM     35  C   UNL     1      13.320  -5.875  -8.531  0.00  0.00    +0.004 A 
ATOM     36  C   UNL     1      13.718  -5.386  -9.762  0.00  0.00    +0.003 A 
ATOM     37  C   UNL     1      13.158  -4.225 -10.262  0.00  0.00    +0.042 A 
ATOM     38  C   UNL     1      12.192  -3.553  -9.534  0.00  0.00    +0.165 A 
ATOM     39  F   UNL     1      11.640  -2.422 -10.024  0.00  0.00    -0.202 F 
ENDBRANCH  32  33
ENDBRANCH  30  32
ENDBRANCH  28  30
ENDBRANCH  27  28
ENDBRANCH   5  27
TORSDOF 12
