REMARK  Name = ZINC12653257
REMARK  3 active torsions:
REMARK  status: ('A' for Active; 'I' for Inactive)
REMARK    1  A    between atoms: C_1  and  C_2
REMARK    2  A    between atoms: C_2  and  N_3
REMARK    3  A    between atoms: C_26  and  C_28
REMARK                            x       y       z     vdW  Elec       q    Type
REMARK                         _______ _______ _______ _____ _____    ______ ____
ROOT
ATOM      1  N   UNL     1       0.537   4.950  -0.605  0.00  0.00    -0.269 N 
ATOM      2  C   UNL     1      -0.369   4.963  -1.651  0.00  0.00    +0.042 A 
ATOM      3  C   UNL     1      -0.296   5.624  -2.878  0.00  0.00    +0.024 A 
ATOM      4  C   UNL     1      -1.360   5.460  -3.751  0.00  0.00    +0.002 A 
ATOM      5  C   UNL     1      -2.452   4.679  -3.433  0.00  0.00    +0.000 A 
ATOM      6  C   UNL     1      -2.537   4.015  -2.214  0.00  0.00    +0.008 A 
ATOM      7  C   UNL     1      -1.484   4.173  -1.340  0.00  0.00    +0.012 A 
ATOM      8  C   UNL     1      -1.236   3.626   0.028  0.00  0.00    +0.181 C 
ATOM      9  C   UNL     1       0.110   4.187   0.425  0.00  0.00    +0.254 C 
ATOM     10  O   UNL     1       0.696   3.990   1.468  0.00  0.00    -0.272 OA
ATOM     11  C   UNL     1      -2.297   4.075   0.999  0.00  0.00    +0.058 A 
ATOM     12  C   UNL     1      -3.183   3.227   1.568  0.00  0.00    -0.015 A 
ATOM     13  C   UNL     1      -4.035   4.021   2.429  0.00  0.00    +0.003 A 
ATOM     14  C   UNL     1      -5.113   3.694   3.258  0.00  0.00    +0.010 A 
ATOM     15  C   UNL     1      -5.702   4.726   3.946  0.00  0.00    +0.001 A 
ATOM     16  C   UNL     1      -5.258   6.034   3.833  0.00  0.00    +0.002 A 
ATOM     17  C   UNL     1      -4.194   6.385   3.021  0.00  0.00    +0.026 A 
ATOM     18  C   UNL     1      -3.577   5.358   2.310  0.00  0.00    +0.047 A 
ATOM     19  N   UNL     1      -2.525   5.351   1.440  0.00  0.00    -0.355 N 
ATOM     20  H   UNL     1      -2.017   6.133   1.173  0.00  0.00    +0.166 HD
ATOM     21  C   UNL     1      -3.227   1.742   1.317  0.00  0.00    +0.056 C 
ATOM     22  C   UNL     1      -2.470   1.426   0.015  0.00  0.00    +0.114 C 
ATOM     23  N   UNL     1      -1.195   2.161   0.019  0.00  0.00    -0.279 N 
ATOM     24  C   UNL     1      -0.018   1.503   0.010  0.00  0.00    +0.214 C 
ATOM     25  O   UNL     1       1.024   2.123   0.004  0.00  0.00    -0.276 OA
ATOM     26  C   UNL     1       0.002  -0.004   0.002  0.00  0.00    +0.109 C 
ENDROOT
BRANCH   1  28
ATOM     27  C   UNL     1       2.904   4.782  -1.196  0.00  0.00    +0.025 C 
ATOM     28  C   UNL     1       1.809   5.677  -0.613  0.00  0.00    +0.110 C 
ENDBRANCH   1  28
TORSDOF 1
