REMARK  Name = ZINC63291121
REMARK  15 active torsions:
REMARK  status: ('A' for Active; 'I' for Inactive)
REMARK    1  A    between atoms: C_1  and  C_2
REMARK    2  A    between atoms: C_2  and  C_3
REMARK    3  A    between atoms: C_7  and  C_33
REMARK    4  A    between atoms: C_8  and  N_9
REMARK    5  A    between atoms: N_9  and  C_10
REMARK    6  A    between atoms: C_10  and  C_12
REMARK    7  A    between atoms: C_10  and  C_13
REMARK    8  A    between atoms: C_13  and  O_14
REMARK    9  A    between atoms: O_14  and  C_15
REMARK   10  A    between atoms: C_16  and  C_18
REMARK   11  A    between atoms: C_18  and  S_19
REMARK   12  A    between atoms: S_19  and  C_20
REMARK   13  A    between atoms: C_26  and  O_30
REMARK   14  A    between atoms: O_30  and  C_31
REMARK   15  A    between atoms: C_31  and  C_32
REMARK                            x       y       z     vdW  Elec       q    Type
REMARK                         _______ _______ _______ _____ _____    ______ ____
ROOT
ATOM      1  N   UNL     1      -1.645  -0.837  -2.245  0.00  0.00    -0.265 N 
ATOM      2  C   UNL     1      -1.826   0.360  -2.837  0.00  0.00    +0.230 C 
ATOM      3  O   UNL     1      -1.382   0.561  -3.947  0.00  0.00    -0.274 OA
ENDROOT
BRANCH   1   9
ATOM      4  C   UNL     1      -1.571  -0.946   0.166  0.00  0.00    -0.026 A 
ATOM      5  C   UNL     1      -2.190  -1.215   1.372  0.00  0.00    +0.005 A 
ATOM      6  C   UNL     1      -3.499  -1.658   1.394  0.00  0.00    +0.001 A 
ATOM      7  C   UNL     1      -4.194  -1.833   0.211  0.00  0.00    +0.005 A 
ATOM      8  C   UNL     1      -3.581  -1.565  -0.997  0.00  0.00    -0.029 A 
ATOM      9  C   UNL     1      -2.268  -1.115  -1.023  0.00  0.00    +0.043 A 
ATOM     10  C   UNL     1      -4.339  -1.756  -2.286  0.00  0.00    +0.045 C 
BRANCH   4  12
ATOM     11  C   UNL     1      -0.067   0.933   0.765  0.00  0.00    +0.009 C 
ATOM     12  C   UNL     1      -0.144  -0.463   0.142  0.00  0.00    +0.033 C 
ENDBRANCH   4  12
ENDBRANCH   1   9
BRANCH   1  13
ATOM     13  C   UNL     1      -0.798  -1.848  -2.882  0.00  0.00    +0.104 C 
ATOM     14  C   UNL     1       0.228  -2.364  -1.870  0.00  0.00    +0.031 C 
BRANCH  13  15
ATOM     15  C   UNL     1      -1.666  -3.011  -3.365  0.00  0.00    +0.182 C 
BRANCH  15  16
ATOM     16  O   UNL     1      -2.260  -3.662  -2.240  0.00  0.00    -0.381 OA
ATOM     17  C   UNL     1      -3.096  -4.769  -2.583  0.00  0.00    +0.194 C 
ENDBRANCH  15  16
ENDBRANCH  13  15
ENDBRANCH   1  13
BRANCH   2  18
ATOM     18  C   UNL     1      -2.581   1.449  -2.119  0.00  0.00    +0.169 C 
BRANCH  18  19
ATOM     19  S   UNL     1      -2.713   2.903  -3.195  0.00  0.00    -0.106 S 
BRANCH  19  20
ATOM     20  C   UNL     1      -3.635   4.105  -2.196  0.00  0.00    +0.236 C 
ATOM     21  N   UNL     1      -2.925   4.364  -0.938  0.00  0.00    -0.355 N 
ATOM     22  C   UNL     1      -3.714   4.013   0.037  0.00  0.00    +0.061 A 
ATOM     23  C   UNL     1      -3.553   4.040   1.498  0.00  0.00    +0.031 A 
ATOM     24  C   UNL     1      -4.552   3.606   2.289  0.00  0.00    +0.048 A 
ATOM     25  C   UNL     1      -5.805   3.103   1.741  0.00  0.00    +0.123 A 
ATOM     26  C   UNL     1      -6.029   3.047   0.406  0.00  0.00    +0.073 A 
ATOM     27  C   UNL     1      -4.993   3.500  -0.524  0.00  0.00    +0.064 A 
ATOM     28  N   UNL     1      -4.946   3.556  -1.829  0.00  0.00    -0.355 N 
ATOM     29  H   UNL     1      -2.031   4.730  -0.849  0.00  0.00    +0.162 HD
ATOM     30  H   UNL     1      -5.647   3.284  -2.442  0.00  0.00    +0.162 HD
BRANCH  25  31
ATOM     31  O   UNL     1      -6.773   2.680   2.591  0.00  0.00    -0.492 OA
BRANCH  31  32
ATOM     32  C   UNL     1      -6.489   2.759   3.989  0.00  0.00    +0.225 C 
ATOM     33  C   UNL     1      -7.690   2.240   4.783  0.00  0.00    +0.048 C 
ENDBRANCH  31  32
ENDBRANCH  25  31
ENDBRANCH  19  20
ENDBRANCH  18  19
ENDBRANCH   2  18
TORSDOF 10
