REMARK  Name = ZINC05236892
REMARK  9 active torsions:
REMARK  status: ('A' for Active; 'I' for Inactive)
REMARK    1  A    between atoms: C_1  and  O_2
REMARK    2  A    between atoms: O_2  and  C_3
REMARK    3  A    between atoms: C_5  and  C_19
REMARK    4  A    between atoms: C_8  and  O_9
REMARK    5  A    between atoms: O_9  and  C_10
REMARK    6  A    between atoms: C_10  and  C_11
REMARK    7  A    between atoms: N_20  and  N_21
REMARK    8  A    between atoms: N_21  and  C_22
REMARK    9  A    between atoms: C_22  and  N_24
REMARK                            x       y       z     vdW  Elec       q    Type
REMARK                         _______ _______ _______ _____ _____    ______ ____
ROOT
ATOM      1  C   UNL     1       1.173   2.097   0.002  0.00  0.00    +0.162 A 
ATOM      2  C   UNL     1      -0.017   1.393   0.010  0.00  0.00    +0.059 A 
ATOM      3  C   UNL     1       0.002  -0.004   0.002  0.00  0.00    -0.002 A 
ATOM      4  C   UNL     1       1.223  -0.683  -0.013  0.00  0.00    +0.013 A 
ATOM      5  C   UNL     1       2.406   0.027  -0.021  0.00  0.00    +0.050 A 
ATOM      6  C   UNL     1       2.387   1.414  -0.013  0.00  0.00    +0.162 A 
ENDROOT
BRANCH   1   8
ATOM      7  C   UNL     1      -0.122   4.092   0.024  0.00  0.00    +0.277 C 
ATOM      8  O   UNL     1       1.158   3.457   0.009  0.00  0.00    -0.491 OA
ENDBRANCH   1   8
BRANCH   3   9
ATOM      9  C   UNL     1      -1.264  -0.760   0.010  0.00  0.00    +0.138 C 
ATOM     10  N   UNL     1      -1.244  -2.058   0.002  0.00  0.00    -0.188 NA
BRANCH  10  11
ATOM     11  N   UNL     1      -2.447  -2.777   0.010  0.00  0.00    -0.219 N 
ATOM     12  H   UNL     1      -3.407  -2.241   0.021  0.00  0.00    +0.176 HD
BRANCH  11  13
ATOM     13  C   UNL     1      -2.426  -4.124   0.002  0.00  0.00    +0.147 C 
ATOM     14  S   UNL     1      -3.896  -5.003   0.011  0.00  0.00    -0.017 S 
BRANCH  13  15
ATOM     15  N   UNL     1      -1.249  -4.780  -0.012  0.00  0.00    -0.339 N 
ATOM     16  H   UNL     1      -1.233  -5.880  -0.018  0.00  0.00    +0.144 HD
ATOM     17  H   UNL     1      -0.305  -4.216  -0.018  0.00  0.00    +0.144 HD
ENDBRANCH  13  15
ENDBRANCH  11  13
ENDBRANCH  10  11
ENDBRANCH   3   9
BRANCH   6  18
ATOM     18  O   UNL     1       3.555   2.108  -0.020  0.00  0.00    -0.484 OA
BRANCH  18  19
ATOM     19  C   UNL     1       4.763   1.345  -0.035  0.00  0.00    +0.266 C 
BRANCH  19  20
ATOM     20  C   UNL     1       5.947   2.278  -0.041  0.00  0.00    +0.008 A 
ATOM     21  C   UNL     1       5.749   3.646  -0.032  0.00  0.00    +0.010 A 
ATOM     22  C   UNL     1       6.834   4.502  -0.037  0.00  0.00    +0.020 A 
ATOM     23  C   UNL     1       8.119   3.990  -0.051  0.00  0.00    +0.042 A 
ATOM     24  C   UNL     1       8.318   2.621  -0.060  0.00  0.00    +0.040 A 
ATOM     25  C   UNL     1       7.232   1.765  -0.050  0.00  0.00    +0.049 A 
ATOM     26 CL   UNL     1       7.481   0.047  -0.055  0.00  0.00    -0.083 Cl
ATOM     27 CL   UNL     1       9.482   5.065  -0.058  0.00  0.00    -0.083 Cl
ENDBRANCH  19  20
ENDBRANCH  18  19
ENDBRANCH   6  18
TORSDOF 8
