REMARK  Name = ZINC36146359
REMARK  12 active torsions:
REMARK  status: ('A' for Active; 'I' for Inactive)
REMARK    1  A    between atoms: C_4  and  C_7
REMARK    2  A    between atoms: C_7  and  O_8
REMARK    3  A    between atoms: O_8  and  C_9
REMARK    4  A    between atoms: C_9  and  C_10
REMARK    5  A    between atoms: C_10  and  C_12
REMARK    6  A    between atoms: C_10  and  O_36
REMARK    7  A    between atoms: C_12  and  N_13
REMARK    8  A    between atoms: N_13  and  C_14
REMARK    9  A    between atoms: N_13  and  C_22
REMARK   10  A    between atoms: C_14  and  C_15
REMARK   11  A    between atoms: C_22  and  C_23
REMARK   12  A    between atoms: C_26  and  C_29
REMARK                            x       y       z     vdW  Elec       q    Type
REMARK                         _______ _______ _______ _____ _____    ______ ____
ROOT
ATOM      1  N   UNL     1       7.129  -2.724   4.523  0.00  0.00    +0.387 N 
ATOM      2  H   UNL     1       6.853  -2.215   5.349  0.00  0.00    -0.081 HD
ENDROOT
BRANCH   1   3
ATOM      3  C   UNL     1       6.051  -2.662   3.527  0.00  0.00    -0.044 C 
BRANCH   3   4
ATOM      4  C   UNL     1       4.710  -2.472   4.237  0.00  0.00    +0.124 C 
BRANCH   4   5
ATOM      5  O   UNL     1       4.438  -3.612   5.055  0.00  0.00    -0.391 OA
ATOM      6  H   UNL     1       4.315  -4.432   4.558  0.00  0.00    +0.210 HD
ENDBRANCH   4   5
BRANCH   4   7
ATOM      7  C   UNL     1       3.599  -2.314   3.197  0.00  0.00    +0.189 C 
BRANCH   7   8
ATOM      8  O   UNL     1       2.366  -2.021   3.857  0.00  0.00    -0.373 OA
BRANCH   8   9
ATOM      9  C   UNL     1       1.258  -1.853   2.971  0.00  0.00    +0.195 C 
BRANCH   9  13
ATOM     10  C   UNL     1      -2.261  -0.992   5.234  0.00  0.00    +0.000 A 
ATOM     11  C   UNL     1      -1.453   0.040   4.793  0.00  0.00    +0.000 A 
ATOM     12  C   UNL     1      -0.314  -0.239   4.060  0.00  0.00    +0.006 A 
ATOM     13  C   UNL     1       0.017  -1.550   3.770  0.00  0.00    -0.022 A 
ATOM     14  C   UNL     1      -0.790  -2.581   4.212  0.00  0.00    +0.006 A 
ATOM     15  C   UNL     1      -1.929  -2.302   4.943  0.00  0.00    +0.000 A 
ENDBRANCH   9  13
ENDBRANCH   8   9
ENDBRANCH   7   8
ENDBRANCH   4   7
ENDBRANCH   3   4
ENDBRANCH   1   3
BRANCH   1  16
ATOM     16  C   UNL     1       7.389  -4.126   4.876  0.00  0.00    -0.041 C 
BRANCH  16  17
ATOM     17  C   UNL     1       7.948  -4.850   3.678  0.00  0.00    -0.046 A 
ATOM     18  C   UNL     1       7.117  -5.192   2.628  0.00  0.00    +0.003 A 
ATOM     19  C   UNL     1       7.629  -5.857   1.529  0.00  0.00    +0.000 A 
ATOM     20  C   UNL     1       8.972  -6.179   1.480  0.00  0.00    +0.001 A 
ATOM     21  C   UNL     1       9.804  -5.838   2.530  0.00  0.00    +0.020 A 
ATOM     22  C   UNL     1       9.293  -5.168   3.627  0.00  0.00    +0.042 A 
ATOM     23 CL   UNL     1      10.338  -4.733   4.943  0.00  0.00    -0.083 Cl
ENDBRANCH  16  17
ENDBRANCH   1  16
BRANCH   1  24
ATOM     24  C   UNL     1       8.348  -2.126   3.964  0.00  0.00    -0.030 C 
BRANCH  24  25
ATOM     25  C   UNL     1       9.273  -1.693   5.103  0.00  0.00    +0.194 C 
ATOM     26  C   UNL     1      10.707  -1.431   4.584  0.00  0.00    +0.104 C 
ATOM     27  C   UNL     1      11.569  -1.962   5.713  0.00  0.00    +0.092 C 
ATOM     28  N   UNL     1      10.829  -2.694   6.477  0.00  0.00    -0.089 NA
ATOM     29  O   UNL     1       9.490  -2.775   6.032  0.00  0.00    -0.392 OA
BRANCH  27  30
ATOM     30  C   UNL     1      13.007  -1.688   5.906  0.00  0.00    +0.018 A 
ATOM     31  C   UNL     1      13.669  -0.791   5.066  0.00  0.00    +0.011 A 
ATOM     32  C   UNL     1      15.012  -0.540   5.252  0.00  0.00    +0.001 A 
ATOM     33  C   UNL     1      15.705  -1.175   6.267  0.00  0.00    +0.001 A 
ATOM     34  C   UNL     1      15.057  -2.066   7.104  0.00  0.00    +0.020 A 
ATOM     35  C   UNL     1      13.710  -2.322   6.934  0.00  0.00    +0.050 A 
ATOM     36 CL   UNL     1      12.896  -3.434   7.989  0.00  0.00    -0.083 Cl
ENDBRANCH  27  30
ENDBRANCH  24  25
ENDBRANCH   1  24
TORSDOF 12
