REMARK  Name = ZINC13495948
REMARK  14 active torsions:
REMARK  status: ('A' for Active; 'I' for Inactive)
REMARK    1  A    between atoms: C_1  and  C_2
REMARK    2  A    between atoms: C_2  and  C_3
REMARK    3  A    between atoms: C_3  and  C_5
REMARK    4  A    between atoms: C_3  and  N_72
REMARK    5  A    between atoms: N_9  and  C_10
REMARK    6  A    between atoms: C_10  and  C_11
REMARK    7  A    between atoms: C_16  and  C_17
REMARK    8  A    between atoms: C_16  and  N_72
REMARK    9  A    between atoms: C_17  and  C_18
REMARK   10  A    between atoms: C_22  and  C_24
REMARK   11  A    between atoms: C_25  and  C_26
REMARK   12  A    between atoms: C_25  and  N_72
REMARK   13  A    between atoms: C_30  and  C_39
REMARK   14  A    between atoms: C_32  and  C_38
REMARK                            x       y       z     vdW  Elec       q    Type
REMARK                         _______ _______ _______ _____ _____    ______ ____
ROOT
ATOM      1  N   UNL     1      -1.847   7.890  -0.831  0.00  0.00    +0.389 N 
ATOM      2  H   UNL     1      -0.951   7.406  -0.700  0.00  0.00    -0.080 HD
ENDROOT
BRANCH   1   3
ATOM      3  C   UNL     1      -1.613   9.133  -1.597  0.00  0.00    +0.003 C 
BRANCH   3   4
ATOM      4  C   UNL     1      -2.903   9.890  -1.781  0.00  0.00    +0.139 A 
ATOM      5  N   UNL     1      -3.923   9.910  -0.959  0.00  0.00    -0.115 NA
ATOM      6  N   UNL     1      -4.830  10.670  -1.468  0.00  0.00    -0.023 NA
ATOM      7  N   UNL     1      -4.415  11.136  -2.594  0.00  0.00    -0.044 NA
ATOM      8  N   UNL     1      -3.228  10.682  -2.820  0.00  0.00    -0.223 N 
BRANCH   8   9
ATOM      9  C   UNL     1      -2.394  10.971  -3.989  0.00  0.00    +0.221 C 
BRANCH   9  10
ATOM     10  C   UNL     1      -2.748  10.024  -5.106  0.00  0.00    +0.126 A 
ATOM     11  C   UNL     1      -3.699  10.225  -6.037  0.00  0.00    +0.046 A 
ATOM     12  C   UNL     1      -3.689   9.093  -6.883  0.00  0.00    +0.041 A 
ATOM     13  C   UNL     1      -2.740   8.264  -6.415  0.00  0.00    +0.195 A 
ATOM     14  O   UNL     1      -2.173   8.832  -5.338  0.00  0.00    -0.466 OA
ENDBRANCH   9  10
ENDBRANCH   8   9
ENDBRANCH   3   4
BRANCH   3  16
ATOM     15  C   UNL     1       0.736   9.288  -0.759  0.00  0.00    +0.002 C 
ATOM     16  C   UNL     1      -0.614  10.005  -0.835  0.00  0.00    -0.011 C 
ENDBRANCH   3  16
ENDBRANCH   1   3
BRANCH   1  17
ATOM     17  C   UNL     1      -2.768   7.004  -1.573  0.00  0.00    -0.073 C 
BRANCH  17  18
ATOM     18  C   UNL     1      -2.120   6.621  -2.905  0.00  0.00    +0.016 C 
BRANCH  18  19
ATOM     19  C   UNL     1      -2.977   5.596  -3.603  0.00  0.00    -0.049 A 
ATOM     20  C   UNL     1      -2.761   4.248  -3.381  0.00  0.00    +0.003 A 
ATOM     21  C   UNL     1      -3.549   3.308  -4.019  0.00  0.00    +0.001 A 
ATOM     22  C   UNL     1      -4.547   3.716  -4.885  0.00  0.00    +0.003 A 
ATOM     23  C   UNL     1      -4.759   5.062  -5.110  0.00  0.00    -0.050 A 
ATOM     24  C   UNL     1      -3.974   6.003  -4.470  0.00  0.00    +0.007 A 
ATOM     25  C   UNL     1      -5.847   5.506  -6.054  0.00  0.00    +0.044 C 
ENDBRANCH  18  19
ENDBRANCH  17  18
ENDBRANCH   1  17
BRANCH   1  26
ATOM     26  C   UNL     1      -2.416   8.214   0.495  0.00  0.00    -0.037 C 
BRANCH  26  27
ATOM     27  C   UNL     1      -2.232   7.025   1.403  0.00  0.00    +0.001 A 
ATOM     28  C   UNL     1      -1.150   6.958   2.217  0.00  0.00    +0.017 A 
ATOM     29  C   UNL     1      -1.001   5.790   3.087  0.00  0.00    -0.001 A 
ATOM     30  C   UNL     1       0.094   5.664   3.949  0.00  0.00    +0.013 A 
ATOM     31  C   UNL     1       0.203   4.562   4.748  0.00  0.00    -0.050 A 
ATOM     32  C   UNL     1      -0.762   3.564   4.712  0.00  0.00    +0.008 A 
ATOM     33  C   UNL     1      -1.846   3.664   3.867  0.00  0.00    -0.026 A 
ATOM     34  C   UNL     1      -1.982   4.781   3.048  0.00  0.00    +0.052 A 
ATOM     35  N   UNL     1      -3.059   4.910   2.197  0.00  0.00    -0.322 N 
ATOM     36  H   UNL     1      -3.734   4.213   2.172  0.00  0.00    +0.169 HD
ATOM     37  C   UNL     1      -3.187   5.986   1.402  0.00  0.00    +0.251 A 
ATOM     38  O   UNL     1      -4.153   6.067   0.662  0.00  0.00    -0.268 OA
ATOM     39  C   UNL     1      -2.883   2.571   3.834  0.00  0.00    +0.046 C 
ATOM     40  C   UNL     1       1.382   4.427   5.677  0.00  0.00    +0.044 C 
ENDBRANCH  26  27
ENDBRANCH   1  26
TORSDOF 10
