REMARK  Name = ZINC06193602
REMARK  13 active torsions:
REMARK  status: ('A' for Active; 'I' for Inactive)
REMARK    1  A    between atoms: C_1  and  C_2
REMARK    2  A    between atoms: C_2  and  N_68
REMARK    3  A    between atoms: C_3  and  C_4
REMARK    4  A    between atoms: C_3  and  N_68
REMARK    5  A    between atoms: C_10  and  C_12
REMARK    6  A    between atoms: C_10  and  C_28
REMARK    7  A    between atoms: C_10  and  N_68
REMARK    8  A    between atoms: C_16  and  O_26
REMARK    9  A    between atoms: C_17  and  O_24
REMARK   10  A    between atoms: O_24  and  C_25
REMARK   11  A    between atoms: O_26  and  C_27
REMARK   12  A    between atoms: N_32  and  C_33
REMARK   13  A    between atoms: C_33  and  C_34
REMARK                            x       y       z     vdW  Elec       q    Type
REMARK                         _______ _______ _______ _____ _____    ______ ____
ROOT
ATOM      1  C   UNL     1       2.345   6.690  -2.276  0.00  0.00    +0.039 C 
ENDROOT
BRANCH   1   2
ATOM      2  C   UNL     1       0.881   6.499  -2.575  0.00  0.00    +0.011 A 
ATOM      3  C   UNL     1      -0.014   6.432  -1.557  0.00  0.00    +0.017 A 
ATOM      4  C   UNL     1      -1.429   6.251  -1.880  0.00  0.00    +0.002 A 
ATOM      5  C   UNL     1      -2.397   6.181  -0.869  0.00  0.00    +0.059 A 
ATOM      6  C   UNL     1      -3.721   6.005  -1.206  0.00  0.00    +0.162 A 
ATOM      7  C   UNL     1      -4.099   5.897  -2.548  0.00  0.00    +0.163 A 
ATOM      8  C   UNL     1      -3.152   5.965  -3.552  0.00  0.00    +0.075 A 
ATOM      9  C   UNL     1      -1.812   6.142  -3.231  0.00  0.00    +0.053 A 
ATOM     10  N   UNL     1      -0.851   6.212  -4.219  0.00  0.00    -0.322 N 
ATOM     11  H   UNL     1      -1.123   6.134  -5.178  0.00  0.00    +0.169 HD
ATOM     12  C   UNL     1       0.447   6.384  -3.911  0.00  0.00    +0.251 A 
ATOM     13  O   UNL     1       1.268   6.441  -4.810  0.00  0.00    -0.268 OA
BRANCH   7  14
ATOM     14  O   UNL     1      -5.408   5.723  -2.867  0.00  0.00    -0.491 OA
ATOM     15  C   UNL     1      -5.729   5.620  -4.255  0.00  0.00    +0.277 C 
ENDBRANCH   7  14
BRANCH   6  16
ATOM     16  O   UNL     1      -4.664   5.935  -0.228  0.00  0.00    -0.491 OA
ATOM     17  C   UNL     1      -4.210   6.052   1.122  0.00  0.00    +0.277 C 
ENDBRANCH   6  16
ENDBRANCH   1   2
BRANCH   1  18
ATOM     18  C   UNL     1       3.132   5.548  -2.864  0.00  0.00    +0.143 A 
ATOM     19  N   UNL     1       3.418   5.364  -4.130  0.00  0.00    -0.115 NA
ATOM     20  N   UNL     1       4.104   4.278  -4.229  0.00  0.00    -0.023 NA
ATOM     21  N   UNL     1       4.268   3.767  -3.059  0.00  0.00    -0.044 NA
ATOM     22  N   UNL     1       3.678   4.518  -2.191  0.00  0.00    -0.226 N 
BRANCH  22  23
ATOM     23  C   UNL     1       3.619   4.294  -0.744  0.00  0.00    +0.182 C 
BRANCH  23  24
ATOM     24  C   UNL     1       2.494   3.344  -0.428  0.00  0.00    -0.026 A 
ATOM     25  C   UNL     1       2.692   1.979  -0.529  0.00  0.00    +0.005 A 
ATOM     26  C   UNL     1       1.659   1.107  -0.238  0.00  0.00    +0.000 A 
ATOM     27  C   UNL     1       0.427   1.600   0.147  0.00  0.00    +0.000 A 
ATOM     28  C   UNL     1       0.230   2.964   0.253  0.00  0.00    +0.000 A 
ATOM     29  C   UNL     1       1.262   3.836  -0.037  0.00  0.00    +0.005 A 
ENDBRANCH  23  24
ENDBRANCH  22  23
ENDBRANCH   1  18
BRANCH   1  30
ATOM     30  N   UNL     1       2.804   7.952  -2.894  0.00  0.00    +0.392 N 
ATOM     31  H   UNL     1       2.778   7.852  -3.916  0.00  0.00    -0.080 HD
BRANCH  30  33
ATOM     32  C   UNL     1       0.689   9.057  -3.420  0.00  0.00    -0.017 C 
ATOM     33  C   UNL     1       1.910   9.062  -2.499  0.00  0.00    -0.080 C 
ENDBRANCH  30  33
BRANCH  30  34
ATOM     34  C   UNL     1       4.190   8.246  -2.474  0.00  0.00    -0.042 C 
BRANCH  34  35
ATOM     35  C   UNL     1       5.133   7.434  -3.324  0.00  0.00    -0.064 A 
ATOM     36  C   UNL     1       5.670   6.259  -2.831  0.00  0.00    +0.002 A 
ATOM     37  C   UNL     1       6.530   5.511  -3.613  0.00  0.00    +0.000 A 
ATOM     38  C   UNL     1       6.863   5.943  -4.883  0.00  0.00    +0.000 A 
ATOM     39  C   UNL     1       6.330   7.121  -5.374  0.00  0.00    +0.000 A 
ATOM     40  C   UNL     1       5.465   7.866  -4.595  0.00  0.00    +0.002 A 
ENDBRANCH  34  35
ENDBRANCH  30  34
ENDBRANCH   1  30
TORSDOF 10
