REMARK  Name = ZINC13202719
REMARK  7 active torsions:
REMARK  status: ('A' for Active; 'I' for Inactive)
REMARK    1  A    between atoms: C_3  and  C_6
REMARK    2  A    between atoms: C_9  and  S_14
REMARK    3  A    between atoms: N_10  and  C_11
REMARK    4  A    between atoms: C_11  and  C_12
REMARK    5  A    between atoms: S_14  and  C_15
REMARK    6  A    between atoms: C_15  and  C_16
REMARK    7  A    between atoms: N_18  and  C_19
REMARK                            x       y       z     vdW  Elec       q    Type
REMARK                         _______ _______ _______ _____ _____    ______ ____
ROOT
ATOM      1  C   UNL     1       0.907   5.128  -0.004  0.00  0.00    +0.172 A 
ATOM      2  N   UNL     1       0.204   6.204   0.276  0.00  0.00    -0.128 NA
ATOM      3  N   UNL     1       0.947   7.249   0.186  0.00  0.00    -0.122 NA
ATOM      4  C   UNL     1       2.168   6.908  -0.157  0.00  0.00    +0.193 A 
ATOM      5  N   UNL     1       2.189   5.547  -0.286  0.00  0.00    -0.291 N 
ENDROOT
BRANCH   1   8
ATOM      6  C   UNL     1      -1.091   1.919  -0.024  0.00  0.00    +0.008 A 
ATOM      7  C   UNL     1      -0.875   3.279  -0.011  0.00  0.00    +0.019 A 
ATOM      8  C   UNL     1       0.418   3.740  -0.011  0.00  0.00    +0.056 A 
ATOM      9  S   UNL     1       1.351   2.219  -0.021  0.00  0.00    -0.094 S 
ATOM     10  C   UNL     1      -0.023   1.079  -0.025  0.00  0.00    +0.046 A 
ENDBRANCH   1   8
BRANCH   5  11
ATOM     11  C   UNL     1       3.334   4.708  -0.649  0.00  0.00    +0.250 C 
BRANCH  11  12
ATOM     12  C   UNL     1       3.384   4.548  -2.146  0.00  0.00    +0.375 C 
ATOM     13  O   UNL     1       2.549   5.079  -2.839  0.00  0.00    -0.244 OA
ATOM     14  O   UNL     1       4.357   3.815  -2.711  0.00  0.00    -0.244 OA
ENDBRANCH  11  12
ENDBRANCH   5  11
BRANCH   4  15
ATOM     15  S   UNL     1       3.529   8.001  -0.399  0.00  0.00    -0.077 S 
BRANCH  15  16
ATOM     16  C   UNL     1       2.728   9.584  -0.045  0.00  0.00    +0.173 C 
BRANCH  16  17
ATOM     17  C   UNL     1       3.731  10.699  -0.193  0.00  0.00    +0.227 C 
ATOM     18  O   UNL     1       4.875  10.448  -0.508  0.00  0.00    -0.275 OA
ATOM     19  N   UNL     1       3.356  11.976   0.023  0.00  0.00    -0.285 N 
ATOM     20  H   UNL     1       2.427  12.184   0.209  0.00  0.00    +0.155 HD
BRANCH  19  21
ATOM     21  C   UNL     1       4.308  13.001  -0.020  0.00  0.00    +0.033 A 
ATOM     22  C   UNL     1       4.193  14.092   0.831  0.00  0.00    +0.024 A 
ATOM     23  C   UNL     1       5.137  15.100   0.790  0.00  0.00    +0.017 A 
ATOM     24  C   UNL     1       6.189  15.028  -0.106  0.00  0.00    +0.018 A 
ATOM     25  C   UNL     1       6.302  13.945  -0.958  0.00  0.00    +0.017 A 
ATOM     26  C   UNL     1       5.365  12.931  -0.918  0.00  0.00    +0.024 A 
ATOM     27 BR   UNL     1       7.475  16.414  -0.164  0.00  0.00    -0.050 Br
ENDBRANCH  19  21
ENDBRANCH  16  17
ENDBRANCH  15  16
ENDBRANCH   4  15
TORSDOF 7
