REMARK  Name = ZINC06819942
REMARK  8 active torsions:
REMARK  status: ('A' for Active; 'I' for Inactive)
REMARK    1  A    between atoms: C_1  and  C_2
REMARK    2  A    between atoms: C_6  and  N_8
REMARK    3  A    between atoms: C_9  and  C_11
REMARK    4  A    between atoms: C_11  and  S_12
REMARK    5  A    between atoms: S_12  and  C_13
REMARK    6  A    between atoms: N_26  and  C_27
REMARK    7  A    between atoms: C_27  and  C_28
REMARK    8  A    between atoms: C_27  and  C_29
REMARK                            x       y       z     vdW  Elec       q    Type
REMARK                         _______ _______ _______ _____ _____    ______ ____
ROOT
ATOM      1  C   UNL     1      -0.334  -7.412   4.943  0.00  0.00    +0.173 A 
ATOM      2  N   UNL     1      -0.332  -6.639   6.007  0.00  0.00    -0.219 NA
ATOM      3  C   UNL     1      -0.413  -7.161   7.239  0.00  0.00    +0.125 A 
ATOM      4  C   UNL     1      -0.435  -6.589   8.594  0.00  0.00    +0.046 A 
ATOM      5  C   UNL     1      -0.380  -5.292   9.099  0.00  0.00    +0.014 A 
ATOM      6  C   UNL     1      -0.424  -5.086  10.460  0.00  0.00    +0.001 A 
ATOM      7  C   UNL     1      -0.522  -6.166  11.326  0.00  0.00    +0.004 A 
ATOM      8  C   UNL     1      -0.576  -7.454  10.839  0.00  0.00    +0.047 A 
ATOM      9  C   UNL     1      -0.534  -7.683   9.468  0.00  0.00    +0.138 A 
ATOM     10  O   UNL     1      -0.570  -8.813   8.731  0.00  0.00    -0.448 OA
ATOM     11  C   UNL     1      -0.500  -8.540   7.409  0.00  0.00    +0.219 A 
ATOM     12  C   UNL     1      -0.501  -9.357   6.260  0.00  0.00    +0.298 A 
ATOM     13  O   UNL     1      -0.576 -10.571   6.360  0.00  0.00    -0.264 OA
ATOM     14  N   UNL     1      -0.422  -8.769   5.048  0.00  0.00    -0.282 N 
ENDROOT
BRANCH  14  15
ATOM     15  C   UNL     1      -0.426  -9.594   3.837  0.00  0.00    +0.087 C 
ATOM     16  C   UNL     1       0.765 -10.553   3.869  0.00  0.00    +0.031 C 
ATOM     17  C   UNL     1      -1.726 -10.398   3.772  0.00  0.00    +0.031 C 
ENDBRANCH  14  15
BRANCH   1  18
ATOM     18  S   UNL     1      -0.226  -6.677   3.345  0.00  0.00    -0.078 S 
BRANCH  18  19
ATOM     19  C   UNL     1      -0.129  -4.898   3.686  0.00  0.00    +0.173 C 
BRANCH  19  21
ATOM     20  N   UNL     1       0.052  -2.797   2.393  0.00  0.00    -0.285 N 
ATOM     21  C   UNL     1      -0.031  -4.143   2.385  0.00  0.00    +0.227 C 
ATOM     22  O   UNL     1      -0.028  -4.745   1.333  0.00  0.00    -0.275 OA
ATOM     23  H   UNL     1       0.127  -2.321   3.234  0.00  0.00    +0.155 HD
BRANCH  20  29
ATOM     24  C   UNL     1       1.524   1.061  -0.275  0.00  0.00    +0.044 C 
ATOM     25  C   UNL     1       0.735  -0.215  -0.134  0.00  0.00    -0.049 A 
ATOM     26  C   UNL     1      -0.011  -0.687  -1.199  0.00  0.00    +0.003 A 
ATOM     27  C   UNL     1      -0.736  -1.857  -1.074  0.00  0.00    +0.002 A 
ATOM     28  C   UNL     1      -0.717  -2.559   0.116  0.00  0.00    +0.023 A 
ATOM     29  C   UNL     1       0.031  -2.089   1.186  0.00  0.00    +0.034 A 
ATOM     30  C   UNL     1       0.763  -0.915   1.056  0.00  0.00    +0.026 A 
ENDBRANCH  20  29
ENDBRANCH  19  21
ENDBRANCH  18  19
ENDBRANCH   1  18
TORSDOF 5
