REMARK  Name = ZINC08454093
REMARK  4 active torsions:
REMARK  status: ('A' for Active; 'I' for Inactive)
REMARK    1  A    between atoms: C_10  and  N_11
REMARK    2  A    between atoms: N_11  and  S_12
REMARK    3  A    between atoms: S_12  and  C_15
REMARK    4  A    between atoms: C_28  and  C_31
REMARK                            x       y       z     vdW  Elec       q    Type
REMARK                         _______ _______ _______ _____ _____    ______ ____
ROOT
ATOM      1  C   UNL     1       0.823   7.281   2.416  0.00  0.00    +0.109 A 
ATOM      2  C   UNL     1       2.021   7.105   3.085  0.00  0.00    +0.030 A 
ATOM      3  C   UNL     1       2.017   6.884   4.448  0.00  0.00    +0.025 A 
ATOM      4  C   UNL     1       0.814   6.840   5.142  0.00  0.00    +0.031 A 
ATOM      5  C   UNL     1      -0.389   7.018   4.476  0.00  0.00    -0.018 A 
ATOM      6  C   UNL     1      -0.372   7.244   3.106  0.00  0.00    +0.034 A 
ATOM      7  C   UNL     1      -1.707   6.983   5.181  0.00  0.00    +0.049 C 
ATOM      8  C   UNL     1      -2.444   5.693   4.910  0.00  0.00    -0.023 C 
ATOM      9  C   UNL     1      -3.096   5.309   5.980  0.00  0.00    -0.030 C 
ATOM     10  C   UNL     1      -2.887   6.295   7.112  0.00  0.00    +0.033 C 
ATOM     11  C   UNL     1      -1.569   7.025   6.716  0.00  0.00    +0.029 C 
ATOM     12  C   UNL     1      -0.392   6.151   7.158  0.00  0.00    +0.105 C 
ATOM     13  N   UNL     1       0.827   6.612   6.522  0.00  0.00    -0.336 N 
ATOM     14  H   UNL     1       1.630   6.764   7.044  0.00  0.00    +0.147 HD
ENDROOT
BRANCH  12  15
ATOM     15  C   UNL     1      -0.638   4.724   6.741  0.00  0.00    -0.026 A 
ATOM     16  C   UNL     1      -0.232   4.289   5.493  0.00  0.00    +0.005 A 
ATOM     17  C   UNL     1      -0.453   2.979   5.112  0.00  0.00    +0.002 A 
ATOM     18  C   UNL     1      -1.089   2.105   5.974  0.00  0.00    +0.020 A 
ATOM     19  C   UNL     1      -1.500   2.541   7.221  0.00  0.00    +0.041 A 
ATOM     20  C   UNL     1      -1.274   3.852   7.604  0.00  0.00    +0.025 A 
ATOM     21 CL   UNL     1      -2.300   1.445   8.304  0.00  0.00    -0.084 Cl
ENDBRANCH  12  15
BRANCH   1  22
ATOM     22  S   UNL     1       0.823   7.562   0.677  0.00  0.00    +0.072 S 
ATOM     23  O   UNL     1       2.097   8.101   0.352  0.00  0.00    -0.150 OA
ATOM     24  O   UNL     1      -0.390   8.239   0.375  0.00  0.00    -0.150 OA
BRANCH  22  25
ATOM     25  N   UNL     1       0.734   6.081  -0.058  0.00  0.00    -0.216 N 
ATOM     26  H   UNL     1       1.441   5.793  -0.657  0.00  0.00    +0.174 HD
BRANCH  25  36
ATOM     27  C   UNL     1       0.106   1.093   0.380  0.00  0.00    +0.001 A 
ATOM     28  C   UNL     1       1.210   1.908   0.138  0.00  0.00    +0.001 A 
ATOM     29  C   UNL     1       1.080   3.262   0.070  0.00  0.00    +0.010 A 
ATOM     30  C   UNL     1      -0.183   3.848   0.247  0.00  0.00    +0.004 A 
ATOM     31  C   UNL     1      -1.307   3.021   0.493  0.00  0.00    -0.016 A 
ATOM     32  C   UNL     1      -1.135   1.627   0.551  0.00  0.00    +0.008 A 
ATOM     33  C   UNL     1      -2.572   3.606   0.669  0.00  0.00    +0.008 A 
ATOM     34  C   UNL     1      -2.710   4.959   0.602  0.00  0.00    +0.002 A 
ATOM     35  C   UNL     1      -1.615   5.782   0.360  0.00  0.00    +0.025 A 
ATOM     36  C   UNL     1      -0.357   5.248   0.183  0.00  0.00    +0.056 A 
ENDBRANCH  25  36
ENDBRANCH  22  25
ENDBRANCH   1  22
TORSDOF 4
