REMARK  Name = ZINC59644772
REMARK  8 active torsions:
REMARK  status: ('A' for Active; 'I' for Inactive)
REMARK    1  A    between atoms: C_1  and  C_2
REMARK    2  A    between atoms: C_6  and  C_8
REMARK    3  A    between atoms: C_8  and  O_9
REMARK    4  A    between atoms: O_9  and  C_10
REMARK    5  A    between atoms: C_13  and  C_17
REMARK    6  A    between atoms: N_18  and  N_19
REMARK    7  A    between atoms: C_20  and  C_22
REMARK    8  A    between atoms: C_22  and  C_23
REMARK                            x       y       z     vdW  Elec       q    Type
REMARK                         _______ _______ _______ _____ _____    ______ ____
ROOT
ATOM      1  C   UNL     1       1.599  -3.745   4.055  0.00  0.00    +0.135 A 
ATOM      2  C   UNL     1       0.505  -4.190   4.786  0.00  0.00    +0.047 A 
ATOM      3  C   UNL     1       0.696  -4.878   5.965  0.00  0.00    +0.013 A 
ATOM      4  C   UNL     1       1.992  -5.127   6.425  0.00  0.00    -0.004 A 
ATOM      5  C   UNL     1       3.089  -4.677   5.686  0.00  0.00    +0.028 A 
ATOM      6  C   UNL     1       2.889  -3.995   4.505  0.00  0.00    +0.060 A 
ATOM      7 BR   UNL     1       4.373  -3.393   3.499  0.00  0.00    -0.046 Br
ENDROOT
BRANCH   4   8
ATOM      8  C   UNL     1       2.200  -5.862   7.686  0.00  0.00    +0.138 C 
ATOM      9  N   UNL     1       3.405  -6.092   8.111  0.00  0.00    -0.188 NA
BRANCH   9  10
ATOM     10  N   UNL     1       3.603  -6.790   9.309  0.00  0.00    -0.207 N 
ATOM     11  C   UNL     1       4.853  -7.030   9.751  0.00  0.00    +0.238 C 
ATOM     12  O   UNL     1       5.808  -6.641   9.111  0.00  0.00    -0.274 OA
ATOM     13  H   UNL     1       2.840  -7.101   9.821  0.00  0.00    +0.177 HD
BRANCH  11  14
ATOM     14  C   UNL     1       5.066  -7.781  11.040  0.00  0.00    +0.153 C 
BRANCH  14  15
ATOM     15  C   UNL     1       6.544  -7.914  11.306  0.00  0.00    +0.059 A 
ATOM     16  C   UNL     1       7.094  -7.494  12.470  0.00  0.00    +0.072 A 
ATOM     17  S   UNL     1       8.809  -7.905  12.197  0.00  0.00    -0.061 S 
ATOM     18  C   UNL     1       8.649  -8.558  10.654  0.00  0.00    +0.156 A 
ATOM     19  N   UNL     1       7.359  -8.450  10.415  0.00  0.00    -0.230 NA
ATOM     20  N   UNL     1       9.635  -9.086   9.835  0.00  0.00    -0.338 N 
ATOM     21  H   UNL     1      10.556  -9.109  10.139  0.00  0.00    +0.144 HD
ATOM     22  H   UNL     1       9.405  -9.432   8.959  0.00  0.00    +0.144 HD
ENDBRANCH  14  15
ENDBRANCH  11  14
ENDBRANCH   9  10
ENDBRANCH   4   8
BRANCH   1  23
ATOM     23  O   UNL     1       1.406  -3.067   2.893  0.00  0.00    -0.486 OA
BRANCH  23  24
ATOM     24  C   UNL     1       0.054  -2.845   2.489  0.00  0.00    +0.264 C 
BRANCH  24  30
ATOM     25  C   UNL     1      -0.018   1.503   0.010  0.00  0.00    +0.044 C 
ATOM     26  C   UNL     1       0.002  -0.004   0.002  0.00  0.00    -0.050 A 
ATOM     27  C   UNL     1       0.006  -0.689  -1.199  0.00  0.00    +0.003 A 
ATOM     28  C   UNL     1       0.025  -2.071  -1.207  0.00  0.00    +0.001 A 
ATOM     29  C   UNL     1       0.040  -2.768  -0.013  0.00  0.00    +0.007 A 
ATOM     30  C   UNL     1       0.037  -2.084   1.188  0.00  0.00    -0.010 A 
ATOM     31  C   UNL     1       0.023  -0.702   1.195  0.00  0.00    +0.010 A 
ENDBRANCH  24  30
ENDBRANCH  23  24
ENDBRANCH   1  23
TORSDOF 7
