REMARK  Name = ZINC67129751
REMARK  8 active torsions:
REMARK  status: ('A' for Active; 'I' for Inactive)
REMARK    1  A    between atoms: C_1  and  C_2
REMARK    2  A    between atoms: C_2  and  C_3
REMARK    3  A    between atoms: C_3  and  C_5
REMARK    4  A    between atoms: C_3  and  C_6
REMARK    5  A    between atoms: C_6  and  C_8
REMARK    6  A    between atoms: C_6  and  N_11
REMARK    7  A    between atoms: C_12  and  C_14
REMARK    8  A    between atoms: C_18  and  N_20
REMARK                            x       y       z     vdW  Elec       q    Type
REMARK                         _______ _______ _______ _____ _____    ______ ____
ROOT
ATOM      1  C   UNL     1       3.790  -4.049   2.959  0.00  0.00    +0.039 A 
ATOM      2  C   UNL     1       3.375  -3.874   4.280  0.00  0.00    +0.013 A 
ATOM      3  C   UNL     1       3.750  -4.784   5.248  0.00  0.00    +0.003 A 
ATOM      4  C   UNL     1       4.536  -5.870   4.913  0.00  0.00    +0.025 A 
ATOM      5  C   UNL     1       4.955  -6.053   3.601  0.00  0.00    +0.057 A 
ATOM      6  C   UNL     1       4.578  -5.148   2.620  0.00  0.00    +0.038 A 
ENDROOT
BRANCH   5   7
ATOM      7  N   UNL     1       5.751  -7.155   3.267  0.00  0.00    -0.188 N 
ATOM      8  C   UNL     1       5.417  -7.928   2.213  0.00  0.00    +0.240 C 
ATOM      9  O   UNL     1       4.407  -7.706   1.580  0.00  0.00    -0.273 OA
ATOM     10  C   UNL     1       6.330  -9.081   1.835  0.00  0.00    +0.093 C 
ATOM     11  C   UNL     1       6.027 -10.236   2.797  0.00  0.00    +0.040 C 
ATOM     12  C   UNL     1       7.129 -11.248   2.789  0.00  0.00    -0.030 C 
ATOM     13  C   UNL     1       8.321 -11.025   2.340  0.00  0.00    -0.030 C 
ATOM     14  C   UNL     1       8.755  -9.720   1.744  0.00  0.00    +0.040 C 
ATOM     15  C   UNL     1       7.772  -8.604   2.051  0.00  0.00    +0.092 C 
ATOM     16  C   UNL     1       7.920  -8.120   3.467  0.00  0.00    +0.234 C 
ATOM     17  O   UNL     1       8.939  -8.328   4.090  0.00  0.00    -0.274 OA
ATOM     18  N   UNL     1       6.894  -7.444   4.028  0.00  0.00    -0.227 N 
ATOM     19  H   UNL     1       6.947  -7.162   4.954  0.00  0.00    +0.173 HD
ENDBRANCH   5   7
BRANCH   1  21
ATOM     20  N   UNL     1       2.628  -2.014   2.250  0.00  0.00    -0.300 N 
ATOM     21  C   UNL     1       3.390  -3.075   1.921  0.00  0.00    +0.245 C 
ATOM     22  O   UNL     1       3.748  -3.232   0.770  0.00  0.00    -0.270 OA
ATOM     23  H   UNL     1       2.342  -1.888   3.169  0.00  0.00    +0.150 HD
BRANCH  20  24
ATOM     24  C   UNL     1       2.231  -1.049   1.221  0.00  0.00    +0.162 C 
BRANCH  24  25
ATOM     25  C   UNL     1       0.989  -1.541   0.524  0.00  0.00    +0.231 C 
ATOM     26  O   UNL     1       0.287  -2.377   1.052  0.00  0.00    -0.274 OA
ATOM     27  N   UNL     1       0.659  -1.052  -0.688  0.00  0.00    -0.328 N 
ATOM     28  H   UNL     1       1.173  -0.326  -1.075  0.00  0.00    +0.145 HD
ATOM     29  H   UNL     1      -0.093  -1.426  -1.173  0.00  0.00    +0.145 HD
ENDBRANCH  24  25
BRANCH  24  30
ATOM     30  C   UNL     1       1.946   0.305   1.875  0.00  0.00    +0.015 C 
ATOM     31  C   UNL     1       3.202   0.796   2.598  0.00  0.00    +0.010 C 
BRANCH  30  33
ATOM     32  C   UNL     1       0.406   1.536   3.409  0.00  0.00    +0.004 C 
ATOM     33  C   UNL     1       0.804   0.156   2.881  0.00  0.00    +0.002 C 
ENDBRANCH  30  33
ENDBRANCH  24  30
ENDBRANCH  20  24
ENDBRANCH   1  21
TORSDOF 6
