REMARK  Name = ZINC04210075
REMARK  8 active torsions:
REMARK  status: ('A' for Active; 'I' for Inactive)
REMARK    1  A    between atoms: C_1  and  C_2
REMARK    2  A    between atoms: C_2  and  O_3
REMARK    3  A    between atoms: O_3  and  C_4
REMARK    4  A    between atoms: C_8  and  C_10
REMARK    5  A    between atoms: N_11  and  N_12
REMARK    6  A    between atoms: C_13  and  C_15
REMARK    7  A    between atoms: N_17  and  C_18
REMARK    8  A    between atoms: C_19  and  C_27
REMARK                            x       y       z     vdW  Elec       q    Type
REMARK                         _______ _______ _______ _____ _____    ______ ____
ROOT
ATOM      1  N   UNL     1      -2.986   8.955  -4.520  0.00  0.00    -0.199 N 
ATOM      2  C   UNL     1      -2.667   8.664  -3.244  0.00  0.00    +0.318 C 
ATOM      3  O   UNL     1      -2.683   9.537  -2.399  0.00  0.00    -0.263 OA
ATOM      4  H   UNL     1      -2.974   8.258  -5.194  0.00  0.00    +0.178 HD
ENDROOT
BRANCH   2   5
ATOM      5  C   UNL     1      -2.296   7.270  -2.868  0.00  0.00    +0.305 C 
ATOM      6  O   UNL     1      -2.281   6.397  -3.712  0.00  0.00    -0.265 OA
ATOM      7  N   UNL     1      -1.978   6.979  -1.591  0.00  0.00    -0.271 N 
ATOM      8  H   UNL     1      -1.990   7.676  -0.917  0.00  0.00    +0.156 HD
BRANCH   7   9
ATOM      9  C   UNL     1      -1.633   5.684  -1.242  0.00  0.00    +0.090 A 
ATOM     10  C   UNL     1      -1.276   5.182   0.004  0.00  0.00    +0.084 A 
ATOM     11  C   UNL     1      -0.956   3.769   0.100  0.00  0.00    -0.018 A 
ATOM     12  C   UNL     1      -1.036   3.058  -1.048  0.00  0.00    -0.004 A 
ATOM     13  S   UNL     1      -1.533   4.234  -2.277  0.00  0.00    -0.077 S 
ATOM     14  C   UNL     1      -0.762   1.598  -1.231  0.00  0.00    +0.043 C 
ATOM     15  C   UNL     1      -0.013   1.086   0.008  0.00  0.00    +0.005 C 
ATOM     16  C   UNL     1      -0.736   1.583   1.263  0.00  0.00    +0.005 C 
ATOM     17  C   UNL     1      -0.551   3.093   1.407  0.00  0.00    +0.037 C 
BRANCH  10  18
ATOM     18  C   UNL     1      -1.225   6.032   1.156  0.00  0.00    +0.102 C 
ATOM     19  N   UNL     1      -1.184   6.706   2.070  0.00  0.00    -0.191 NA
ENDBRANCH  10  18
ENDBRANCH   7   9
ENDBRANCH   2   5
BRANCH   1  21
ATOM     20  C   UNL     1      -3.642  10.546  -6.104  0.00  0.00    +0.139 C 
ATOM     21  N   UNL     1      -3.335  10.265  -4.873  0.00  0.00    -0.187 NA
BRANCH  20  26
ATOM     22  C   UNL     1      -4.682  13.527  -8.139  0.00  0.00    +0.121 A 
ATOM     23  C   UNL     1      -4.698  14.521  -7.169  0.00  0.00    +0.047 A 
ATOM     24  C   UNL     1      -4.372  14.222  -5.859  0.00  0.00    +0.019 A 
ATOM     25  C   UNL     1      -4.028  12.932  -5.506  0.00  0.00    +0.027 A 
ATOM     26  C   UNL     1      -4.009  11.925  -6.476  0.00  0.00    +0.012 A 
ATOM     27  C   UNL     1      -4.335  12.231  -7.799  0.00  0.00    +0.056 A 
ATOM     28 BR   UNL     1      -3.582  12.528  -3.713  0.00  0.00    -0.050 Br
BRANCH  22  29
ATOM     29  O   UNL     1      -5.004  13.828  -9.425  0.00  0.00    -0.492 OA
BRANCH  29  31
ATOM     30  C   UNL     1      -5.676  15.332 -11.194  0.00  0.00    +0.048 C 
ATOM     31  C   UNL     1      -5.347  15.186  -9.707  0.00  0.00    +0.225 C 
ENDBRANCH  29  31
ENDBRANCH  22  29
ENDBRANCH  20  26
ENDBRANCH   1  21
TORSDOF 7
