REMARK  Name = ZINC11061964
REMARK  7 active torsions:
REMARK  status: ('A' for Active; 'I' for Inactive)
REMARK    1  A    between atoms: C_1  and  C_2
REMARK    2  A    between atoms: C_16  and  C_17
REMARK    3  A    between atoms: C_17  and  O_19
REMARK    4  A    between atoms: O_19  and  C_20
REMARK    5  A    between atoms: C_20  and  C_21
REMARK    6  A    between atoms: N_23  and  C_24
REMARK    7  A    between atoms: C_25  and  C_33
REMARK                            x       y       z     vdW  Elec       q    Type
REMARK                         _______ _______ _______ _____ _____    ______ ____
ROOT
ATOM      1  C   UNL     1      -3.298   9.858  -5.263  0.00  0.00    +0.347 C 
ATOM      2  O   UNL     1      -3.361  10.840  -4.547  0.00  0.00    -0.244 OA
ENDROOT
BRANCH   1  18
ATOM      3  C   UNL     1      -4.119  12.408  -6.698  0.00  0.00    +0.046 C 
ATOM      4  C   UNL     1      -3.980  11.080  -7.395  0.00  0.00    -0.015 A 
ATOM      5  C   UNL     1      -4.232  10.979  -8.765  0.00  0.00    +0.076 A 
ATOM      6  C   UNL     1      -4.074   9.691  -9.327  0.00  0.00    +0.116 A 
ATOM      7  N   UNL     1      -4.282   9.459 -10.617  0.00  0.00    -0.226 NA
ATOM      8  C   UNL     1      -4.644  10.407 -11.435  0.00  0.00    +0.114 A 
ATOM      9  N   UNL     1      -4.830  11.690 -11.008  0.00  0.00    -0.296 N 
ATOM     10  C   UNL     1      -4.646  12.031  -9.721  0.00  0.00    +0.263 A 
ATOM     11  O   UNL     1      -4.817  13.179  -9.349  0.00  0.00    -0.267 OA
ATOM     12  C   UNL     1      -5.237  12.698 -11.995  0.00  0.00    +0.126 C 
ATOM     13  C   UNL     1      -6.705  12.483 -12.357  0.00  0.00    +0.022 C 
ATOM     14  C   UNL     1      -6.847  11.526 -13.528  0.00  0.00    +0.002 C 
ATOM     15  C   UNL     1      -6.373  10.124 -13.183  0.00  0.00    +0.008 C 
ATOM     16  C   UNL     1      -4.873  10.106 -12.898  0.00  0.00    +0.074 C 
ATOM     17  S   UNL     1      -3.581   8.698  -7.940  0.00  0.00    -0.062 S 
ATOM     18  C   UNL     1      -3.607   9.972  -6.690  0.00  0.00    +0.102 A 
ENDBRANCH   1  18
BRANCH   1  19
ATOM     19  O   UNL     1      -2.944   8.665  -4.742  0.00  0.00    -0.451 OA
BRANCH  19  20
ATOM     20  C   UNL     1      -2.653   8.627  -3.320  0.00  0.00    +0.328 C 
BRANCH  20  21
ATOM     21  C   UNL     1      -2.279   7.222  -2.922  0.00  0.00    +0.255 C 
ATOM     22  O   UNL     1      -2.260   6.341  -3.755  0.00  0.00    -0.272 OA
ATOM     23  N   UNL     1      -1.965   6.946  -1.641  0.00  0.00    -0.276 N 
ATOM     24  H   UNL     1      -1.980   7.652  -0.975  0.00  0.00    +0.155 HD
BRANCH  23  25
ATOM     25  C   UNL     1      -1.621   5.653  -1.274  0.00  0.00    +0.090 A 
ATOM     26  C   UNL     1      -1.271   5.177  -0.019  0.00  0.00    +0.084 A 
ATOM     27  C   UNL     1      -0.951   3.765   0.100  0.00  0.00    -0.018 A 
ATOM     28  C   UNL     1      -1.032   3.059  -1.049  0.00  0.00    -0.004 A 
ATOM     29  S   UNL     1      -1.524   4.240  -2.273  0.00  0.00    -0.077 S 
ATOM     30  C   UNL     1      -0.761   1.597  -1.232  0.00  0.00    +0.043 C 
ATOM     31  C   UNL     1      -0.013   1.086   0.008  0.00  0.00    +0.005 C 
ATOM     32  C   UNL     1      -0.735   1.583   1.264  0.00  0.00    +0.005 C 
ATOM     33  C   UNL     1      -0.551   3.094   1.407  0.00  0.00    +0.037 C 
BRANCH  26  34
ATOM     34  C   UNL     1      -1.226   6.046   1.118  0.00  0.00    +0.102 C 
ATOM     35  N   UNL     1      -1.191   6.736   2.020  0.00  0.00    -0.191 NA
ENDBRANCH  26  34
ENDBRANCH  23  25
ENDBRANCH  20  21
ENDBRANCH  19  20
ENDBRANCH   1  19
TORSDOF 6
