REMARK  Name = ZINC22057970
REMARK  5 active torsions:
REMARK  status: ('A' for Active; 'I' for Inactive)
REMARK    1  A    between atoms: C_6  and  C_7
REMARK    2  A    between atoms: C_7  and  N_8
REMARK    3  A    between atoms: N_11  and  C_14
REMARK    4  A    between atoms: C_14  and  C_15
REMARK    5  A    between atoms: N_17  and  C_18
REMARK                            x       y       z     vdW  Elec       q    Type
REMARK                         _______ _______ _______ _____ _____    ______ ____
ROOT
ATOM      1  N   UNL     1       5.929  -1.048   1.050  0.00  0.00    -0.302 NA
ATOM      2  C   UNL     1       5.792  -2.497   0.845  0.00  0.00    +0.066 C 
ATOM      3  C   UNL     1       6.732  -2.942  -0.278  0.00  0.00    -0.063 C 
ATOM      4  N   UNL     1       8.114  -2.592   0.077  0.00  0.00    +0.387 N 
ATOM      5  C   UNL     1       8.252  -1.143   0.282  0.00  0.00    -0.063 C 
ATOM      6  C   UNL     1       7.311  -0.698   1.405  0.00  0.00    +0.066 C 
ATOM      7  H   UNL     1       8.360  -3.094   1.024  0.00  0.00    -0.081 HD
ENDROOT
BRANCH   1   8
ATOM      8  C   UNL     1       4.986  -0.570   2.070  0.00  0.00    +0.119 C 
BRANCH   8  14
ATOM      9  C   UNL     1       2.881  -1.895   1.802  0.00  0.00    +0.009 A 
ATOM     10  C   UNL     1       1.587  -2.042   1.339  0.00  0.00    +0.050 A 
ATOM     11  C   UNL     1       0.983  -1.014   0.633  0.00  0.00    +0.166 A 
ATOM     12  C   UNL     1       1.682   0.166   0.392  0.00  0.00    +0.167 A 
ATOM     13  C   UNL     1       2.979   0.306   0.859  0.00  0.00    +0.054 A 
ATOM     14  C   UNL     1       3.576  -0.724   1.563  0.00  0.00    -0.030 A 
ATOM     15  O   UNL     1       0.878   1.013  -0.314  0.00  0.00    -0.453 OA
ATOM     16  C   UNL     1      -0.458   0.502  -0.150  0.00  0.00    +0.466 C 
ATOM     17  O   UNL     1      -0.260  -0.906   0.078  0.00  0.00    -0.453 OA
ENDBRANCH   8  14
ENDBRANCH   1   8
BRANCH   4  18
ATOM     18  C   UNL     1       9.057  -3.071  -0.943  0.00  0.00    +0.019 C 
BRANCH  18  19
ATOM     19  C   UNL     1      10.467  -2.929  -0.430  0.00  0.00    +0.201 C 
ATOM     20  O   UNL     1      10.663  -2.584   0.716  0.00  0.00    -0.278 OA
ATOM     21  N   UNL     1      11.509  -3.186  -1.245  0.00  0.00    -0.286 N 
ATOM     22  H   UNL     1      11.333  -3.429  -2.303  0.00  0.00    +0.155 HD
BRANCH  21  23
ATOM     23  C   UNL     1      12.817  -3.143  -0.744  0.00  0.00    +0.051 A 
ATOM     24  C   UNL     1      13.149  -2.239   0.255  0.00  0.00    +0.073 A 
ATOM     25  C   UNL     1      14.442  -2.197   0.752  0.00  0.00    +0.164 A 
ATOM     26  C   UNL     1      15.406  -3.063   0.248  0.00  0.00    +0.163 A 
ATOM     27  C   UNL     1      15.072  -3.965  -0.751  0.00  0.00    +0.066 A 
ATOM     28  C   UNL     1      13.781  -4.010  -1.243  0.00  0.00    +0.043 A 
ATOM     29 BR   UNL     1      13.329  -5.246  -2.600  0.00  0.00    -0.048 Br
ATOM     30  O   UNL     1      16.681  -3.039   0.726  0.00  0.00    -0.485 OA
ATOM     31  C   UNL     1      17.073  -1.873   1.458  0.00  0.00    +0.270 C 
ATOM     32  C   UNL     1      15.960  -1.539   2.461  0.00  0.00    +0.270 C 
ATOM     33  O   UNL     1      14.753  -1.301   1.728  0.00  0.00    -0.485 OA
ENDBRANCH  21  23
ENDBRANCH  18  19
ENDBRANCH   4  18
TORSDOF 5
