REMARK  Name = ZINC63362891
REMARK  8 active torsions:
REMARK  status: ('A' for Active; 'I' for Inactive)
REMARK    1  A    between atoms: C_1  and  C_2
REMARK    2  A    between atoms: C_13  and  C_29
REMARK    3  A    between atoms: N_20  and  C_23
REMARK    4  A    between atoms: C_23  and  C_24
REMARK    5  A    between atoms: C_24  and  O_25
REMARK    6  A    between atoms: C_24  and  O_27
REMARK    7  A    between atoms: O_25  and  C_26
REMARK    8  A    between atoms: O_27  and  C_28
REMARK                            x       y       z     vdW  Elec       q    Type
REMARK                         _______ _______ _______ _____ _____    ______ ____
ROOT
ATOM      1  C   UNL     1      -0.667   2.176  -0.164  0.00  0.00    +0.044 C 
ATOM      2  C   UNL     1      -0.206   0.749   0.140  0.00  0.00    +0.135 C 
ATOM      3  C   UNL     1       0.623   0.342  -1.036  0.00  0.00    +0.139 C 
ATOM      4  C   UNL     1       1.922  -0.280  -0.552  0.00  0.00    -0.027 C 
ATOM      5  C   UNL     1       2.054  -1.430  -1.197  0.00  0.00    -0.000 A 
ATOM      6  C   UNL     1       3.134  -2.430  -1.214  0.00  0.00    +0.010 A 
ATOM      7  C   UNL     1       2.928  -3.521  -1.998  0.00  0.00    +0.001 A 
ATOM      8  C   UNL     1       1.771  -3.717  -2.758  0.00  0.00    +0.002 A 
ATOM      9  C   UNL     1       0.730  -2.847  -2.806  0.00  0.00    +0.026 A 
ATOM     10  C   UNL     1       0.831  -1.658  -2.027  0.00  0.00    +0.043 A 
ATOM     11  N   UNL     1       0.012  -0.675  -1.892  0.00  0.00    -0.375 N 
ATOM     12  C   UNL     1       2.742   0.377   0.531  0.00  0.00    +0.066 C 
ATOM     13  C   UNL     1       1.827   0.479   1.754  0.00  0.00    +0.121 C 
ATOM     14  N   UNL     1       0.458   0.833   1.428  0.00  0.00    -0.283 N 
ATOM     15  C   UNL     1      -0.340   1.257   2.464  0.00  0.00    +0.234 C 
ATOM     16  O   UNL     1       0.114   1.472   3.569  0.00  0.00    -0.274 OA
ATOM     17  C   UNL     1      -1.811   1.443   2.160  0.00  0.00    +0.203 C 
ATOM     18  N   UNL     1      -2.271   0.306   1.341  0.00  0.00    -0.286 N 
ATOM     19  C   UNL     1      -1.478  -0.046   0.284  0.00  0.00    +0.242 C 
ATOM     20  O   UNL     1      -1.777  -0.936  -0.484  0.00  0.00    -0.273 OA
ATOM     21  H   UNL     1      -0.867  -0.621  -2.299  0.00  0.00    +0.160 HD
ENDROOT
BRANCH  12  22
ATOM     22  C   UNL     1       3.948  -0.468   0.852  0.00  0.00    -0.020 A 
ATOM     23  C   UNL     1       3.788  -1.702   1.453  0.00  0.00    +0.006 A 
ATOM     24  C   UNL     1       4.894  -2.477   1.747  0.00  0.00    +0.000 A 
ATOM     25  C   UNL     1       6.161  -2.017   1.441  0.00  0.00    +0.001 A 
ATOM     26  C   UNL     1       6.323  -0.783   0.840  0.00  0.00    +0.020 A 
ATOM     27  C   UNL     1       5.216  -0.010   0.540  0.00  0.00    +0.045 A 
ATOM     28 CL   UNL     1       5.418   1.538  -0.221  0.00  0.00    -0.083 Cl
ENDBRANCH  12  22
BRANCH  18  29
ATOM     29  C   UNL     1      -3.513  -0.409   1.643  0.00  0.00    +0.169 C 
BRANCH  29  30
ATOM     30  C   UNL     1      -4.676   0.251   0.898  0.00  0.00    +0.266 C 
BRANCH  30  31
ATOM     31  O   UNL     1      -4.796   1.613   1.313  0.00  0.00    -0.353 OA
ATOM     32  C   UNL     1      -6.071   2.195   1.034  0.00  0.00    +0.197 C 
ENDBRANCH  30  31
BRANCH  30  33
ATOM     33  O   UNL     1      -4.428   0.203  -0.509  0.00  0.00    -0.353 OA
ATOM     34  C   UNL     1      -5.590   0.422  -1.311  0.00  0.00    +0.197 C 
ENDBRANCH  30  33
ENDBRANCH  29  30
ENDBRANCH  18  29
TORSDOF 5
