REMARK  Name = ZINC23322331
REMARK  10 active torsions:
REMARK  status: ('A' for Active; 'I' for Inactive)
REMARK    1  A    between atoms: C_1  and  C_2
REMARK    2  A    between atoms: C_4  and  C_34
REMARK    3  A    between atoms: N_9  and  N_10
REMARK    4  A    between atoms: N_10  and  C_11
REMARK    5  A    between atoms: C_14  and  C_17
REMARK    6  A    between atoms: N_19  and  C_20
REMARK    7  A    between atoms: C_20  and  C_22
REMARK    8  A    between atoms: C_20  and  C_23
REMARK    9  A    between atoms: C_23  and  C_24
REMARK   10  A    between atoms: C_24  and  C_25
REMARK                            x       y       z     vdW  Elec       q    Type
REMARK                         _______ _______ _______ _____ _____    ______ ____
ROOT
ATOM      1  C   UNL     1       1.147  -2.025  -0.019  0.00  0.00    +0.048 A 
ATOM      2  C   UNL     1      -0.050  -2.736  -0.006  0.00  0.00    +0.025 A 
ATOM      3  C   UNL     1      -0.035  -4.112  -0.020  0.00  0.00    +0.015 A 
ATOM      4  C   UNL     1       1.184  -4.796  -0.034  0.00  0.00    +0.037 A 
ATOM      5  C   UNL     1       2.384  -4.079  -0.041  0.00  0.00    +0.015 A 
ATOM      6  C   UNL     1       2.362  -2.703  -0.034  0.00  0.00    +0.025 A 
ENDROOT
BRANCH   4   7
ATOM      7  C   UNL     1       1.204  -6.272  -0.042  0.00  0.00    +0.244 C 
ATOM      8  O   UNL     1       2.265  -6.865  -0.055  0.00  0.00    -0.270 OA
ATOM      9  N   UNL     1       0.046  -6.961  -0.035  0.00  0.00    -0.309 N 
ATOM     10  H   UNL     1      -0.914  -6.424  -0.024  0.00  0.00    +0.149 HD
BRANCH   9  11
ATOM     11  C   UNL     1       0.066  -8.426  -0.043  0.00  0.00    +0.070 C 
ATOM     12  C   UNL     1       0.212  -8.942   1.390  0.00  0.00    +0.028 C 
BRANCH  11  13
ATOM     13  C   UNL     1      -1.240  -8.951  -0.644  0.00  0.00    +0.026 C 
BRANCH  13  14
ATOM     14  C   UNL     1      -1.326  -8.539  -2.115  0.00  0.00    +0.037 C 
BRANCH  14  15
ATOM     15  C   UNL     1      -2.612  -9.056  -2.707  0.00  0.00    -0.047 A 
ATOM     16  C   UNL     1      -2.648 -10.304  -3.299  0.00  0.00    +0.003 A 
ATOM     17  C   UNL     1      -3.829 -10.780  -3.837  0.00  0.00    +0.000 A 
ATOM     18  C   UNL     1      -4.972 -10.003  -3.792  0.00  0.00    +0.000 A 
ATOM     19  C   UNL     1      -4.934  -8.752  -3.205  0.00  0.00    +0.000 A 
ATOM     20  C   UNL     1      -3.755  -8.279  -2.662  0.00  0.00    +0.003 A 
ENDBRANCH  14  15
ENDBRANCH  13  14
ENDBRANCH  11  13
ENDBRANCH   9  11
ENDBRANCH   4   7
BRANCH   1  21
ATOM     21  N   UNL     1       1.128  -0.634  -0.012  0.00  0.00    -0.237 N 
ATOM     22  H   UNL     1       2.073  -0.071  -0.017  0.00  0.00    +0.174 HD
BRANCH  21  31
ATOM     23  C   UNL     1      -4.940   2.757   0.060  0.00  0.00    +0.044 C 
ATOM     24  C   UNL     1      -3.455   3.014   0.048  0.00  0.00    -0.049 A 
ATOM     25  C   UNL     1      -2.978   4.314   0.050  0.00  0.00    +0.008 A 
ATOM     26  C   UNL     1      -1.621   4.565   0.039  0.00  0.00    -0.028 A 
ATOM     27  C   UNL     1      -0.716   3.509   0.026  0.00  0.00    +0.046 A 
ATOM     28  C   UNL     1      -1.203   2.195   0.019  0.00  0.00    +0.029 A 
ATOM     29  C   UNL     1      -2.572   1.953   0.035  0.00  0.00    +0.015 A 
ATOM     30  C   UNL     1      -0.016   1.310   0.009  0.00  0.00    +0.152 C 
ATOM     31  N   UNL     1       0.002  -0.004   0.002  0.00  0.00    -0.177 NA
ATOM     32  C   UNL     1       1.141   2.222   0.003  0.00  0.00    +0.269 C 
ATOM     33  O   UNL     1       2.313   1.893  -0.010  0.00  0.00    -0.268 OA
ATOM     34  N   UNL     1       0.674   3.482   0.013  0.00  0.00    -0.279 N 
ATOM     35  C   UNL     1      -1.118   5.986   0.041  0.00  0.00    +0.046 C 
ATOM     36  H   UNL     1       1.242   4.424   0.013  0.00  0.00    +0.155 HD
ENDBRANCH  21  31
ENDBRANCH   1  21
TORSDOF 7
