REMARK  Name = ZINC35872810
REMARK  6 active torsions:
REMARK  status: ('A' for Active; 'I' for Inactive)
REMARK    1  A    between atoms: C_1  and  C_2
REMARK    2  A    between atoms: N_6  and  C_16
REMARK    3  A    between atoms: C_10  and  N_15
REMARK    4  A    between atoms: C_16  and  C_17
REMARK    5  A    between atoms: C_20  and  O_23
REMARK    6  A    between atoms: O_23  and  C_24
REMARK                            x       y       z     vdW  Elec       q    Type
REMARK                         _______ _______ _______ _____ _____    ______ ____
ROOT
ATOM      1  C   UNL     1      -0.019   1.526   0.010  0.00  0.00    +0.062 C 
ATOM      2  C   UNL     1       0.002  -0.004   0.002  0.00  0.00    +0.256 C 
ATOM      3  C   UNL     1      -1.405  -0.517  -0.001  0.00  0.00    +0.257 C 
ATOM      4  O   UNL     1      -2.228   0.327  -0.287  0.00  0.00    -0.272 OA
ATOM      5  N   UNL     1      -1.910  -1.659   0.236  0.00  0.00    -0.290 N 
ATOM      6  C   UNL     1      -1.389  -2.848   0.825  0.00  0.00    +0.147 C 
ATOM      7  C   UNL     1       0.010  -2.843   1.357  0.00  0.00    +0.013 A 
ATOM      8  C   UNL     1       0.413  -4.096   1.844  0.00  0.00    +0.031 A 
ATOM      9  C   UNL     1       1.689  -4.305   2.326  0.00  0.00    +0.025 A 
ATOM     10  C   UNL     1       2.590  -3.247   2.315  0.00  0.00    +0.026 A 
ATOM     11  C   UNL     1       2.182  -2.023   1.855  0.00  0.00    +0.048 A 
ATOM     12  C   UNL     1       0.861  -1.800   1.395  0.00  0.00    +0.126 A 
ATOM     13  O   UNL     1       0.697  -0.467   1.142  0.00  0.00    -0.480 OA
ENDROOT
BRANCH   9  14
ATOM     14  N   UNL     1       2.069  -5.559   2.818  0.00  0.00    -0.358 N 
ATOM     15  H   UNL     1       1.432  -6.291   2.822  0.00  0.00    +0.142 HD
ATOM     16  H   UNL     1       2.968  -5.696   3.155  0.00  0.00    +0.142 HD
ENDBRANCH   9  14
BRANCH   5  17
ATOM     17  C   UNL     1      -3.310  -1.777  -0.179  0.00  0.00    +0.143 C 
BRANCH  17  18
ATOM     18  C   UNL     1      -3.372  -2.268  -1.602  0.00  0.00    -0.030 A 
ATOM     19  C   UNL     1      -3.374  -1.360  -2.645  0.00  0.00    +0.009 A 
ATOM     20  C   UNL     1      -3.432  -1.808  -3.951  0.00  0.00    +0.046 A 
ATOM     21  C   UNL     1      -3.487  -3.169  -4.215  0.00  0.00    +0.120 A 
ATOM     22  C   UNL     1      -3.484  -4.077  -3.166  0.00  0.00    +0.046 A 
ATOM     23  C   UNL     1      -3.421  -3.624  -1.863  0.00  0.00    +0.009 A 
BRANCH  21  24
ATOM     24  O   UNL     1      -3.544  -3.611  -5.499  0.00  0.00    -0.495 OA
ATOM     25  C   UNL     1      -3.599  -5.026  -5.695  0.00  0.00    +0.277 C 
ENDBRANCH  21  24
ENDBRANCH  17  18
ENDBRANCH   5  17
TORSDOF 4
