REMARK  Name = ZINC53755295
REMARK  6 active torsions:
REMARK  status: ('A' for Active; 'I' for Inactive)
REMARK    1  A    between atoms: C_2  and  C_3
REMARK    2  A    between atoms: C_3  and  N_4
REMARK    3  A    between atoms: N_4  and  C_5
REMARK    4  A    between atoms: C_5  and  N_7
REMARK    5  A    between atoms: N_7  and  N_8
REMARK    6  A    between atoms: C_9  and  C_11
REMARK                            x       y       z     vdW  Elec       q    Type
REMARK                         _______ _______ _______ _____ _____    ______ ____
ROOT
ATOM      1  N   UNL     1       1.419  -3.401   3.217  0.00  0.00    -0.231 N 
ATOM      2  C   UNL     1       1.465  -4.262   4.253  0.00  0.00    +0.267 C 
ATOM      3  O   UNL     1       2.449  -4.959   4.422  0.00  0.00    -0.268 OA
ATOM      4  H   UNL     1       0.635  -2.846   3.082  0.00  0.00    +0.173 HD
ENDROOT
BRANCH   2   5
ATOM      5  C   UNL     1       0.332  -4.360   5.175  0.00  0.00    +0.076 A 
ATOM      6  C   UNL     1       0.185  -5.169   6.293  0.00  0.00    +0.028 A 
ATOM      7  C   UNL     1      -0.969  -5.104   7.028  0.00  0.00    +0.005 A 
ATOM      8  C   UNL     1      -1.939  -4.195   6.580  0.00  0.00    +0.030 A 
ATOM      9  S   UNL     1      -1.215  -3.461   5.153  0.00  0.00    -0.083 S 
ATOM     10  C   UNL     1      -3.212  -4.010   7.266  0.00  0.00    +0.031 A 
ATOM     11  C   UNL     1      -4.294  -3.332   6.727  0.00  0.00    +0.012 A 
ATOM     12  C   UNL     1      -5.465  -3.226   7.454  0.00  0.00    +0.001 A 
ATOM     13  C   UNL     1      -5.555  -3.795   8.713  0.00  0.00    +0.004 A 
ATOM     14  C   UNL     1      -4.480  -4.467   9.262  0.00  0.00    +0.046 A 
ATOM     15  C   UNL     1      -3.296  -4.578   8.557  0.00  0.00    +0.129 A 
ATOM     16  O   UNL     1      -2.213  -5.193   9.088  0.00  0.00    -0.487 OA
ATOM     17  C   UNL     1      -1.297  -5.921   8.273  0.00  0.00    +0.265 C 
ENDBRANCH   2   5
BRANCH   1  18
ATOM     18  N   UNL     1       2.503  -3.308   2.335  0.00  0.00    -0.246 N 
ATOM     19  H   UNL     1       3.287  -3.863   2.469  0.00  0.00    +0.172 HD
BRANCH  18  20
ATOM     20  C   UNL     1       2.457  -2.447   1.299  0.00  0.00    +0.147 C 
ATOM     21  S   UNL     1       3.782  -2.333   0.221  0.00  0.00    -0.017 S 
BRANCH  20  22
ATOM     22  N   UNL     1       1.367  -1.676   1.111  0.00  0.00    -0.322 N 
ATOM     23  H   UNL     1       0.617  -1.740   1.722  0.00  0.00    +0.148 HD
BRANCH  22  24
ATOM     24  C   UNL     1       1.317  -0.740  -0.015  0.00  0.00    +0.130 C 
BRANCH  24  26
ATOM     25  C   UNL     1      -0.016   1.306   0.009  0.00  0.00    +0.005 C 
ATOM     26  C   UNL     1       0.002  -0.004   0.002  0.00  0.00    -0.016 C 
ENDBRANCH  24  26
ENDBRANCH  22  24
ENDBRANCH  20  22
ENDBRANCH  18  20
ENDBRANCH   1  18
TORSDOF 6
