REMARK  Name = ZINC67285698
REMARK  12 active torsions:
REMARK  status: ('A' for Active; 'I' for Inactive)
REMARK    1  A    between atoms: C_1  and  C_2
REMARK    2  A    between atoms: C_2  and  O_3
REMARK    3  A    between atoms: O_3  and  C_4
REMARK    4  A    between atoms: C_6  and  C_11
REMARK    5  A    between atoms: C_9  and  O_10
REMARK    6  A    between atoms: C_13  and  C_33
REMARK    7  A    between atoms: C_14  and  C_19
REMARK    8  A    between atoms: C_19  and  N_20
REMARK    9  A    between atoms: N_23  and  C_26
REMARK   10  A    between atoms: C_30  and  C_32
REMARK   11  A    between atoms: C_33  and  O_35
REMARK   12  A    between atoms: O_35  and  C_36
REMARK                            x       y       z     vdW  Elec       q    Type
REMARK                         _______ _______ _______ _____ _____    ______ ____
ROOT
ATOM      1  C   UNL     1      -0.300  -4.922   0.417  0.00  0.00    +0.144 C 
ATOM      2  C   UNL     1       0.837  -5.257   1.362  0.00  0.00    +0.079 C 
ATOM      3  C   UNL     1       1.181  -6.556   1.495  0.00  0.00    +0.038 C 
ATOM      4  N   UNL     1       0.527  -7.533   0.801  0.00  0.00    -0.271 N 
ATOM      5  C   UNL     1      -0.482  -7.294  -0.046  0.00  0.00    +0.304 C 
ATOM      6  O   UNL     1      -1.004  -8.230  -0.619  0.00  0.00    -0.252 OA
ATOM      7  N   UNL     1      -0.938  -6.049  -0.284  0.00  0.00    -0.288 N 
ATOM      8  H   UNL     1       0.809  -8.452   0.928  0.00  0.00    +0.156 HD
ATOM      9  H   UNL     1      -1.671  -5.898  -0.901  0.00  0.00    +0.151 HD
ENDROOT
BRANCH   1  12
ATOM     10  C   UNL     1       0.529  -1.726  -1.421  0.00  0.00    +0.162 A 
ATOM     11  C   UNL     1       0.045  -2.606  -0.466  0.00  0.00    +0.055 A 
ATOM     12  C   UNL     1       0.228  -3.967  -0.623  0.00  0.00    -0.019 A 
ATOM     13  C   UNL     1       0.893  -4.454  -1.733  0.00  0.00    +0.009 A 
ATOM     14  C   UNL     1       1.379  -3.583  -2.690  0.00  0.00    +0.049 A 
ATOM     15  C   UNL     1       1.194  -2.217  -2.541  0.00  0.00    +0.158 A 
BRANCH  15  16
ATOM     16  O   UNL     1       1.666  -1.359  -3.484  0.00  0.00    -0.503 OA
ATOM     17  H   UNL     1       2.571  -1.057  -3.324  0.00  0.00    +0.292 HD
ENDBRANCH  15  16
BRANCH  10  18
ATOM     18  O   UNL     1       0.350  -0.387  -1.267  0.00  0.00    -0.489 OA
BRANCH  18  20
ATOM     19  C   UNL     1      -0.445   1.571  -0.095  0.00  0.00    +0.048 C 
ATOM     20  C   UNL     1      -0.341   0.045  -0.093  0.00  0.00    +0.226 C 
ENDBRANCH  18  20
ENDBRANCH  10  18
ENDBRANCH   1  12
BRANCH   2  21
ATOM     21  C   UNL     1       1.514  -4.243   2.080  0.00  0.00    +0.339 C 
ATOM     22  O   UNL     1       0.982  -3.720   3.041  0.00  0.00    -0.245 OA
BRANCH  21  23
ATOM     23  O   UNL     1       2.749  -3.856   1.698  0.00  0.00    -0.465 OA
ATOM     24  C   UNL     1       3.373  -2.828   2.469  0.00  0.00    +0.280 C 
ENDBRANCH  21  23
ENDBRANCH   2  21
BRANCH   3  25
ATOM     25  C   UNL     1       2.306  -6.933   2.424  0.00  0.00    +0.136 C 
BRANCH  25  26
ATOM     26  N   UNL     1       1.780  -7.758   3.519  0.00  0.00    -0.294 NA
ATOM     27  C   UNL     1       0.862  -6.986   4.367  0.00  0.00    +0.103 C 
ATOM     28  C   UNL     1       0.199  -7.923   5.382  0.00  0.00    +0.120 C 
ATOM     29  N   UNL     1       1.254  -8.647   6.107  0.00  0.00    -0.327 N 
ATOM     30  C   UNL     1       2.292  -9.333   5.324  0.00  0.00    +0.120 C 
ATOM     31  C   UNL     1       2.873  -8.341   4.311  0.00  0.00    +0.103 C 
BRANCH  29  32
ATOM     32  C   UNL     1       1.269  -8.682   7.504  0.00  0.00    +0.030 A 
ATOM     33  C   UNL     1       0.215  -8.135   8.225  0.00  0.00    +0.023 A 
ATOM     34  C   UNL     1       0.234  -8.171   9.606  0.00  0.00    +0.002 A 
ATOM     35  C   UNL     1       1.299  -8.752  10.270  0.00  0.00    +0.003 A 
ATOM     36  C   UNL     1       2.349  -9.297   9.555  0.00  0.00    -0.049 A 
ATOM     37  C   UNL     1       2.335  -9.269   8.174  0.00  0.00    +0.026 A 
ATOM     38  C   UNL     1       3.509  -9.927  10.282  0.00  0.00    +0.044 C 
ENDBRANCH  29  32
ENDBRANCH  25  26
ENDBRANCH   3  25
TORSDOF 9
