REMARK  Name = ZINC32121368
REMARK  4 active torsions:
REMARK  status: ('A' for Active; 'I' for Inactive)
REMARK    1  A    between atoms: C_3  and  S_27
REMARK    2  A    between atoms: C_6  and  C_7
REMARK    3  A    between atoms: C_18  and  C_24
REMARK    4  A    between atoms: S_27  and  N_30
REMARK                            x       y       z     vdW  Elec       q    Type
REMARK                         _______ _______ _______ _____ _____    ______ ____
ROOT
ATOM      1  C   UNL     1       0.035   4.062   0.605  0.00  0.00    +0.105 C 
ATOM      2  C   UNL     1      -1.371   4.162   0.008  0.00  0.00    +0.029 C 
ATOM      3  C   UNL     1      -2.225   5.055   0.951  0.00  0.00    +0.033 C 
ATOM      4  C   UNL     1      -2.666   4.101   2.043  0.00  0.00    -0.030 C 
ATOM      5  C   UNL     1      -2.595   2.862   1.626  0.00  0.00    -0.023 C 
ATOM      6  C   UNL     1      -2.091   2.810   0.203  0.00  0.00    +0.049 C 
ATOM      7  C   UNL     1      -1.153   1.655   0.015  0.00  0.00    -0.017 A 
ATOM      8  C   UNL     1      -1.690   0.380   0.003  0.00  0.00    +0.021 A 
ATOM      9  C   UNL     1      -0.868  -0.736  -0.158  0.00  0.00    +0.065 A 
ATOM     10  C   UNL     1       0.512  -0.563  -0.309  0.00  0.00    +0.037 A 
ATOM     11  C   UNL     1       1.043   0.704  -0.299  0.00  0.00    +0.063 A 
ATOM     12  C   UNL     1       0.216   1.820  -0.138  0.00  0.00    +0.050 A 
ATOM     13  N   UNL     1       0.813   3.075  -0.143  0.00  0.00    -0.335 N 
ATOM     14 CL   UNL     1       2.756   0.920  -0.486  0.00  0.00    -0.082 Cl
ATOM     15  H   UNL     1       1.755   3.369  -0.628  0.00  0.00    +0.147 HD
ENDROOT
BRANCH   1  21
ATOM     16  C   UNL     1      -0.357   4.570   3.025  0.00  0.00    +0.007 A 
ATOM     17  C   UNL     1      -0.450   4.180   4.347  0.00  0.00    +0.029 A 
ATOM     18  C   UNL     1      -0.236   2.860   4.695  0.00  0.00    +0.105 A 
ATOM     19  C   UNL     1       0.066   1.928   3.719  0.00  0.00    +0.029 A 
ATOM     20  C   UNL     1       0.153   2.317   2.396  0.00  0.00    +0.007 A 
ATOM     21  C   UNL     1      -0.061   3.638   2.048  0.00  0.00    -0.027 A 
BRANCH  18  22
ATOM     22  S   UNL     1      -0.349   2.363   6.382  0.00  0.00    +0.061 S 
ATOM     23  O   UNL     1      -1.180   3.316   7.031  0.00  0.00    -0.153 OA
ATOM     24  O   UNL     1      -0.643   0.973   6.378  0.00  0.00    -0.153 OA
BRANCH  22  25
ATOM     25  N   UNL     1       1.161   2.525   7.042  0.00  0.00    -0.172 NA
ATOM     26  C   UNL     1       2.122   1.410   7.018  0.00  0.00    +0.137 C 
ATOM     27  C   UNL     1       3.453   1.937   6.458  0.00  0.00    +0.177 C 
ATOM     28  O   UNL     1       3.846   3.097   7.194  0.00  0.00    -0.377 OA
ATOM     29  C   UNL     1       2.936   4.194   7.087  0.00  0.00    +0.177 C 
ATOM     30  C   UNL     1       1.581   3.786   7.675  0.00  0.00    +0.137 C 
ENDBRANCH  22  25
ENDBRANCH  18  22
ENDBRANCH   1  21
BRANCH   9  31
ATOM     31  C   UNL     1      -1.451  -2.089  -0.170  0.00  0.00    +0.387 C 
ATOM     32  O   UNL     1      -2.650  -2.236  -0.039  0.00  0.00    -0.241 OA
ATOM     33  O   UNL     1      -0.654  -3.165  -0.325  0.00  0.00    -0.241 OA
ENDBRANCH   9  31
TORSDOF 4
