REMARK  Name = ZINC65107966
REMARK  5 active torsions:
REMARK  status: ('A' for Active; 'I' for Inactive)
REMARK    1  A    between atoms: C_4  and  O_20
REMARK    2  A    between atoms: C_5  and  N_7
REMARK    3  A    between atoms: C_8  and  C_10
REMARK    4  A    between atoms: C_12  and  C_16
REMARK    5  A    between atoms: O_20  and  C_21
REMARK                            x       y       z     vdW  Elec       q    Type
REMARK                         _______ _______ _______ _____ _____    ______ ____
ROOT
ATOM      1  N   UNL     1       1.460  -2.137   0.440  0.00  0.00    -0.277 N 
ATOM      2  C   UNL     1       0.404  -2.661   1.093  0.00  0.00    +0.267 C 
ATOM      3  O   UNL     1      -0.603  -1.997   1.255  0.00  0.00    -0.268 OA
ATOM      4  H   UNL     1       2.243  -2.682   0.267  0.00  0.00    +0.155 HD
ENDROOT
BRANCH   2   5
ATOM      5  C   UNL     1       0.468  -4.036   1.609  0.00  0.00    +0.135 A 
ATOM      6  C   UNL     1      -0.528  -4.716   2.292  0.00  0.00    +0.071 A 
ATOM      7  C   UNL     1       0.007  -5.977   2.567  0.00  0.00    +0.081 A 
ATOM      8  N   UNL     1       1.220  -6.014   2.077  0.00  0.00    -0.177 NA
ATOM      9  N   UNL     1       1.520  -4.903   1.508  0.00  0.00    -0.271 N 
ATOM     10  H   UNL     1       2.365  -4.708   1.073  0.00  0.00    +0.189 HD
ATOM     11 BR   UNL     1      -2.246  -4.074   2.753  0.00  0.00    -0.046 Br
BRANCH   7  12
ATOM     12  C   UNL     1      -0.689  -7.096   3.298  0.00  0.00    +0.041 C 
ATOM     13  C   UNL     1       0.145  -8.324   3.670  0.00  0.00    +0.010 C 
ATOM     14  C   UNL     1      -0.889  -8.414   2.546  0.00  0.00    +0.010 C 
ENDBRANCH   7  12
ENDBRANCH   2   5
BRANCH   1  19
ATOM     15  C   UNL     1       0.186   1.110  -0.730  0.00  0.00    +0.002 A 
ATOM     16  C   UNL     1       1.360   1.833  -0.837  0.00  0.00    +0.004 A 
ATOM     17  C   UNL     1       2.570   1.243  -0.521  0.00  0.00    +0.047 A 
ATOM     18  C   UNL     1       2.609  -0.075  -0.096  0.00  0.00    +0.142 A 
ATOM     19  C   UNL     1       1.427  -0.804   0.012  0.00  0.00    +0.076 A 
ATOM     20  C   UNL     1       0.216  -0.205  -0.306  0.00  0.00    +0.027 A 
BRANCH  18  21
ATOM     21  O   UNL     1       3.799  -0.656   0.214  0.00  0.00    -0.487 OA
BRANCH  21  22
ATOM     22  C   UNL     1       4.955   0.183   0.196  0.00  0.00    +0.174 C 
ATOM     23  C   UNL     1       5.552   0.230  -1.226  0.00  0.00    +0.044 C 
ATOM     24  C   UNL     1       7.083   0.262  -0.995  0.00  0.00    +0.004 C 
ATOM     25  C   UNL     1       7.266  -0.690   0.213  0.00  0.00    +0.004 C 
ATOM     26  C   UNL     1       6.045  -0.402   1.111  0.00  0.00    +0.044 C 
ENDBRANCH  21  22
ENDBRANCH  18  21
ENDBRANCH   1  19
TORSDOF 5
