REMARK  Name = ZINC49547948
REMARK  9 active torsions:
REMARK  status: ('A' for Active; 'I' for Inactive)
REMARK    1  A    between atoms: C_1  and  C_2
REMARK    2  A    between atoms: C_2  and  C_3
REMARK    3  A    between atoms: C_3  and  C_4
REMARK    4  A    between atoms: C_4  and  C_6
REMARK    5  A    between atoms: C_4  and  N_11
REMARK    6  A    between atoms: C_13  and  C_20
REMARK    7  A    between atoms: C_14  and  C_19
REMARK    8  A    between atoms: C_15  and  C_18
REMARK    9  A    between atoms: C_20  and  N_22
REMARK                            x       y       z     vdW  Elec       q    Type
REMARK                         _______ _______ _______ _____ _____    ______ ____
ROOT
ATOM      1  N   UNL     1      -0.809  -2.540   1.243  0.00  0.00    -0.320 N 
ATOM      2  C   UNL     1       0.565  -2.659   1.350  0.00  0.00    +0.151 A 
ATOM      3  C   UNL     1       1.153  -3.031   2.575  0.00  0.00    +0.049 A 
ATOM      4  C   UNL     1       2.549  -3.135   2.620  0.00  0.00    -0.015 A 
ATOM      5  C   UNL     1       3.256  -2.866   1.460  0.00  0.00    +0.064 A 
ATOM      6  N   UNL     1       2.618  -2.524   0.358  0.00  0.00    -0.152 NA
ATOM      7  N   UNL     1       1.340  -2.430   0.299  0.00  0.00    -0.133 NA
ATOM      8  C   UNL     1       4.760  -2.964   1.457  0.00  0.00    +0.068 C 
ATOM      9  C   UNL     1       3.259  -3.526   3.890  0.00  0.00    +0.046 C 
ATOM     10  H   UNL     1      -1.377  -2.791   1.989  0.00  0.00    +0.148 HD
ENDROOT
BRANCH   3  11
ATOM     11  C   UNL     1       0.328  -3.300   3.767  0.00  0.00    +0.081 C 
ATOM     12  S   UNL     1      -0.140  -4.905   4.140  0.00  0.00    -0.035 S 
BRANCH  11  13
ATOM     13  N   UNL     1      -0.059  -2.284   4.563  0.00  0.00    -0.352 N 
ATOM     14  H   UNL     1       0.265  -1.385   4.394  0.00  0.00    +0.143 HD
ATOM     15  H   UNL     1      -0.660  -2.450   5.306  0.00  0.00    +0.143 HD
ENDBRANCH  11  13
ENDBRANCH   3  11
BRANCH   1  16
ATOM     16  C   UNL     1      -1.407  -2.037   0.004  0.00  0.00    +0.109 C 
BRANCH  16  17
ATOM     17  C   UNL     1      -2.817  -2.552  -0.119  0.00  0.00    +0.010 A 
ATOM     18  C   UNL     1      -3.469  -3.002  -1.220  0.00  0.00    +0.013 A 
ATOM     19  C   UNL     1      -4.776  -3.433  -1.096  0.00  0.00    +0.008 A 
ATOM     20  C   UNL     1      -5.369  -3.393   0.123  0.00  0.00    +0.045 A 
ATOM     21  S   UNL     1      -4.062  -2.737   1.147  0.00  0.00    -0.100 S 
ENDBRANCH  16  17
BRANCH  16  22
ATOM     22  C   UNL     1      -1.424  -0.507   0.031  0.00  0.00    +0.027 C 
BRANCH  22  24
ATOM     23  C   UNL     1      -0.004   1.549   0.058  0.00  0.00    +0.004 C 
ATOM     24  C   UNL     1       0.013   0.019   0.031  0.00  0.00    -0.001 C 
ENDBRANCH  22  24
ENDBRANCH  16  22
ENDBRANCH   1  16
TORSDOF 6
