REMARK  Name = ZINC00629600
REMARK  5 active torsions:
REMARK  status: ('A' for Active; 'I' for Inactive)
REMARK    1  A    between atoms: C_1  and  C_2
REMARK    2  A    between atoms: C_9  and  C_11
REMARK    3  A    between atoms: C_14  and  N_17
REMARK    4  A    between atoms: N_17  and  S_18
REMARK    5  A    between atoms: S_18  and  C_21
REMARK                            x       y       z     vdW  Elec       q    Type
REMARK                         _______ _______ _______ _____ _____    ______ ____
ROOT
ATOM      1  C   UNL     1      -0.634   7.890   2.588  0.00  0.00    +0.002 A 
ATOM      2  C   UNL     1      -1.978   7.860   2.954  0.00  0.00    +0.012 A 
ATOM      3  C   UNL     1      -2.763   6.781   2.607  0.00  0.00    +0.025 A 
ATOM      4  C   UNL     1      -2.214   5.723   1.892  0.00  0.00    +0.048 A 
ATOM      5  C   UNL     1      -0.872   5.748   1.531  0.00  0.00    +0.025 A 
ATOM      6  C   UNL     1      -0.085   6.828   1.871  0.00  0.00    +0.012 A 
ENDROOT
BRANCH   1  15
ATOM      7  C   UNL     1      -0.249  12.843   5.096  0.00  0.00    +0.047 C 
ATOM      8  C   UNL     1       0.946  12.215   4.426  0.00  0.00    -0.008 A 
ATOM      9  C   UNL     1       2.146  12.855   4.422  0.00  0.00    +0.008 A 
ATOM     10  C   UNL     1       3.251  12.258   3.792  0.00  0.00    +0.018 A 
ATOM     11  C   UNL     1       3.126  11.056   3.193  0.00  0.00    +0.093 A 
ATOM     12  N   UNL     1       1.927  10.402   3.189  0.00  0.00    -0.306 N 
ATOM     13  C   UNL     1       0.830  10.960   3.795  0.00  0.00    +0.141 A 
ATOM     14  N   UNL     1      -0.194  10.133   3.642  0.00  0.00    -0.228 NA
ATOM     15  C   UNL     1       0.212   9.050   2.961  0.00  0.00    +0.090 A 
ATOM     16  C   UNL     1       1.534   9.202   2.666  0.00  0.00    +0.121 A 
ENDBRANCH   1  15
BRANCH   4  17
ATOM     17  N   UNL     1      -3.010   4.631   1.542  0.00  0.00    -0.216 N 
ATOM     18  H   UNL     1      -3.596   4.226   2.200  0.00  0.00    +0.174 HD
BRANCH  17  19
ATOM     19  S   UNL     1      -2.954   4.026   0.001  0.00  0.00    +0.073 S 
ATOM     20  O   UNL     1      -3.039   5.140  -0.876  0.00  0.00    -0.150 OA
ATOM     21  O   UNL     1      -3.878   2.947  -0.045  0.00  0.00    -0.150 OA
BRANCH  19  22
ATOM     22  C   UNL     1      -1.352   3.327  -0.226  0.00  0.00    +0.116 A 
ATOM     23  C   UNL     1      -0.503   3.850  -1.153  0.00  0.00    +0.029 A 
ATOM     24  C   UNL     1       0.765   3.308  -1.350  0.00  0.00    +0.003 A 
ATOM     25  C   UNL     1       1.196   2.247  -0.614  0.00  0.00    +0.008 A 
ATOM     26  C   UNL     1       0.350   1.685   0.356  0.00  0.00    -0.016 A 
ATOM     27  C   UNL     1      -0.942   2.232   0.553  0.00  0.00    +0.009 A 
ATOM     28  C   UNL     1      -1.788   1.670   1.524  0.00  0.00    +0.010 A 
ATOM     29  C   UNL     1      -1.357   0.610   2.260  0.00  0.00    +0.001 A 
ATOM     30  C   UNL     1      -0.086   0.071   2.067  0.00  0.00    +0.001 A 
ATOM     31  C   UNL     1       0.760   0.589   1.136  0.00  0.00    +0.008 A 
ENDBRANCH  19  22
ENDBRANCH  17  19
ENDBRANCH   4  17
TORSDOF 4
