REMARK  Name = ZINC12656631
REMARK  7 active torsions:
REMARK  status: ('A' for Active; 'I' for Inactive)
REMARK    1  A    between atoms: C_1  and  O_2
REMARK    2  A    between atoms: O_2  and  C_3
REMARK    3  A    between atoms: C_3  and  C_4
REMARK    4  A    between atoms: C_4  and  O_5
REMARK    5  A    between atoms: O_5  and  C_6
REMARK    6  A    between atoms: C_6  and  C_8
REMARK    7  A    between atoms: C_9  and  N_33
REMARK                            x       y       z     vdW  Elec       q    Type
REMARK                         _______ _______ _______ _____ _____    ______ ____
ROOT
ATOM      1  C   UNL     1       2.891   0.810   1.142  0.00  0.00    +0.117 C 
ATOM      2  C   UNL     1       4.247   0.901   1.190  0.00  0.00    +0.196 C 
ATOM      3  O   UNL     1       4.969   1.118   0.081  0.00  0.00    -0.441 OA
ATOM      4  C   UNL     1       4.458   0.841  -1.141  0.00  0.00    +0.146 C 
ATOM      5  C   UNL     1       3.112   0.743  -1.324  0.00  0.00    +0.062 C 
ATOM      6  C   UNL     1       2.169   0.946  -0.166  0.00  0.00    +0.142 C 
ATOM      7  C   UNL     1       1.489   2.276  -0.270  0.00  0.00    -0.001 A 
ATOM      8  C   UNL     1       1.990   3.560  -0.259  0.00  0.00    +0.022 A 
ATOM      9  C   UNL     1       1.071   4.597  -0.380  0.00  0.00    +0.018 A 
ATOM     10  C   UNL     1      -0.281   4.347  -0.505  0.00  0.00    +0.017 A 
ATOM     11  C   UNL     1      -0.791   3.058  -0.521  0.00  0.00    +0.025 A 
ATOM     12  C   UNL     1       0.121   2.009  -0.396  0.00  0.00    +0.038 A 
ATOM     13  N   UNL     1      -0.106   0.644  -0.378  0.00  0.00    -0.284 N 
ATOM     14  C   UNL     1       1.038  -0.058  -0.245  0.00  0.00    +0.237 C 
ATOM     15  O   UNL     1       1.142  -1.266  -0.198  0.00  0.00    -0.274 OA
ATOM     16 BR   UNL     1       1.685   6.385  -0.373  0.00  0.00    -0.050 Br
ATOM     17  C   UNL     1       2.559   0.451  -2.580  0.00  0.00    +0.169 C 
ATOM     18  O   UNL     1       1.353   0.368  -2.711  0.00  0.00    -0.292 OA
ATOM     19  C   UNL     1       3.465   0.239  -3.770  0.00  0.00    +0.115 C 
ATOM     20  C   UNL     1       4.953   0.360  -3.542  0.00  0.00    -0.029 A 
ATOM     21  C   UNL     1       5.409   0.652  -2.255  0.00  0.00    +0.021 A 
ATOM     22  C   UNL     1       6.783   0.768  -2.025  0.00  0.00    +0.012 A 
ATOM     23  C   UNL     1       7.668   0.593  -3.068  0.00  0.00    +0.001 A 
ATOM     24  C   UNL     1       7.204   0.304  -4.340  0.00  0.00    +0.000 A 
ATOM     25  C   UNL     1       5.843   0.187  -4.575  0.00  0.00    +0.005 A 
ATOM     26  H   UNL     1      -0.985   0.240  -0.452  0.00  0.00    +0.155 HD
ENDROOT
BRANCH   2  27
ATOM     27  N   UNL     1       4.886   0.769   2.393  0.00  0.00    -0.329 N 
ATOM     28  H   UNL     1       5.694   1.276   2.572  0.00  0.00    +0.145 HD
ATOM     29  H   UNL     1       4.532   0.168   3.067  0.00  0.00    +0.145 HD
ENDBRANCH   2  27
BRANCH   1  30
ATOM     30  C   UNL     1       2.164   0.587   2.321  0.00  0.00    +0.342 C 
ATOM     31  O   UNL     1       2.734   0.583   3.397  0.00  0.00    -0.245 OA
BRANCH  30  32
ATOM     32  O   UNL     1       0.831   0.376   2.263  0.00  0.00    -0.459 OA
BRANCH  32  33
ATOM     33  C   UNL     1       0.154   0.156   3.502  0.00  0.00    +0.260 C 
BRANCH  33  34
ATOM     34  C   UNL     1      -1.337  -0.062   3.237  0.00  0.00    +0.200 C 
BRANCH  34  36
ATOM     35  C   UNL     1      -2.881  -1.564   2.186  0.00  0.00    +0.194 C 
ATOM     36  O   UNL     1      -1.517  -1.266   2.488  0.00  0.00    -0.380 OA
ENDBRANCH  34  36
ENDBRANCH  33  34
ENDBRANCH  32  33
ENDBRANCH  30  32
ENDBRANCH   1  30
TORSDOF 6
