REMARK  Name = ZINC17369759
REMARK  6 active torsions:
REMARK  status: ('A' for Active; 'I' for Inactive)
REMARK    1  A    between atoms: C_1  and  C_2
REMARK    2  A    between atoms: C_10  and  C_11
REMARK    3  A    between atoms: C_11  and  C_12
REMARK    4  A    between atoms: N_14  and  C_15
REMARK    5  A    between atoms: C_15  and  C_17
REMARK    6  A    between atoms: C_15  and  C_24
REMARK                            x       y       z     vdW  Elec       q    Type
REMARK                         _______ _______ _______ _____ _____    ______ ____
ROOT
ATOM      1  C   UNL     1       2.118   4.295   2.213  0.00  0.00    +0.218 C 
ATOM      2  O   UNL     1       2.918   3.498   2.655  0.00  0.00    -0.275 OA
ATOM      3  N   UNL     1       1.837   4.309   0.895  0.00  0.00    -0.304 N 
ATOM      4  H   UNL     1       1.198   4.947   0.542  0.00  0.00    +0.150 HD
ENDROOT
BRANCH   1   5
ATOM      5  C   UNL     1       1.438   5.272   3.139  0.00  0.00    +0.134 C 
BRANCH   5  15
ATOM      6  C   UNL     1       6.322   6.687   7.787  0.00  0.00    +0.044 C 
ATOM      7  C   UNL     1       5.193   6.302   6.866  0.00  0.00    -0.047 A 
ATOM      8  C   UNL     1       5.171   6.787   5.566  0.00  0.00    +0.004 A 
ATOM      9  C   UNL     1       4.155   6.447   4.717  0.00  0.00    +0.012 A 
ATOM     10  C   UNL     1       3.134   5.607   5.162  0.00  0.00    +0.024 A 
ATOM     11  C   UNL     1       3.149   5.115   6.478  0.00  0.00    +0.135 A 
ATOM     12  C   UNL     1       4.189   5.476   7.325  0.00  0.00    +0.050 A 
ATOM     13  O   UNL     1       2.059   4.336   6.626  0.00  0.00    -0.463 OA
ATOM     14  C   UNL     1       1.339   4.298   5.491  0.00  0.00    +0.200 A 
ATOM     15  C   UNL     1       1.923   5.049   4.548  0.00  0.00    +0.007 A 
ENDBRANCH   5  15
ENDBRANCH   1   5
BRANCH   3  16
ATOM     16  C   UNL     1       2.498   3.360  -0.004  0.00  0.00    +0.140 C 
BRANCH  16  17
ATOM     17  C   UNL     1       2.524   3.926  -1.401  0.00  0.00    -0.022 A 
ATOM     18  C   UNL     1       1.421   4.599  -1.893  0.00  0.00    +0.008 A 
ATOM     19  C   UNL     1       1.445   5.122  -3.172  0.00  0.00    +0.038 A 
ATOM     20  C   UNL     1       2.569   4.963  -3.964  0.00  0.00    +0.123 A 
ATOM     21  C   UNL     1       3.671   4.284  -3.472  0.00  0.00    +0.038 A 
ATOM     22  C   UNL     1       3.647   3.766  -2.191  0.00  0.00    +0.008 A 
ATOM     23  F   UNL     1       2.592   5.470  -5.216  0.00  0.00    -0.205 F 
ENDBRANCH  16  17
BRANCH  16  24
ATOM     24  C   UNL     1       1.742   2.057  -0.004  0.00  0.00    +0.014 A 
ATOM     25  C   UNL     1       2.223   0.790  -0.015  0.00  0.00    +0.013 A 
ATOM     26  C   UNL     1       1.332  -0.266  -0.012  0.00  0.00    +0.008 A 
ATOM     27  C   UNL     1       0.002  -0.004   0.002  0.00  0.00    +0.045 A 
ATOM     28  S   UNL     1      -0.022   1.781   0.012  0.00  0.00    -0.099 S 
ENDBRANCH  16  24
ENDBRANCH   3  16
TORSDOF 5
