REMARK  Name = ZINC44963433
REMARK  10 active torsions:
REMARK  status: ('A' for Active; 'I' for Inactive)
REMARK    1  A    between atoms: C_1  and  C_2
REMARK    2  A    between atoms: C_2  and  C_3
REMARK    3  A    between atoms: C_3  and  C_4
REMARK    4  A    between atoms: C_15  and  O_39
REMARK    5  A    between atoms: C_23  and  C_38
REMARK    6  A    between atoms: C_26  and  O_37
REMARK    7  A    between atoms: C_29  and  C_36
REMARK    8  A    between atoms: C_30  and  C_32
REMARK    9  A    between atoms: C_32  and  C_34
REMARK   10  A    between atoms: C_34  and  O_35
REMARK                            x       y       z     vdW  Elec       q    Type
REMARK                         _______ _______ _______ _____ _____    ______ ____
ROOT
ATOM      1  C   UNL     1      -2.061  -1.681  -1.327  0.00  0.00    +0.252 C 
ATOM      2  O   UNL     1      -1.381  -1.686  -0.035  0.00  0.00    -0.345 OA
ATOM      3  C   UNL     1      -1.938  -2.824   0.596  0.00  0.00    +0.161 C 
ATOM      4  C   UNL     1      -2.068  -2.938   2.108  0.00  0.00    +0.039 C 
ATOM      5  C   UNL     1      -3.323  -3.875   2.249  0.00  0.00    +0.004 C 
ATOM      6  C   UNL     1      -2.787  -5.292   2.364  0.00  0.00    +0.002 C 
ATOM      7  C   UNL     1      -1.445  -5.391   1.637  0.00  0.00    +0.040 C 
ATOM      8  C   UNL     1      -0.827  -6.784   1.830  0.00  0.00    +0.142 C 
ATOM      9  C   UNL     1      -1.863  -7.783   1.348  0.00  0.00    -0.028 C 
ATOM     10  C   UNL     1      -1.585  -8.644   0.384  0.00  0.00    +0.053 C 
ATOM     11  C   UNL     1      -2.649  -9.528  -0.129  0.00  0.00    +0.179 C 
ATOM     12  O   UNL     1      -2.513 -10.120  -1.183  0.00  0.00    -0.288 OA
ATOM     13  C   UNL     1      -3.880  -9.678   0.669  0.00  0.00    +0.047 C 
ATOM     14  C   UNL     1      -4.123  -8.823   1.658  0.00  0.00    -0.012 C 
ATOM     15  C   UNL     1      -3.205  -7.720   2.021  0.00  0.00    +0.015 C 
ATOM     16  C   UNL     1      -3.775  -6.323   1.826  0.00  0.00    +0.035 C 
ATOM     17  C   UNL     1      -3.999  -6.027   0.339  0.00  0.00    +0.120 C 
ATOM     18  C   UNL     1      -4.775  -4.716   0.247  0.00  0.00    +0.042 C 
ATOM     19  C   UNL     1      -4.169  -3.589   1.013  0.00  0.00    +0.012 C 
ATOM     20  C   UNL     1      -3.444  -2.574   0.203  0.00  0.00    +0.164 C 
ATOM     21  O   UNL     1      -3.343  -2.353  -1.162  0.00  0.00    -0.334 OA
ATOM     22  C   UNL     1      -5.351  -2.796   1.575  0.00  0.00    +0.015 C 
ATOM     23  C   UNL     1      -2.934  -7.860   3.520  0.00  0.00    +0.020 C 
ENDROOT
BRANCH  20  24
ATOM     24  C   UNL     1      -3.774  -1.239   0.820  0.00  0.00    +0.193 C 
ATOM     25  O   UNL     1      -3.166  -0.855   1.790  0.00  0.00    -0.292 OA
BRANCH  24  26
ATOM     26  C   UNL     1      -4.864  -0.384   0.227  0.00  0.00    +0.233 C 
BRANCH  26  27
ATOM     27  O   UNL     1      -4.888   0.883   0.888  0.00  0.00    -0.387 OA
ATOM     28  H   UNL     1      -5.567   1.487   0.557  0.00  0.00    +0.210 HD
ENDBRANCH  26  27
ENDBRANCH  24  26
ENDBRANCH  20  24
BRANCH  17  29
ATOM     29  O   UNL     1      -4.754  -7.082  -0.259  0.00  0.00    -0.391 OA
ATOM     30  H   UNL     1      -4.930  -6.955  -1.201  0.00  0.00    +0.210 HD
ENDBRANCH  17  29
BRANCH   8  31
ATOM     31  O   UNL     1       0.368  -6.902   1.055  0.00  0.00    -0.387 OA
ATOM     32  H   UNL     1       0.806  -7.760   1.135  0.00  0.00    +0.210 HD
ENDBRANCH   8  31
BRANCH   1  33
ATOM     33  C   UNL     1      -2.287  -0.240  -1.787  0.00  0.00    +0.061 C 
BRANCH  33  35
ATOM     34  C   UNL     1      -1.164   1.866  -2.527  0.00  0.00    +0.004 C 
ATOM     35  C   UNL     1      -0.937   0.424  -2.067  0.00  0.00    +0.002 C 
ENDBRANCH  33  35
ENDBRANCH   1  33
TORSDOF 7
