REMARK  Name = ZINC39302418
REMARK  9 active torsions:
REMARK  status: ('A' for Active; 'I' for Inactive)
REMARK    1  A    between atoms: C_1  and  N_2
REMARK    2  A    between atoms: C_4  and  C_11
REMARK    3  A    between atoms: N_7  and  C_10
REMARK    4  A    between atoms: C_11  and  N_12
REMARK    5  A    between atoms: N_15  and  C_18
REMARK    6  A    between atoms: C_18  and  C_19
REMARK    7  A    between atoms: N_21  and  C_22
REMARK    8  A    between atoms: C_27  and  S_28
REMARK    9  A    between atoms: S_28  and  C_29
REMARK                            x       y       z     vdW  Elec       q    Type
REMARK                         _______ _______ _______ _____ _____    ______ ____
ROOT
ATOM      1  N   UNL     1      -1.486  -5.083  -2.243  0.00  0.00    -0.301 NA
ATOM      2  C   UNL     1      -1.887  -3.684  -2.449  0.00  0.00    +0.066 C 
ATOM      3  C   UNL     1      -2.591  -3.552  -3.802  0.00  0.00    -0.063 C 
ATOM      4  N   UNL     1      -3.771  -4.426  -3.827  0.00  0.00    +0.387 N 
ATOM      5  C   UNL     1      -3.353  -5.822  -3.644  0.00  0.00    -0.063 C 
ATOM      6  C   UNL     1      -2.655  -5.973  -2.290  0.00  0.00    +0.066 C 
ATOM      7  H   UNL     1      -4.399  -4.163  -3.082  0.00  0.00    -0.081 HD
ENDROOT
BRANCH   1   8
ATOM      8  C   UNL     1      -0.756  -5.240  -0.978  0.00  0.00    +0.126 C 
BRANCH   8  12
ATOM      9  C   UNL     1       1.986  -1.224  -0.167  0.00  0.00    +0.153 C 
ATOM     10  N   UNL     1       1.867  -2.592  -0.676  0.00  0.00    -0.303 N 
ATOM     11  C   UNL     1       0.667  -3.245  -0.593  0.00  0.00    +0.100 A 
ATOM     12  C   UNL     1       0.558  -4.506  -1.062  0.00  0.00    +0.047 A 
ATOM     13  C   UNL     1       1.693  -5.129  -1.634  0.00  0.00    +0.261 A 
ATOM     14  O   UNL     1       1.618  -6.266  -2.064  0.00  0.00    -0.267 OA
ATOM     15  N   UNL     1       2.857  -4.452  -1.698  0.00  0.00    -0.264 N 
ATOM     16  C   UNL     1       2.937  -3.194  -1.226  0.00  0.00    +0.331 A 
ATOM     17  O   UNL     1       3.993  -2.594  -1.295  0.00  0.00    -0.246 OA
ATOM     18  C   UNL     1       4.039  -5.087  -2.287  0.00  0.00    +0.157 C 
ENDBRANCH   8  12
ENDBRANCH   1   8
BRANCH   4  19
ATOM     19  C   UNL     1      -4.457  -4.286  -5.118  0.00  0.00    +0.019 C 
BRANCH  19  20
ATOM     20  C   UNL     1      -5.733  -5.087  -5.099  0.00  0.00    +0.201 C 
ATOM     21  O   UNL     1      -6.041  -5.713  -4.107  0.00  0.00    -0.278 OA
ATOM     22  N   UNL     1      -6.532  -5.108  -6.184  0.00  0.00    -0.286 N 
ATOM     23  H   UNL     1      -6.325  -4.549  -6.950  0.00  0.00    +0.155 HD
BRANCH  22  24
ATOM     24  C   UNL     1      -7.662  -5.936  -6.207  0.00  0.00    +0.047 A 
ATOM     25  C   UNL     1      -8.315  -6.253  -5.026  0.00  0.00    +0.024 A 
ATOM     26  C   UNL     1      -9.430  -7.071  -5.050  0.00  0.00    +0.002 A 
ATOM     27  C   UNL     1      -9.897  -7.575  -6.251  0.00  0.00    +0.001 A 
ATOM     28  C   UNL     1      -9.252  -7.265  -7.433  0.00  0.00    +0.017 A 
ATOM     29  C   UNL     1      -8.135  -6.440  -7.418  0.00  0.00    +0.034 A 
BRANCH  29  30
ATOM     30  S   UNL     1      -7.315  -6.037  -8.925  0.00  0.00    -0.088 S 
BRANCH  30  31
ATOM     31  C   UNL     1      -8.275  -6.844 -10.162  0.00  0.00    +0.013 A 
ATOM     32  C   UNL     1      -9.401  -6.220 -10.687  0.00  0.00    +0.015 A 
ATOM     33  C   UNL     1     -10.152  -6.855 -11.656  0.00  0.00    +0.001 A 
ATOM     34  C   UNL     1      -9.784  -8.111 -12.106  0.00  0.00    +0.000 A 
ATOM     35  C   UNL     1      -8.664  -8.734 -11.586  0.00  0.00    +0.001 A 
ATOM     36  C   UNL     1      -7.906  -8.103 -10.620  0.00  0.00    +0.015 A 
ENDBRANCH  30  31
ENDBRANCH  29  30
ENDBRANCH  22  24
ENDBRANCH  19  20
ENDBRANCH   4  19
TORSDOF 7
