REMARK  Name = ZINC10762684
REMARK  10 active torsions:
REMARK  status: ('A' for Active; 'I' for Inactive)
REMARK    1  A    between atoms: C_1  and  C_2
REMARK    2  A    between atoms: N_11  and  C_15
REMARK    3  A    between atoms: C_15  and  C_16
REMARK    4  A    between atoms: C_16  and  O_18
REMARK    5  A    between atoms: O_18  and  C_19
REMARK    6  A    between atoms: C_19  and  C_21
REMARK    7  A    between atoms: C_19  and  C_22
REMARK    8  A    between atoms: N_24  and  C_25
REMARK    9  A    between atoms: C_25  and  C_26
REMARK   10  A    between atoms: N_28  and  C_29
REMARK                            x       y       z     vdW  Elec       q    Type
REMARK                         _______ _______ _______ _____ _____    ______ ____
ROOT
ATOM      1  C   UNL     1      -2.413   0.359   7.903  0.00  0.00    +0.258 C 
ATOM      2  C   UNL     1      -2.085   1.799   8.302  0.00  0.00    +0.062 C 
ENDROOT
BRANCH   1   3
ATOM      3  C   UNL     1      -2.932  -0.390   9.104  0.00  0.00    +0.254 C 
ATOM      4  O   UNL     1      -4.045  -0.871   9.084  0.00  0.00    -0.272 OA
ATOM      5  N   UNL     1      -2.159  -0.523  10.200  0.00  0.00    -0.304 N 
ATOM      6  H   UNL     1      -1.269  -0.138  10.216  0.00  0.00    +0.149 HD
BRANCH   5   7
ATOM      7  C   UNL     1      -2.664  -1.251  11.367  0.00  0.00    +0.200 C 
BRANCH   7   8
ATOM      8  C   UNL     1      -1.614  -1.256  12.448  0.00  0.00    +0.234 C 
ATOM      9  O   UNL     1      -0.549  -0.706  12.262  0.00  0.00    -0.274 OA
ATOM     10  N   UNL     1      -1.858  -1.872  13.622  0.00  0.00    -0.282 N 
ATOM     11  H   UNL     1      -2.732  -2.256  13.796  0.00  0.00    +0.155 HD
BRANCH  10  12
ATOM     12  C   UNL     1      -0.850  -1.958  14.591  0.00  0.00    +0.072 A 
ATOM     13  C   UNL     1       0.061  -0.921  14.741  0.00  0.00    +0.029 A 
ATOM     14  C   UNL     1       1.052  -1.004  15.700  0.00  0.00    +0.043 A 
ATOM     15  C   UNL     1       1.145  -2.125  16.506  0.00  0.00    +0.161 A 
ATOM     16  C   UNL     1       0.241  -3.166  16.357  0.00  0.00    +0.195 A 
ATOM     17  C   UNL     1      -0.756  -3.084  15.401  0.00  0.00    +0.182 A 
ATOM     18  F   UNL     1      -1.638  -4.097  15.254  0.00  0.00    -0.200 F 
ATOM     19  F   UNL     1       0.335  -4.260  17.145  0.00  0.00    -0.199 F 
ATOM     20  F   UNL     1       2.119  -2.205  17.440  0.00  0.00    -0.202 F 
ENDBRANCH  10  12
ENDBRANCH   7   8
ENDBRANCH   5   7
ENDBRANCH   1   3
BRANCH   1  21
ATOM     21  O   UNL     1      -3.425   0.364   6.861  0.00  0.00    -0.451 OA
BRANCH  21  22
ATOM     22  C   UNL     1      -2.991   0.401   5.591  0.00  0.00    +0.326 C 
ATOM     23  O   UNL     1      -1.806   0.429   5.358  0.00  0.00    -0.249 OA
BRANCH  22  24
ATOM     24  C   UNL     1      -3.983   0.409   4.457  0.00  0.00    +0.238 C 
BRANCH  24  34
ATOM     25  C   UNL     1      -0.034   1.119   2.518  0.00  0.00    +0.010 C 
ATOM     26  C   UNL     1      -0.765   1.652   1.285  0.00  0.00    +0.018 C 
ATOM     27  C   UNL     1      -0.054   1.164   0.019  0.00  0.00    +0.006 C 
ATOM     28  C   UNL     1      -0.798   1.681  -1.214  0.00  0.00    +0.000 C 
ATOM     29  C   UNL     1      -2.233   1.150  -1.207  0.00  0.00    +0.003 C 
ATOM     30  C   UNL     1      -2.951   1.639   0.053  0.00  0.00    +0.035 C 
ATOM     31  C   UNL     1      -2.204   1.148   1.288  0.00  0.00    +0.115 C 
ATOM     32  C   UNL     1      -2.915   1.590   2.546  0.00  0.00    +0.247 C 
ATOM     33  O   UNL     1      -3.126   2.727   2.909  0.00  0.00    -0.273 OA
ATOM     34  N   UNL     1      -3.265   0.452   3.181  0.00  0.00    -0.213 N 
ATOM     35  C   UNL     1      -2.875  -0.632   2.500  0.00  0.00    +0.310 C 
ATOM     36  O   UNL     1      -3.077  -1.772   2.871  0.00  0.00    -0.252 OA
ATOM     37  N   UNL     1      -2.234  -0.319   1.358  0.00  0.00    -0.285 N 
ATOM     38  H   UNL     1      -1.864  -0.939   0.710  0.00  0.00    +0.151 HD
ENDBRANCH  24  34
ENDBRANCH  22  24
ENDBRANCH  21  22
ENDBRANCH   1  21
TORSDOF 8
