REMARK  Name = ZINC13065219
REMARK  12 active torsions:
REMARK  status: ('A' for Active; 'I' for Inactive)
REMARK    1  A    between atoms: C_1  and  C_2
REMARK    2  A    between atoms: C_2  and  C_3
REMARK    3  A    between atoms: C_3  and  C_5
REMARK    4  A    between atoms: C_3  and  N_73
REMARK    5  A    between atoms: N_9  and  C_10
REMARK    6  A    between atoms: C_10  and  C_11
REMARK    7  A    between atoms: C_17  and  C_18
REMARK    8  A    between atoms: C_17  and  N_73
REMARK    9  A    between atoms: C_27  and  C_28
REMARK   10  A    between atoms: C_27  and  N_73
REMARK   11  A    between atoms: C_31  and  C_41
REMARK   12  A    between atoms: C_34  and  C_40
REMARK                            x       y       z     vdW  Elec       q    Type
REMARK                         _______ _______ _______ _____ _____    ______ ____
ROOT
ATOM      1  N   UNL     1       0.295   1.351   0.203  0.00  0.00    +0.392 N 
ATOM      2  H   UNL     1       0.076   1.402   1.205  0.00  0.00    -0.080 HD
ENDROOT
BRANCH   1   3
ATOM      3  C   UNL     1       1.602   1.999  -0.036  0.00  0.00    +0.003 C 
BRANCH   3   4
ATOM      4  C   UNL     1       1.730   3.180   0.890  0.00  0.00    +0.138 A 
ATOM      5  N   UNL     1       0.795   4.052   1.180  0.00  0.00    -0.115 NA
ATOM      6  N   UNL     1       1.291   4.908   2.006  0.00  0.00    -0.023 NA
ATOM      7  N   UNL     1       2.518   4.605   2.250  0.00  0.00    -0.044 NA
ATOM      8  N   UNL     1       2.824   3.542   1.585  0.00  0.00    -0.228 N 
BRANCH   8   9
ATOM      9  C   UNL     1       4.121   2.860   1.583  0.00  0.00    +0.178 C 
BRANCH   9  10
ATOM     10  C   UNL     1       5.003   3.443   0.477  0.00  0.00    +0.140 C 
ATOM     11  C   UNL     1       6.327   2.654   0.393  0.00  0.00    +0.035 C 
ATOM     12  C   UNL     1       7.364   3.778   0.126  0.00  0.00    +0.031 C 
ATOM     13  C   UNL     1       6.749   4.945   0.940  0.00  0.00    +0.160 C 
ATOM     14  O   UNL     1       5.329   4.804   0.782  0.00  0.00    -0.375 OA
ENDBRANCH   9  10
ENDBRANCH   8   9
ENDBRANCH   3   4
BRANCH   3  16
ATOM     15  C   UNL     1       1.690   1.264  -2.422  0.00  0.00    +0.002 C 
ATOM     16  C   UNL     1       1.705   2.474  -1.487  0.00  0.00    -0.011 C 
ENDBRANCH   3  16
ENDBRANCH   1   3
BRANCH   1  17
ATOM     17  C   UNL     1       0.353  -0.069  -0.204  0.00  0.00    -0.041 C 
BRANCH  17  18
ATOM     18  C   UNL     1       1.260  -0.809   0.745  0.00  0.00    -0.060 A 
ATOM     19  C   UNL     1       0.767  -1.274   1.950  0.00  0.00    +0.005 A 
ATOM     20  C   UNL     1       1.596  -1.954   2.823  0.00  0.00    +0.050 A 
ATOM     21  C   UNL     1       2.923  -2.171   2.492  0.00  0.00    +0.166 A 
ATOM     22  C   UNL     1       3.420  -1.703   1.278  0.00  0.00    +0.166 A 
ATOM     23  C   UNL     1       2.583  -1.027   0.405  0.00  0.00    +0.051 A 
ATOM     24  O   UNL     1       4.740  -2.040   1.187  0.00  0.00    -0.453 OA
ATOM     25  C   UNL     1       4.941  -3.072   2.171  0.00  0.00    +0.466 C 
ATOM     26  O   UNL     1       3.932  -2.802   3.161  0.00  0.00    -0.453 OA
ENDBRANCH  17  18
ENDBRANCH   1  17
BRANCH   1  27
ATOM     27  C   UNL     1      -0.762   2.051  -0.557  0.00  0.00    -0.036 C 
BRANCH  27  28
ATOM     28  C   UNL     1      -2.103   1.664   0.012  0.00  0.00    +0.001 A 
ATOM     29  C   UNL     1      -2.685   2.442   0.959  0.00  0.00    +0.017 A 
ATOM     30  C   UNL     1      -3.988   2.038   1.491  0.00  0.00    +0.002 A 
ATOM     31  C   UNL     1      -4.638   2.800   2.468  0.00  0.00    -0.041 A 
ATOM     32  C   UNL     1      -5.853   2.396   2.944  0.00  0.00    +0.004 A 
ATOM     33  C   UNL     1      -6.449   1.236   2.467  0.00  0.00    +0.005 A 
ATOM     34  C   UNL     1      -5.827   0.471   1.504  0.00  0.00    -0.026 A 
ATOM     35  C   UNL     1      -4.589   0.862   1.005  0.00  0.00    +0.052 A 
ATOM     36  N   UNL     1      -3.945   0.115   0.041  0.00  0.00    -0.322 N 
ATOM     37  H   UNL     1      -4.360  -0.695  -0.293  0.00  0.00    +0.169 HD
ATOM     38  C   UNL     1      -2.751   0.497  -0.445  0.00  0.00    +0.251 A 
ATOM     39  O   UNL     1      -2.212  -0.185  -1.300  0.00  0.00    -0.268 OA
ATOM     40  C   UNL     1      -6.486  -0.785   0.995  0.00  0.00    +0.046 C 
ATOM     41  C   UNL     1      -4.001   4.061   2.992  0.00  0.00    +0.044 C 
ENDBRANCH  27  28
ENDBRANCH   1  27
TORSDOF 9
