REMARK  Name = ZINC00863038
REMARK  3 active torsions:
REMARK  status: ('A' for Active; 'I' for Inactive)
REMARK    1  A    between atoms: N_13  and  C_16
REMARK    2  A    between atoms: C_19  and  S_22
REMARK    3  A    between atoms: S_22  and  N_25
REMARK                            x       y       z     vdW  Elec       q    Type
REMARK                         _______ _______ _______ _____ _____    ______ ____
ROOT
ATOM      1  C   UNL     1      -3.984   6.233   8.362  0.00  0.00    +0.001 A 
ATOM      2  C   UNL     1      -4.969   5.437   8.873  0.00  0.00    +0.008 A 
ATOM      3  C   UNL     1      -5.271   4.210   8.258  0.00  0.00    -0.016 A 
ATOM      4  C   UNL     1      -6.276   3.355   8.746  0.00  0.00    +0.008 A 
ATOM      5  C   UNL     1      -6.532   2.172   8.114  0.00  0.00    +0.001 A 
ATOM      6  C   UNL     1      -5.821   1.779   6.986  0.00  0.00    +0.014 A 
ATOM      7  C   UNL     1      -4.822   2.594   6.474  0.00  0.00    +0.046 A 
ATOM      8  C   UNL     1      -4.542   3.822   7.115  0.00  0.00    +0.006 A 
ATOM      9  C   UNL     1      -3.526   4.659   6.600  0.00  0.00    +0.046 A 
ATOM     10  C   UNL     1      -3.259   5.863   7.236  0.00  0.00    +0.014 A 
ATOM     11  C   UNL     1      -2.788   4.221   5.407  0.00  0.00    +0.258 C 
ATOM     12  O   UNL     1      -1.910   4.925   4.946  0.00  0.00    -0.269 OA
ATOM     13  N   UNL     1      -3.079   3.044   4.820  0.00  0.00    -0.202 N 
ATOM     14  C   UNL     1      -4.044   2.226   5.282  0.00  0.00    +0.258 C 
ATOM     15  O   UNL     1      -4.271   1.176   4.712  0.00  0.00    -0.269 OA
ENDROOT
BRANCH  13  16
ATOM     16  C   UNL     1      -2.355   2.659   3.684  0.00  0.00    +0.045 A 
ATOM     17  C   UNL     1      -1.190   1.917   3.820  0.00  0.00    +0.026 A 
ATOM     18  C   UNL     1      -0.479   1.539   2.698  0.00  0.00    +0.030 A 
ATOM     19  C   UNL     1      -0.926   1.899   1.440  0.00  0.00    +0.105 A 
ATOM     20  C   UNL     1      -2.084   2.643   1.302  0.00  0.00    +0.030 A 
ATOM     21  C   UNL     1      -2.802   3.020   2.420  0.00  0.00    +0.026 A 
BRANCH  19  22
ATOM     22  S   UNL     1      -0.017   1.414   0.011  0.00  0.00    +0.056 S 
ATOM     23  O   UNL     1       1.322   1.196   0.436  0.00  0.00    -0.153 OA
ATOM     24  O   UNL     1      -0.349   2.338  -1.015  0.00  0.00    -0.153 OA
BRANCH  22  25
ATOM     25  N   UNL     1      -0.606  -0.058  -0.469  0.00  0.00    -0.204 NA
ATOM     26  H   UNL     1      -0.017  -0.828  -0.504  0.00  0.00    +0.144 HD
ATOM     27  H   UNL     1      -1.540  -0.149  -0.714  0.00  0.00    +0.144 HD
ENDBRANCH  22  25
ENDBRANCH  19  22
ENDBRANCH  13  16
TORSDOF 3
