REMARK  Name = ZINC08634413
REMARK  6 active torsions:
REMARK  status: ('A' for Active; 'I' for Inactive)
REMARK    1  A    between atoms: C_1  and  C_2
REMARK    2  A    between atoms: C_2  and  C_28
REMARK    3  A    between atoms: N_5  and  C_9
REMARK    4  A    between atoms: C_9  and  C_10
REMARK    5  A    between atoms: C_13  and  C_23
REMARK    6  A    between atoms: C_16  and  C_18
REMARK                            x       y       z     vdW  Elec       q    Type
REMARK                         _______ _______ _______ _____ _____    ______ ____
ROOT
ATOM      1  C   UNL     1       5.506   5.147  -0.024  0.00  0.00    +0.253 C 
ATOM      2  O   UNL     1       5.787   6.328  -0.020  0.00  0.00    -0.272 OA
ATOM      3  N   UNL     1       4.215   4.761  -0.013  0.00  0.00    -0.183 N 
ATOM      4  C   UNL     1       3.053   5.663   0.004  0.00  0.00    +0.143 C 
ATOM      5  C   UNL     1       1.848   4.702   0.010  0.00  0.00    +0.088 C 
ATOM      6  C   UNL     1       2.477   3.327  -0.004  0.00  0.00    +0.075 C 
ATOM      7  N   UNL     1       3.763   3.443  -0.010  0.00  0.00    -0.180 NA
ENDROOT
BRANCH   6   8
ATOM      8  C   UNL     1       1.741   2.059  -0.004  0.00  0.00    +0.035 A 
ATOM      9  C   UNL     1       2.233   0.765  -0.015  0.00  0.00    +0.017 A 
ATOM     10  C   UNL     1       1.333  -0.276  -0.012  0.00  0.00    +0.008 A 
ATOM     11  C   UNL     1       0.002  -0.004   0.002  0.00  0.00    +0.046 A 
ATOM     12  S   UNL     1      -0.022   1.781   0.012  0.00  0.00    -0.095 S 
ENDBRANCH   6   8
BRANCH   4  13
ATOM     13  C   UNL     1       3.035   6.527  -1.231  0.00  0.00    +0.013 A 
ATOM     14  C   UNL     1       2.610   7.807  -1.371  0.00  0.00    +0.013 A 
ATOM     15  C   UNL     1       2.692   8.408  -2.613  0.00  0.00    +0.008 A 
ATOM     16  C   UNL     1       3.185   7.697  -3.656  0.00  0.00    +0.045 A 
ATOM     17  S   UNL     1       3.560   6.129  -2.890  0.00  0.00    -0.100 S 
ENDBRANCH   4  13
BRANCH   1  18
ATOM     18  C   UNL     1       6.602   4.112  -0.040  0.00  0.00    +0.215 C 
BRANCH  18  23
ATOM     19  C   UNL     1       9.921   7.240  -1.168  0.00  0.00    +0.047 C 
ATOM     20  C   UNL     1       9.852   5.786  -0.697  0.00  0.00    +0.135 C 
ATOM     21  C   UNL     1       8.570   5.128  -1.169  0.00  0.00    +0.251 C 
ATOM     22  O   UNL     1       8.216   4.953  -2.315  0.00  0.00    -0.272 OA
ATOM     23  N   UNL     1       7.905   4.781  -0.050  0.00  0.00    -0.215 N 
ATOM     24  C   UNL     1       8.585   5.118   1.052  0.00  0.00    +0.310 C 
ATOM     25  O   UNL     1       8.190   4.904   2.182  0.00  0.00    -0.252 OA
ATOM     26  N   UNL     1       9.755   5.720   0.771  0.00  0.00    -0.281 N 
ATOM     27  H   UNL     1      10.406   6.048   1.410  0.00  0.00    +0.152 HD
BRANCH  20  28
ATOM     28  C   UNL     1      11.052   5.016  -1.184  0.00  0.00    -0.016 A 
ATOM     29  C   UNL     1      11.017   4.387  -2.415  0.00  0.00    +0.006 A 
ATOM     30  C   UNL     1      12.120   3.684  -2.863  0.00  0.00    +0.000 A 
ATOM     31  C   UNL     1      13.254   3.602  -2.077  0.00  0.00    +0.000 A 
ATOM     32  C   UNL     1      13.287   4.226  -0.844  0.00  0.00    +0.000 A 
ATOM     33  C   UNL     1      12.186   4.933  -0.398  0.00  0.00    +0.006 A 
ENDBRANCH  20  28
ENDBRANCH  18  23
ENDBRANCH   1  18
TORSDOF 5
