REMARK  Name = ZINC37324847
REMARK  4 active torsions:
REMARK  status: ('A' for Active; 'I' for Inactive)
REMARK    1  A    between atoms: C_2  and  C_12
REMARK    2  A    between atoms: C_12  and  C_14
REMARK    3  A    between atoms: C_12  and  N_16
REMARK    4  A    between atoms: C_14  and  N_15
REMARK                            x       y       z     vdW  Elec       q    Type
REMARK                         _______ _______ _______ _____ _____    ______ ____
ROOT
ATOM      1  C   UNL     1       1.082   3.567   0.120  0.00  0.00    -0.055 C 
ENDROOT
BRANCH   1   3
ATOM      2  C   UNL     1       0.139   1.249   0.095  0.00  0.00    +0.051 A 
ATOM      3  C   UNL     1       1.250   2.071   0.051  0.00  0.00    -0.058 A 
ATOM      4  C   UNL     1       2.514   1.522  -0.057  0.00  0.00    +0.021 A 
ATOM      5  C   UNL     1       2.671   0.150  -0.123  0.00  0.00    +0.063 A 
ATOM      6  C   UNL     1       1.560  -0.680  -0.080  0.00  0.00    +0.176 A 
ATOM      7  C   UNL     1       0.290  -0.128   0.032  0.00  0.00    +0.163 A 
ATOM      8  O   UNL     1      -0.813  -0.924   0.083  0.00  0.00    -0.485 OA
ATOM      9  C   UNL     1      -0.652  -2.277  -0.358  0.00  0.00    +0.270 C 
ATOM     10  C   UNL     1       0.629  -2.839   0.274  0.00  0.00    +0.270 C 
ATOM     11  O   UNL     1       1.731  -2.029  -0.149  0.00  0.00    -0.484 OA
ATOM     12 BR   UNL     1       4.403  -0.596  -0.273  0.00  0.00    -0.046 Br
ENDBRANCH   1   3
BRANCH   1  13
ATOM     13  N   UNL     1       2.140   4.140   0.963  0.00  0.00    +0.383 N 
ATOM     14  C   UNL     1       2.090   3.494   2.289  0.00  0.00    -0.078 C 
ATOM     15  C   UNL     1       3.457   3.599   2.918  0.00  0.00    -0.019 C 
ATOM     16  C   UNL     1       3.551   4.810   3.864  0.00  0.00    -0.002 C 
ATOM     17  C   UNL     1       2.842   6.049   3.280  0.00  0.00    -0.002 C 
ATOM     18  C   UNL     1       3.101   6.216   1.805  0.00  0.00    -0.019 C 
ATOM     19  C   UNL     1       1.971   5.524   1.014  0.00  0.00    -0.078 C 
ATOM     20  H   UNL     1       3.034   3.938   0.540  0.00  0.00    -0.081 HD
ENDBRANCH   1  13
BRANCH   1  21
ATOM     21  C   UNL     1       1.177   4.156  -1.289  0.00  0.00    -0.098 C 
BRANCH  21  22
ATOM     22  N   UNL     1       0.082   3.629  -2.115  0.00  0.00    +0.377 N 
ATOM     23  H   UNL     1       0.181   3.968  -3.060  0.00  0.00    -0.090 HD
ATOM     24  H   UNL     1       0.117   2.620  -2.114  0.00  0.00    -0.090 HD
ATOM     25  H   UNL     1      -0.802   3.935  -1.738  0.00  0.00    -0.090 HD
ENDBRANCH  21  22
ENDBRANCH   1  21
TORSDOF 4
