REMARK  Name = ZINC36801702
REMARK  9 active torsions:
REMARK  status: ('A' for Active; 'I' for Inactive)
REMARK    1  A    between atoms: C_1  and  C_2
REMARK    2  A    between atoms: C_2  and  C_3
REMARK    3  A    between atoms: C_10  and  C_12
REMARK    4  A    between atoms: C_12  and  C_14
REMARK    5  A    between atoms: C_12  and  S_15
REMARK    6  A    between atoms: S_15  and  C_16
REMARK    7  A    between atoms: C_19  and  C_28
REMARK    8  A    between atoms: N_20  and  C_21
REMARK    9  A    between atoms: C_21  and  C_22
REMARK                            x       y       z     vdW  Elec       q    Type
REMARK                         _______ _______ _______ _____ _____    ______ ____
ROOT
ATOM      1  C   UNL     1      -4.399   1.521   4.765  0.00  0.00    +0.193 A 
ATOM      2  N   UNL     1      -3.900   1.374   5.970  0.00  0.00    -0.122 NA
ATOM      3  N   UNL     1      -4.786   1.665   6.854  0.00  0.00    -0.128 NA
ATOM      4  C   UNL     1      -5.907   2.015   6.267  0.00  0.00    +0.167 A 
ATOM      5  N   UNL     1      -5.693   1.940   4.910  0.00  0.00    -0.300 N 
ENDROOT
BRANCH   4   6
ATOM      6  C   UNL     1      -7.160   2.420   6.937  0.00  0.00    +0.044 A 
ATOM      7  C   UNL     1      -7.986   3.433   6.569  0.00  0.00    +0.095 A 
ATOM      8  N   UNL     1      -9.043   3.501   7.431  0.00  0.00    -0.360 N 
ATOM      9  H   UNL     1      -9.766   4.144   7.372  0.00  0.00    +0.165 HD
ATOM     10  C   UNL     1      -8.934   2.523   8.396  0.00  0.00    +0.047 A 
ATOM     11  C   UNL     1      -7.759   1.799   8.131  0.00  0.00    +0.010 A 
ATOM     12  C   UNL     1      -7.395   0.734   8.953  0.00  0.00    +0.011 A 
ATOM     13  C   UNL     1      -8.194   0.394  10.022  0.00  0.00    +0.001 A 
ATOM     14  C   UNL     1      -9.357   1.106  10.282  0.00  0.00    +0.002 A 
ATOM     15  C   UNL     1      -9.725   2.166   9.483  0.00  0.00    +0.026 A 
ENDBRANCH   4   6
BRANCH   1  16
ATOM     16  S   UNL     1      -3.557   1.237   3.243  0.00  0.00    -0.074 S 
BRANCH  16  17
ATOM     17  C   UNL     1      -1.899   0.706   3.751  0.00  0.00    +0.137 C 
ATOM     18  C   UNL     1      -1.192   1.857   4.470  0.00  0.00    +0.029 C 
BRANCH  17  25
ATOM     19  C   UNL     1       0.841  -0.768   1.510  0.00  0.00    +0.076 C 
ATOM     20  C   UNL     1       0.989  -2.287   1.369  0.00  0.00    +0.022 C 
ATOM     21  C   UNL     1       1.495  -2.870   2.690  0.00  0.00    +0.003 C 
ATOM     22  C   UNL     1       0.479  -2.585   3.798  0.00  0.00    +0.019 C 
ATOM     23  C   UNL     1       0.325  -1.070   3.966  0.00  0.00    +0.108 C 
ATOM     24  N   UNL     1      -0.019  -0.479   2.666  0.00  0.00    -0.298 N 
ATOM     25  C   UNL     1      -1.103   0.309   2.534  0.00  0.00    +0.229 C 
ATOM     26  O   UNL     1      -1.440   0.700   1.436  0.00  0.00    -0.274 OA
BRANCH  19  28
ATOM     27  C   UNL     1       1.104  -0.497  -0.960  0.00  0.00    +0.006 C 
ATOM     28  C   UNL     1       0.206  -0.195   0.241  0.00  0.00    +0.019 C 
ENDBRANCH  19  28
ENDBRANCH  17  25
ENDBRANCH  16  17
ENDBRANCH   1  16
BRANCH   5  29
ATOM     29  C   UNL     1      -6.652   2.242   3.844  0.00  0.00    +0.157 C 
BRANCH  29  30
ATOM     30  C   UNL     1      -7.508   1.005   3.562  0.00  0.00    +0.138 C 
ATOM     31  C   UNL     1      -8.437   1.275   2.360  0.00  0.00    +0.035 C 
ATOM     32  C   UNL     1      -9.754   0.578   2.799  0.00  0.00    +0.031 C 
ATOM     33  C   UNL     1      -9.721   0.823   4.328  0.00  0.00    +0.160 C 
ATOM     34  O   UNL     1      -8.335   0.719   4.696  0.00  0.00    -0.375 OA
ENDBRANCH  29  30
ENDBRANCH   5  29
TORSDOF 7
