REMARK  Name = ZINC22086644
REMARK  11 active torsions:
REMARK  status: ('A' for Active; 'I' for Inactive)
REMARK    1  A    between atoms: C_1  and  C_2
REMARK    2  A    between atoms: C_2  and  C_3
REMARK    3  A    between atoms: C_2  and  C_4
REMARK    4  A    between atoms: C_4  and  C_5
REMARK    5  A    between atoms: C_5  and  C_7
REMARK    6  A    between atoms: C_5  and  N_13
REMARK    7  A    between atoms: C_14  and  C_16
REMARK    8  A    between atoms: C_16  and  S_17
REMARK    9  A    between atoms: S_17  and  C_18
REMARK   10  A    between atoms: C_21  and  C_24
REMARK   11  A    between atoms: N_22  and  N_23
REMARK                            x       y       z     vdW  Elec       q    Type
REMARK                         _______ _______ _______ _____ _____    ______ ____
ROOT
ATOM      1  C   UNL     1      -3.567   1.285  -2.161  0.00  0.00    +0.173 C 
ENDROOT
BRANCH   1   3
ATOM      2  N   UNL     1      -2.966   1.522   0.227  0.00  0.00    -0.308 N 
ATOM      3  C   UNL     1      -2.873   0.807  -0.911  0.00  0.00    +0.224 C 
ATOM      4  O   UNL     1      -2.230  -0.221  -0.931  0.00  0.00    -0.275 OA
ATOM      5  H   UNL     1      -3.614   2.410   0.267  0.00  0.00    +0.149 HD
BRANCH   2   6
ATOM      6  C   UNL     1      -2.206   1.116   1.412  0.00  0.00    +0.103 C 
BRANCH   6   7
ATOM      7  C   UNL     1      -2.847   1.699   2.645  0.00  0.00    -0.027 A 
ATOM      8  C   UNL     1      -3.338   2.991   2.623  0.00  0.00    +0.005 A 
ATOM      9  C   UNL     1      -3.930   3.524   3.753  0.00  0.00    +0.000 A 
ATOM     10  C   UNL     1      -4.022   2.769   4.907  0.00  0.00    +0.000 A 
ATOM     11  C   UNL     1      -3.526   1.479   4.930  0.00  0.00    +0.000 A 
ATOM     12  C   UNL     1      -2.938   0.944   3.799  0.00  0.00    +0.005 A 
ENDBRANCH   6   7
BRANCH   6  13
ATOM     13  C   UNL     1      -0.768   1.627   1.294  0.00  0.00    +0.030 C 
BRANCH  13  15
ATOM     14  C   UNL     1       1.464   1.694   2.413  0.00  0.00    +0.007 C 
ATOM     15  C   UNL     1       0.064   1.079   2.455  0.00  0.00    -0.015 C 
ATOM     16  C   UNL     1       0.172  -0.442   2.332  0.00  0.00    +0.007 C 
ENDBRANCH  13  15
ENDBRANCH   6  13
ENDBRANCH   2   6
ENDBRANCH   1   3
BRANCH   1  17
ATOM     17  S   UNL     1      -3.254   0.119  -3.509  0.00  0.00    -0.075 S 
BRANCH  17  18
ATOM     18  C   UNL     1      -4.155   0.901  -4.806  0.00  0.00    +0.209 A 
ATOM     19  N   UNL     1      -4.839   2.020  -4.715  0.00  0.00    -0.121 NA
ATOM     20  N   UNL     1      -5.369   2.306  -5.850  0.00  0.00    -0.127 NA
ATOM     21  C   UNL     1      -5.064   1.384  -6.732  0.00  0.00    +0.183 A 
ATOM     22  N   UNL     1      -4.277   0.456  -6.091  0.00  0.00    -0.224 N 
BRANCH  21  23
ATOM     23  C   UNL     1      -5.487   1.348  -8.149  0.00  0.00    +0.035 A 
ATOM     24  C   UNL     1      -6.005   0.174  -8.696  0.00  0.00    +0.013 A 
ATOM     25  C   UNL     1      -6.398   0.147 -10.018  0.00  0.00    +0.001 A 
ATOM     26  C   UNL     1      -6.279   1.282 -10.802  0.00  0.00    +0.001 A 
ATOM     27  C   UNL     1      -5.767   2.450 -10.266  0.00  0.00    +0.016 A 
ATOM     28  C   UNL     1      -5.375   2.492  -8.943  0.00  0.00    +0.029 A 
ATOM     29 BR   UNL     1      -4.682   4.091  -8.209  0.00  0.00    -0.050 Br
ENDBRANCH  21  23
BRANCH  22  30
ATOM     30  N   UNL     1      -3.732  -0.676  -6.627  0.00  0.00    -0.295 N 
ATOM     31  H   UNL     1      -3.907  -0.924  -7.684  0.00  0.00    +0.163 HD
ATOM     32  H   UNL     1      -3.117  -1.340  -6.001  0.00  0.00    +0.163 HD
ENDBRANCH  22  30
ENDBRANCH  17  18
ENDBRANCH   1  17
TORSDOF 9
