REMARK  Name = ZINC42773337
REMARK  4 active torsions:
REMARK  status: ('A' for Active; 'I' for Inactive)
REMARK    1  A    between atoms: C_1  and  C_2
REMARK    2  A    between atoms: N_11  and  C_12
REMARK    3  A    between atoms: C_15  and  N_20
REMARK    4  A    between atoms: C_17  and  C_18
REMARK                            x       y       z     vdW  Elec       q    Type
REMARK                         _______ _______ _______ _____ _____    ______ ____
ROOT
ATOM      1  C   UNL     1       1.455   0.369   1.987  0.00  0.00    +0.035 A 
ATOM      2  C   UNL     1       0.864   1.044   3.048  0.00  0.00    +0.025 A 
ATOM      3  C   UNL     1       1.618   1.901   3.825  0.00  0.00    +0.034 A 
ATOM      4  C   UNL     1       2.960   2.087   3.549  0.00  0.00    +0.127 A 
ATOM      5  C   UNL     1       3.551   1.416   2.494  0.00  0.00    +0.039 A 
ATOM      6  C   UNL     1       2.804   0.553   1.716  0.00  0.00    -0.010 A 
ENDROOT
BRANCH   1  16
ATOM      7  C   UNL     1      -0.019   1.526   0.010  0.00  0.00    +0.033 C 
ATOM      8  C   UNL     1       0.002  -0.004   0.002  0.00  0.00    +0.101 C 
ATOM      9  C   UNL     1      -1.428  -0.541   0.033  0.00  0.00    -0.017 A 
ATOM     10  C   UNL     1      -2.439  -0.067  -0.801  0.00  0.00    +0.013 A 
ATOM     11  C   UNL     1      -3.683  -0.593  -0.722  0.00  0.00    +0.046 A 
ATOM     12  S   UNL     1      -3.485  -1.814   0.567  0.00  0.00    -0.101 S 
ATOM     13  C   UNL     1      -1.767  -1.530   0.903  0.00  0.00    -0.004 A 
ATOM     14  C   UNL     1      -0.893  -2.210   1.907  0.00  0.00    +0.061 C 
ATOM     15  C   UNL     1       0.575  -1.920   1.558  0.00  0.00    +0.111 C 
ATOM     16  N   UNL     1       0.695  -0.499   1.200  0.00  0.00    -0.322 N 
ENDBRANCH   1  16
BRANCH   4  17
ATOM     17  N   UNL     1       3.765   3.006   4.384  0.00  0.00    +0.056 N 
ATOM     18  O   UNL     1       3.250   3.593   5.306  0.00  0.00    -0.126 OA
ATOM     19  O   UNL     1       4.939   3.169   4.144  0.00  0.00    -0.126 OA
ENDBRANCH   4  17
BRANCH   6  20
ATOM     20  C   UNL     1       3.451  -0.182   0.571  0.00  0.00    +0.145 C 
ATOM     21 CL   UNL     1       3.323   0.811  -0.929  0.00  0.00    -0.120 Cl
ENDBRANCH   6  20
TORSDOF 3
