REMARK  Name = ZINC02338882
REMARK  8 active torsions:
REMARK  status: ('A' for Active; 'I' for Inactive)
REMARK    1  A    between atoms: C_1  and  C_2
REMARK    2  A    between atoms: C_2  and  O_3
REMARK    3  A    between atoms: O_3  and  C_4
REMARK    4  A    between atoms: C_4  and  C_6
REMARK    5  A    between atoms: C_7  and  C_30
REMARK    6  A    between atoms: C_12  and  C_14
REMARK    7  A    between atoms: C_14  and  S_15
REMARK    8  A    between atoms: S_15  and  C_16
REMARK                            x       y       z     vdW  Elec       q    Type
REMARK                         _______ _______ _______ _____ _____    ______ ____
ROOT
ATOM      1  S   UNL     1       4.461  -0.086  -8.686  0.00  0.00    -0.077 S 
ENDROOT
BRANCH   1   2
ATOM      2  C   UNL     1       5.522  -0.315 -10.074  0.00  0.00    +0.191 A 
ATOM      3  N   UNL     1       5.774  -1.545 -10.507  0.00  0.00    -0.207 NA
ATOM      4  C   UNL     1       6.561  -1.778 -11.543  0.00  0.00    +0.129 A 
ATOM      5  C   UNL     1       7.162  -0.681 -12.221  0.00  0.00    +0.051 A 
ATOM      6  C   UNL     1       8.061  -0.700 -13.377  0.00  0.00    -0.025 A 
ATOM      7  C   UNL     1       8.495   0.491 -13.835  0.00  0.00    -0.004 A 
ATOM      8  S   UNL     1       7.748   1.696 -12.771  0.00  0.00    -0.073 S 
ATOM      9  C   UNL     1       6.850   0.594 -11.709  0.00  0.00    +0.115 A 
ATOM     10  N   UNL     1       6.050   0.746 -10.671  0.00  0.00    -0.214 NA
ATOM     11  C   UNL     1       9.414   0.738 -14.992  0.00  0.00    +0.043 C 
ATOM     12  C   UNL     1      10.093  -0.587 -15.365  0.00  0.00    +0.005 C 
ATOM     13  C   UNL     1       9.023  -1.680 -15.449  0.00  0.00    +0.005 C 
ATOM     14  C   UNL     1       8.497  -2.000 -14.049  0.00  0.00    +0.037 C 
ATOM     15  N   UNL     1       6.799  -3.074 -11.962  0.00  0.00    -0.343 N 
ATOM     16  H   UNL     1       6.221  -3.794 -11.664  0.00  0.00    +0.144 HD
ATOM     17  H   UNL     1       7.544  -3.264 -12.554  0.00  0.00    +0.144 HD
ENDBRANCH   1   2
BRANCH   1  18
ATOM     18  C   UNL     1       3.990  -1.773  -8.212  0.00  0.00    +0.173 C 
BRANCH  18  25
ATOM     19  C   UNL     1       0.191  -2.304  -3.349  0.00  0.00    +0.120 A 
ATOM     20  C   UNL     1       0.398  -3.625  -3.722  0.00  0.00    +0.062 A 
ATOM     21  N   UNL     1       1.182  -3.823  -4.751  0.00  0.00    -0.229 NA
ATOM     22  C   UNL     1       1.743  -2.815  -5.395  0.00  0.00    +0.165 A 
ATOM     23  S   UNL     1       1.180  -1.459  -4.573  0.00  0.00    -0.045 S 
ATOM     24  N   UNL     1       2.588  -2.863  -6.490  0.00  0.00    -0.264 N 
ATOM     25  C   UNL     1       3.069  -1.721  -7.020  0.00  0.00    +0.229 C 
ATOM     26  O   UNL     1       2.762  -0.651  -6.537  0.00  0.00    -0.275 OA
ATOM     27  C   UNL     1      -0.245  -4.770  -2.982  0.00  0.00    +0.067 C 
ATOM     28  H   UNL     1       2.834  -3.718  -6.875  0.00  0.00    +0.157 HD
BRANCH  19  29
ATOM     29  C   UNL     1      -0.618  -1.756  -2.262  0.00  0.00    +0.348 C 
ATOM     30  O   UNL     1      -1.230  -2.504  -1.523  0.00  0.00    -0.244 OA
BRANCH  29  31
ATOM     31  O   UNL     1      -0.686  -0.421  -2.078  0.00  0.00    -0.461 OA
BRANCH  31  33
ATOM     32  C   UNL     1      -1.449   1.573  -0.946  0.00  0.00    +0.048 C 
ATOM     33  C   UNL     1      -1.495   0.044  -0.996  0.00  0.00    +0.229 C 
ENDBRANCH  31  33
ENDBRANCH  29  31
ENDBRANCH  19  29
ENDBRANCH  18  25
ENDBRANCH   1  18
TORSDOF 6
