REMARK  Name = ZINC04029062
REMARK  12 active torsions:
REMARK  status: ('A' for Active; 'I' for Inactive)
REMARK    1  A    between atoms: C_1  and  C_2
REMARK    2  A    between atoms: C_2  and  C_3
REMARK    3  A    between atoms: C_3  and  C_27
REMARK    4  A    between atoms: C_5  and  C_9
REMARK    5  A    between atoms: C_5  and  C_19
REMARK    6  A    between atoms: C_9  and  C_10
REMARK    7  A    between atoms: C_10  and  N_60
REMARK    8  A    between atoms: C_11  and  C_12
REMARK    9  A    between atoms: C_11  and  N_60
REMARK   10  A    between atoms: C_17  and  O_18
REMARK   11  A    between atoms: C_22  and  O_25
REMARK   12  A    between atoms: O_25  and  C_26
REMARK                            x       y       z     vdW  Elec       q    Type
REMARK                         _______ _______ _______ _____ _____    ______ ____
ROOT
ATOM      1  C   UNL     1      -5.916   6.348   5.077  0.00  0.00    +0.067 C 
ATOM      2  C   UNL     1      -6.873   5.240   4.631  0.00  0.00    +0.046 C 
ATOM      3  C   UNL     1      -6.467   4.757   3.235  0.00  0.00    -0.001 C 
ATOM      4  C   UNL     1      -6.469   5.949   2.273  0.00  0.00    +0.039 C 
ATOM      5  C   UNL     1      -5.527   7.029   2.811  0.00  0.00    +0.161 C 
ATOM      6  O   UNL     1      -5.943   7.412   4.123  0.00  0.00    -0.374 OA
ATOM      7  C   UNL     1      -4.496   5.787   5.175  0.00  0.00    +0.041 C 
ENDROOT
BRANCH   3   8
ATOM      8  C   UNL     1      -7.449   3.719   2.754  0.00  0.00    -0.041 A 
ATOM      9  C   UNL     1      -8.554   3.405   3.523  0.00  0.00    +0.008 A 
ATOM     10  C   UNL     1      -9.458   2.458   3.081  0.00  0.00    +0.046 A 
ATOM     11  C   UNL     1      -9.250   1.815   1.870  0.00  0.00    +0.120 A 
ATOM     12  C   UNL     1      -8.137   2.127   1.103  0.00  0.00    +0.046 A 
ATOM     13  C   UNL     1      -7.239   3.079   1.546  0.00  0.00    +0.008 A 
BRANCH  11  14
ATOM     14  O   UNL     1     -10.135   0.879   1.436  0.00  0.00    -0.495 OA
ATOM     15  C   UNL     1     -11.258   0.608   2.278  0.00  0.00    +0.277 C 
ENDBRANCH  11  14
ENDBRANCH   3   8
BRANCH   1  17
ATOM     16  C   UNL     1      -5.395   7.987   6.890  0.00  0.00    +0.007 C 
ATOM     17  C   UNL     1      -6.351   6.878   6.445  0.00  0.00    +0.031 C 
ENDBRANCH   1  17
BRANCH   3  18
ATOM     18  C   UNL     1      -5.065   4.147   3.293  0.00  0.00    -0.007 C 
BRANCH  18  19
ATOM     19  C   UNL     1      -5.046   3.007   4.313  0.00  0.00    -0.081 C 
BRANCH  19  20
ATOM     20  N   UNL     1      -3.661   2.524   4.472  0.00  0.00    +0.382 N 
ATOM     21  H   UNL     1      -3.069   3.296   4.800  0.00  0.00    -0.085 HD
ATOM     22  H   UNL     1      -3.315   2.187   3.566  0.00  0.00    -0.085 HD
BRANCH  20  23
ATOM     23  C   UNL     1      -3.613   1.423   5.452  0.00  0.00    -0.043 C 
BRANCH  23  24
ATOM     24  C   UNL     1      -2.189   0.950   5.593  0.00  0.00    -0.023 A 
ATOM     25  C   UNL     1      -1.769  -0.188   4.931  0.00  0.00    +0.005 A 
ATOM     26  C   UNL     1      -0.463  -0.622   5.060  0.00  0.00    +0.000 A 
ATOM     27  C   UNL     1       0.427   0.080   5.852  0.00  0.00    +0.004 A 
ATOM     28  C   UNL     1       0.012   1.218   6.516  0.00  0.00    +0.045 A 
ATOM     29  C   UNL     1      -1.300   1.653   6.392  0.00  0.00    +0.118 A 
BRANCH  29  30
ATOM     30  O   UNL     1      -1.711   2.769   7.049  0.00  0.00    -0.507 OA
ATOM     31  H   UNL     1      -1.601   3.586   6.544  0.00  0.00    +0.292 HD
ENDBRANCH  29  30
ENDBRANCH  23  24
ENDBRANCH  20  23
ENDBRANCH  19  20
ENDBRANCH  18  19
ENDBRANCH   3  18
TORSDOF 9
