REMARK  Name = ZINC64143776
REMARK  9 active torsions:
REMARK  status: ('A' for Active; 'I' for Inactive)
REMARK    1  A    between atoms: C_1  and  C_2
REMARK    2  A    between atoms: C_7  and  N_8
REMARK    3  A    between atoms: C_9  and  C_11
REMARK    4  A    between atoms: C_11  and  N_12
REMARK    5  A    between atoms: N_12  and  C_13
REMARK    6  A    between atoms: N_12  and  C_14
REMARK    7  A    between atoms: C_14  and  C_16
REMARK    8  A    between atoms: C_14  and  C_17
REMARK    9  A    between atoms: C_17  and  C_19
REMARK                            x       y       z     vdW  Elec       q    Type
REMARK                         _______ _______ _______ _____ _____    ______ ____
ROOT
ATOM      1  N   UNL     1      -0.241  -0.906   5.992  0.00  0.00    +0.390 N 
ATOM      2  C   UNL     1       1.021  -1.653   6.078  0.00  0.00    -0.095 C 
ATOM      3  H   UNL     1      -1.002  -1.549   5.830  0.00  0.00    -0.081 HD
ENDROOT
BRANCH   1   4
ATOM      4  C   UNL     1      -0.469  -0.183   7.250  0.00  0.00    +0.001 C 
ATOM      5  C   UNL     1      -1.783   0.595   7.160  0.00  0.00    -0.005 C 
BRANCH   4   6
ATOM      6  C   UNL     1      -0.544  -1.168   8.389  0.00  0.00    +0.148 C 
ATOM      7  O   UNL     1      -0.695  -2.351   8.159  0.00  0.00    -0.294 OA
BRANCH   6   8
ATOM      8  C   UNL     1      -0.441  -0.715   9.721  0.00  0.00    +0.021 C 
ATOM      9  C   UNL     1      -0.485  -1.483  10.871  0.00  0.00    +0.006 A 
ATOM     10  C   UNL     1      -0.636  -2.872  11.096  0.00  0.00    +0.010 A 
ATOM     11  C   UNL     1      -0.644  -3.361  12.356  0.00  0.00    +0.001 A 
ATOM     12  C   UNL     1      -0.505  -2.537  13.485  0.00  0.00    +0.002 A 
ATOM     13  C   UNL     1      -0.355  -1.199  13.380  0.00  0.00    +0.026 A 
ATOM     14  C   UNL     1      -0.336  -0.585  12.042  0.00  0.00    +0.043 A 
ATOM     15  N   UNL     1      -0.208   0.652  11.656  0.00  0.00    -0.380 N 
ATOM     16  C   UNL     1      -0.252   0.710  10.191  0.00  0.00    +0.152 C 
ATOM     17  H   UNL     1      -0.097   1.416  12.244  0.00  0.00    +0.160 HD
ENDBRANCH   6   8
ENDBRANCH   4   6
ENDBRANCH   1   4
BRANCH   1  18
ATOM     18  C   UNL     1      -0.167   0.054   4.882  0.00  0.00    +0.019 C 
BRANCH  18  20
ATOM     19  N   UNL     1       0.026  -0.014   2.417  0.00  0.00    -0.287 N 
ATOM     20  C   UNL     1      -0.056  -0.694   3.578  0.00  0.00    +0.201 C 
ATOM     21  O   UNL     1      -0.040  -1.906   3.574  0.00  0.00    -0.278 OA
ATOM     22  H   UNL     1       0.079   0.955   2.425  0.00  0.00    +0.155 HD
BRANCH  19  29
ATOM     23  C   UNL     1      -1.265   1.183   0.182  0.00  0.00    +0.046 C 
ATOM     24  C   UNL     1      -0.584  -0.158   0.085  0.00  0.00    -0.028 A 
ATOM     25  C   UNL     1      -0.570  -0.840  -1.116  0.00  0.00    +0.020 A 
ATOM     26  C   UNL     1       0.055  -2.071  -1.206  0.00  0.00    +0.018 A 
ATOM     27  C   UNL     1       0.666  -2.623  -0.094  0.00  0.00    +0.017 A 
ATOM     28  C   UNL     1       0.655  -1.945   1.109  0.00  0.00    +0.024 A 
ATOM     29  C   UNL     1       0.034  -0.706   1.201  0.00  0.00    +0.036 A 
ATOM     30 BR   UNL     1       0.072  -3.002  -2.852  0.00  0.00    -0.050 Br
ENDBRANCH  19  29
ENDBRANCH  18  20
ENDBRANCH   1  18
TORSDOF 6
