REMARK  Name = ZINC02139662
REMARK  8 active torsions:
REMARK  status: ('A' for Active; 'I' for Inactive)
REMARK    1  A    between atoms: C_1  and  C_2
REMARK    2  A    between atoms: C_2  and  C_35
REMARK    3  A    between atoms: C_9  and  C_21
REMARK    4  A    between atoms: C_17  and  C_19
REMARK    5  A    between atoms: C_17  and  C_20
REMARK    6  A    between atoms: N_23  and  C_24
REMARK    7  A    between atoms: C_24  and  C_25
REMARK    8  A    between atoms: N_27  and  C_28
REMARK                            x       y       z     vdW  Elec       q    Type
REMARK                         _______ _______ _______ _____ _____    ______ ____
ROOT
ATOM      1  C   UNL     1      -6.180   4.800  -4.286  0.00  0.00    +0.074 C 
ATOM      2  C   UNL     1      -7.178   3.878  -3.582  0.00  0.00    +0.166 C 
ATOM      3  O   UNL     1      -7.188   2.600  -4.230  0.00  0.00    -0.341 OA
ATOM      4  C   UNL     1      -6.801   1.617  -3.249  0.00  0.00    +0.187 C 
ATOM      5  C   UNL     1      -6.163   2.417  -2.132  0.00  0.00    +0.191 C 
ATOM      6  O   UNL     1      -6.791   3.711  -2.212  0.00  0.00    -0.340 OA
ATOM      7  C   UNL     1      -6.261   1.847  -0.750  0.00  0.00    +0.238 C 
ATOM      8  O   UNL     1      -7.351   1.009  -0.492  0.00  0.00    -0.333 OA
ATOM      9  C   UNL     1      -7.868   0.163  -1.471  0.00  0.00    +0.286 C 
ATOM     10  C   UNL     1      -8.011   0.796  -2.853  0.00  0.00    +0.209 C 
ATOM     11  O   UNL     1      -8.054  -0.370  -3.717  0.00  0.00    -0.338 OA
ATOM     12  C   UNL     1      -7.233  -1.357  -3.076  0.00  0.00    +0.168 C 
ATOM     13  O   UNL     1      -7.095  -1.023  -1.686  0.00  0.00    -0.318 OA
ATOM     14  C   UNL     1      -5.853  -1.382  -3.736  0.00  0.00    +0.074 C 
ATOM     15  C   UNL     1      -7.888  -2.733  -3.209  0.00  0.00    +0.074 C 
ATOM     16  C   UNL     1      -8.576   4.495  -3.647  0.00  0.00    +0.074 C 
ENDROOT
BRANCH   7  17
ATOM     17  C   UNL     1      -5.000   1.068  -0.476  0.00  0.00    +0.245 C 
ATOM     18  O   UNL     1      -5.064  -0.109  -0.189  0.00  0.00    -0.273 OA
ATOM     19  N   UNL     1      -3.801   1.679  -0.551  0.00  0.00    -0.304 N 
ATOM     20  H   UNL     1      -3.749   2.620  -0.781  0.00  0.00    +0.149 HD
BRANCH  19  21
ATOM     21  C   UNL     1      -2.575   0.922  -0.285  0.00  0.00    +0.200 C 
BRANCH  21  22
ATOM     22  C   UNL     1      -1.382   1.830  -0.434  0.00  0.00    +0.234 C 
ATOM     23  O   UNL     1      -1.539   2.995  -0.733  0.00  0.00    -0.274 OA
ATOM     24  N   UNL     1      -0.139   1.348  -0.235  0.00  0.00    -0.284 N 
ATOM     25  H   UNL     1      -0.006   0.401  -0.072  0.00  0.00    +0.155 HD
BRANCH  24  26
ATOM     26  C   UNL     1       0.961   2.212  -0.270  0.00  0.00    +0.033 A 
ATOM     27  C   UNL     1       2.186   1.761  -0.745  0.00  0.00    +0.024 A 
ATOM     28  C   UNL     1       3.268   2.618  -0.783  0.00  0.00    +0.017 A 
ATOM     29  C   UNL     1       3.136   3.921  -0.338  0.00  0.00    +0.018 A 
ATOM     30  C   UNL     1       1.919   4.372   0.141  0.00  0.00    +0.017 A 
ATOM     31  C   UNL     1       0.832   3.521   0.177  0.00  0.00    +0.024 A 
ATOM     32 BR   UNL     1       4.623   5.089  -0.384  0.00  0.00    -0.050 Br
ENDBRANCH  24  26
ENDBRANCH  21  22
ENDBRANCH  19  21
ENDBRANCH   7  17
TORSDOF 4
