REMARK  Name = ZINC35897798
REMARK  11 active torsions:
REMARK  status: ('A' for Active; 'I' for Inactive)
REMARK    1  A    between atoms: C_1  and  C_2
REMARK    2  A    between atoms: C_2  and  C_3
REMARK    3  A    between atoms: C_2  and  N_4
REMARK    4  A    between atoms: C_5  and  C_7
REMARK    5  A    between atoms: C_11  and  N_12
REMARK    6  A    between atoms: C_13  and  C_15
REMARK    7  A    between atoms: C_21  and  C_23
REMARK    8  A    between atoms: C_27  and  C_31
REMARK    9  A    between atoms: C_31  and  C_32
REMARK   10  A    between atoms: C_31  and  C_33
REMARK   11  A    between atoms: C_31  and  C_34
REMARK                            x       y       z     vdW  Elec       q    Type
REMARK                         _______ _______ _______ _____ _____    ______ ____
ROOT
ATOM      1  C   UNL     1      -3.019  -2.242  -0.474  0.00  0.00    +0.069 A 
ATOM      2  C   UNL     1      -3.919  -2.011  -1.591  0.00  0.00    -0.023 A 
ATOM      3  C   UNL     1      -5.150  -2.542  -1.427  0.00  0.00    -0.004 A 
ATOM      4  S   UNL     1      -5.095  -3.320   0.161  0.00  0.00    -0.077 S 
ATOM      5  C   UNL     1      -3.513  -2.967   0.598  0.00  0.00    +0.084 A 
ATOM      6  C   UNL     1      -6.294  -2.475  -2.391  0.00  0.00    +0.046 C 
ATOM      7  C   UNL     1      -5.984  -1.390  -3.433  0.00  0.00    -0.000 C 
ATOM      8  C   UNL     1      -4.557  -1.593  -3.950  0.00  0.00    +0.009 C 
ATOM      9  C   UNL     1      -3.550  -1.244  -2.852  0.00  0.00    +0.037 C 
ENDROOT
BRANCH   1  11
ATOM     10  N   UNL     1      -1.372  -0.511   0.012  0.00  0.00    -0.309 N 
ATOM     11  C   UNL     1      -1.643  -1.734  -0.485  0.00  0.00    +0.247 C 
ATOM     12  O   UNL     1      -0.746  -2.417  -0.943  0.00  0.00    -0.270 OA
ATOM     13  H   UNL     1      -2.087   0.033   0.377  0.00  0.00    +0.149 HD
BRANCH  10  15
ATOM     14  C   UNL     1      -0.019   1.526   0.010  0.00  0.00    +0.027 C 
ATOM     15  C   UNL     1       0.002  -0.004   0.002  0.00  0.00    +0.067 C 
ATOM     16  C   UNL     1       0.742  -0.511   1.242  0.00  0.00    +0.027 C 
ENDBRANCH  10  15
ENDBRANCH   1  11
BRANCH   5  17
ATOM     17  N   UNL     1      -2.852  -3.319   1.766  0.00  0.00    -0.279 N 
ATOM     18  C   UNL     1      -3.492  -4.033   2.713  0.00  0.00    +0.221 C 
ATOM     19  O   UNL     1      -4.645  -4.368   2.544  0.00  0.00    -0.275 OA
ATOM     20  H   UNL     1      -1.930  -3.050   1.901  0.00  0.00    +0.155 HD
BRANCH  18  21
ATOM     21  C   UNL     1      -2.775  -4.415   3.982  0.00  0.00    +0.089 C 
ATOM     22  C   UNL     1      -2.325  -3.150   4.714  0.00  0.00    +0.013 C 
ATOM     23  C   UNL     1      -1.596  -3.538   6.003  0.00  0.00    +0.001 C 
ATOM     24  C   UNL     1      -2.541  -4.339   6.901  0.00  0.00    +0.001 C 
ATOM     25  C   UNL     1      -2.990  -5.605   6.168  0.00  0.00    +0.015 C 
ATOM     26  C   UNL     1      -3.719  -5.216   4.880  0.00  0.00    +0.114 C 
BRANCH  26  27
ATOM     27  C   UNL     1      -4.162  -6.463   4.159  0.00  0.00    +0.360 C 
ATOM     28  O   UNL     1      -4.432  -7.470   4.791  0.00  0.00    -0.246 OA
ATOM     29  O   UNL     1      -4.250  -6.465   2.942  0.00  0.00    -0.246 OA
ENDBRANCH  26  27
ENDBRANCH  18  21
ENDBRANCH   5  17
BRANCH   7  30
ATOM     30  C   UNL     1      -6.974  -1.498  -4.594  0.00  0.00    -0.035 C 
ATOM     31  C   UNL     1      -8.398  -1.307  -4.070  0.00  0.00    +0.011 C 
ATOM     32  C   UNL     1      -6.663  -0.416  -5.631  0.00  0.00    +0.011 C 
ATOM     33  C   UNL     1      -6.849  -2.877  -5.244  0.00  0.00    +0.011 C 
ENDBRANCH   7  30
TORSDOF 6
