REMARK  Name = ZINC26642027
REMARK  13 active torsions:
REMARK  status: ('A' for Active; 'I' for Inactive)
REMARK    1  A    between atoms: C_1  and  N_2
REMARK    2  A    between atoms: C_5  and  C_6
REMARK    3  A    between atoms: C_9  and  O_14
REMARK    4  A    between atoms: C_10  and  O_12
REMARK    5  A    between atoms: O_12  and  C_13
REMARK    6  A    between atoms: O_14  and  C_15
REMARK    7  A    between atoms: C_19  and  C_27
REMARK    8  A    between atoms: C_21  and  C_25
REMARK    9  A    between atoms: C_22  and  N_24
REMARK   10  A    between atoms: C_30  and  O_35
REMARK   11  A    between atoms: C_31  and  O_33
REMARK   12  A    between atoms: O_33  and  C_34
REMARK   13  A    between atoms: O_35  and  C_36
REMARK                            x       y       z     vdW  Elec       q    Type
REMARK                         _______ _______ _______ _____ _____    ______ ____
ROOT
ATOM      1  C   UNL     1      -4.709  -3.404   1.029  0.00  0.00    +0.105 C 
ATOM      2  N   UNL     1      -3.489  -2.593   0.913  0.00  0.00    -0.297 NA
ATOM      3  C   UNL     1      -3.777  -1.291   0.284  0.00  0.00    +0.123 C 
ATOM      4  C   UNL     1      -2.511  -0.466   0.377  0.00  0.00    +0.010 C 
ATOM      5  C   UNL     1      -2.553   0.844   0.680  0.00  0.00    +0.016 C 
ATOM      6  C   UNL     1      -1.228  -1.152   0.117  0.00  0.00    +0.136 C 
ATOM      7  C   UNL     1      -1.198  -2.483   0.030  0.00  0.00    -0.001 C 
ATOM      8  C   UNL     1      -2.452  -3.309   0.170  0.00  0.00    +0.120 C 
ATOM      9  C   UNL     1       0.106  -3.202  -0.220  0.00  0.00    +0.095 C 
ATOM     10  C   UNL     1       1.268  -2.303   0.093  0.00  0.00    +0.098 C 
ATOM     11  C   UNL     1       1.101  -0.960   0.180  0.00  0.00    +0.199 C 
ATOM     12  O   UNL     1      -0.107  -0.402  -0.009  0.00  0.00    -0.441 OA
ENDROOT
BRANCH   5  13
ATOM     13  C   UNL     1      -1.317   1.555   1.047  0.00  0.00    -0.021 A 
ATOM     14  C   UNL     1      -0.395   0.957   1.912  0.00  0.00    +0.012 A 
ATOM     15  C   UNL     1       0.764   1.623   2.250  0.00  0.00    +0.050 A 
ATOM     16  C   UNL     1       1.017   2.887   1.738  0.00  0.00    +0.162 A 
ATOM     17  C   UNL     1       0.101   3.491   0.878  0.00  0.00    +0.162 A 
ATOM     18  C   UNL     1      -1.063   2.831   0.535  0.00  0.00    +0.057 A 
BRANCH  17  19
ATOM     19  O   UNL     1       0.354   4.730   0.378  0.00  0.00    -0.491 OA
ATOM     20  C   UNL     1      -0.628   5.288  -0.497  0.00  0.00    +0.277 C 
ENDBRANCH  17  19
BRANCH  16  21
ATOM     21  O   UNL     1       2.162   3.538   2.074  0.00  0.00    -0.491 OA
ATOM     22  C   UNL     1       3.057   2.861   2.959  0.00  0.00    +0.277 C 
ENDBRANCH  16  21
ENDBRANCH   5  13
BRANCH   9  23
ATOM     23  C   UNL     1       0.177  -3.616  -1.668  0.00  0.00    -0.031 A 
ATOM     24  C   UNL     1       0.123  -2.657  -2.663  0.00  0.00    +0.008 A 
ATOM     25  C   UNL     1       0.188  -3.032  -3.992  0.00  0.00    +0.050 A 
ATOM     26  C   UNL     1       0.307  -4.371  -4.329  0.00  0.00    +0.162 A 
ATOM     27  C   UNL     1       0.362  -5.335  -3.328  0.00  0.00    +0.162 A 
ATOM     28  C   UNL     1       0.301  -4.953  -1.997  0.00  0.00    +0.054 A 
BRANCH  27  29
ATOM     29  O   UNL     1       0.479  -6.650  -3.654  0.00  0.00    -0.491 OA
ATOM     30  C   UNL     1       0.529  -7.585  -2.574  0.00  0.00    +0.277 C 
ENDBRANCH  27  29
BRANCH  26  31
ATOM     31  O   UNL     1       0.371  -4.741  -5.636  0.00  0.00    -0.491 OA
ATOM     32  C   UNL     1       0.310  -3.697  -6.610  0.00  0.00    +0.277 C 
ENDBRANCH  26  31
ENDBRANCH   9  23
BRANCH  11  33
ATOM     33  N   UNL     1       2.179  -0.160   0.466  0.00  0.00    -0.328 N 
ATOM     34  H   UNL     1       2.052   0.930   0.538  0.00  0.00    +0.145 HD
ATOM     35  H   UNL     1       3.171  -0.609   0.623  0.00  0.00    +0.145 HD
ENDBRANCH  11  33
BRANCH  10  36
ATOM     36  C   UNL     1       2.566  -2.870   0.300  0.00  0.00    +0.101 C 
ATOM     37  N   UNL     1       3.596  -3.321   0.465  0.00  0.00    -0.191 NA
ENDBRANCH  10  36
TORSDOF 8
