REMARK  Name = ZINC46025392
REMARK  7 active torsions:
REMARK  status: ('A' for Active; 'I' for Inactive)
REMARK    1  A    between atoms: C_1  and  C_2
REMARK    2  A    between atoms: C_9  and  C_11
REMARK    3  A    between atoms: N_19  and  C_20
REMARK    4  A    between atoms: C_26  and  C_28
REMARK    5  A    between atoms: C_28  and  C_29
REMARK    6  A    between atoms: C_28  and  C_30
REMARK    7  A    between atoms: C_28  and  C_31
REMARK                            x       y       z     vdW  Elec       q    Type
REMARK                         _______ _______ _______ _____ _____    ______ ____
ROOT
ATOM      1  C   UNL     1       0.043  -3.952   2.475  0.00  0.00    +0.078 C 
ATOM      2  C   UNL     1      -0.811  -4.308   1.257  0.00  0.00    +0.032 C 
ATOM      3  C   UNL     1      -0.721  -5.815   0.997  0.00  0.00    +0.110 C 
ATOM      4  N   UNL     1      -1.094  -6.530   2.225  0.00  0.00    -0.286 N 
ATOM      5  C   UNL     1      -0.396  -6.199   3.475  0.00  0.00    +0.110 C 
ATOM      6  C   UNL     1      -0.490  -4.688   3.707  0.00  0.00    +0.032 C 
ATOM      7  C   UNL     1      -2.059  -7.471   2.206  0.00  0.00    +0.302 C 
ATOM      8  O   UNL     1      -2.566  -7.801   1.151  0.00  0.00    -0.253 OA
ATOM      9  N   UNL     1      -2.461  -8.047   3.356  0.00  0.00    -0.296 N 
ATOM     10  H   UNL     1      -2.004  -7.843   4.187  0.00  0.00    +0.151 HD
ENDROOT
BRANCH   1  18
ATOM     11  C   UNL     1       3.367  -1.909  -0.673  0.00  0.00    +0.009 C 
ATOM     12  C   UNL     1       2.648  -1.492   0.612  0.00  0.00    +0.003 C 
ATOM     13  C   UNL     1       2.509   0.032   0.648  0.00  0.00    +0.006 C 
ATOM     14  C   UNL     1       1.820   0.451   1.949  0.00  0.00    +0.019 C 
ATOM     15  C   UNL     1       0.418  -0.164   2.001  0.00  0.00    +0.108 C 
ATOM     16  N   UNL     1       0.532  -1.617   1.821  0.00  0.00    -0.301 N 
ATOM     17  C   UNL     1       1.256  -2.130   0.649  0.00  0.00    +0.111 C 
ATOM     18  C   UNL     1      -0.016  -2.465   2.713  0.00  0.00    +0.219 C 
ATOM     19  O   UNL     1      -0.557  -2.032   3.708  0.00  0.00    -0.275 OA
ENDBRANCH   1  18
BRANCH   9  20
ATOM     20  C   UNL     1      -3.590  -8.980   3.352  0.00  0.00    +0.078 C 
ATOM     21  C   UNL     1      -4.897  -8.201   3.506  0.00  0.00    +0.022 C 
ATOM     22  C   UNL     1      -4.879  -7.430   4.827  0.00  0.00    +0.002 C 
ATOM     23  C   UNL     1      -4.731  -8.414   5.990  0.00  0.00    +0.000 C 
ATOM     24  C   UNL     1      -3.424  -9.193   5.836  0.00  0.00    +0.006 C 
ATOM     25  C   UNL     1      -3.442  -9.964   4.514  0.00  0.00    +0.015 C 
BRANCH  25  26
ATOM     26  C   UNL     1      -2.135 -10.744   4.360  0.00  0.00    -0.033 C 
ATOM     27  C   UNL     1      -0.950  -9.790   4.524  0.00  0.00    +0.011 C 
ATOM     28  C   UNL     1      -2.063 -11.835   5.430  0.00  0.00    +0.011 C 
ATOM     29  C   UNL     1      -2.085 -11.386   2.972  0.00  0.00    +0.011 C 
ENDBRANCH  25  26
ENDBRANCH   9  20
TORSDOF 3
