REMARK  Name = ZINC00265476
REMARK  7 active torsions:
REMARK  status: ('A' for Active; 'I' for Inactive)
REMARK    1  A    between atoms: C_1  and  C_2
REMARK    2  A    between atoms: C_3  and  C_4
REMARK    3  A    between atoms: C_3  and  C_5
REMARK    4  A    between atoms: C_5  and  O_7
REMARK    5  A    between atoms: O_7  and  C_8
REMARK    6  A    between atoms: C_23  and  C_24
REMARK    7  A    between atoms: C_23  and  C_25
REMARK                            x       y       z     vdW  Elec       q    Type
REMARK                         _______ _______ _______ _____ _____    ______ ____
ROOT
ATOM      1  C   UNL     1      -0.727   1.579   1.269  0.00  0.00    +0.224 C 
ATOM      2  C   UNL     1      -0.013   1.086   0.008  0.00  0.00    +0.087 C 
ATOM      3  C   UNL     1      -0.741   1.585  -1.215  0.00  0.00    -0.001 A 
ATOM      4  C   UNL     1      -0.081   1.577  -2.415  0.00  0.00    +0.019 A 
ATOM      5  C   UNL     1      -0.723   2.027  -3.572  0.00  0.00    +0.018 A 
ATOM      6  C   UNL     1      -0.033   2.026  -4.864  0.00  0.00    +0.018 A 
ATOM      7  C   UNL     1      -0.719   2.477  -5.947  0.00  0.00    +0.092 A 
ATOM      8  C   UNL     1      -2.047   2.922  -5.794  0.00  0.00    +0.337 A 
ATOM      9  O   UNL     1      -2.644   3.321  -6.777  0.00  0.00    -0.245 OA
ATOM     10  O   UNL     1      -2.679   2.925  -4.616  0.00  0.00    -0.422 OA
ATOM     11  C   UNL     1      -2.050   2.490  -3.506  0.00  0.00    +0.143 A 
ATOM     12  C   UNL     1      -2.702   2.493  -2.283  0.00  0.00    +0.093 A 
ATOM     13  C   UNL     1      -2.051   2.044  -1.141  0.00  0.00    +0.128 A 
ATOM     14  O   UNL     1      -2.729   2.074   0.036  0.00  0.00    -0.482 OA
ATOM     15  C   UNL     1      -2.225   1.290   1.118  0.00  0.00    +0.142 C 
ATOM     16  C   UNL     1      -2.955   1.664   2.409  0.00  0.00    +0.059 C 
ATOM     17  C   UNL     1      -2.437  -0.196   0.818  0.00  0.00    +0.059 C 
ENDROOT
BRANCH   1  18
ATOM     18  O   UNL     1      -0.517   3.007   1.424  0.00  0.00    -0.454 OA
BRANCH  18  19
ATOM     19  C   UNL     1       0.561   3.393   2.134  0.00  0.00    +0.335 C 
ATOM     20  O   UNL     1       1.305   2.559   2.611  0.00  0.00    -0.245 OA
BRANCH  19  23
ATOM     21  C   UNL     1       2.824   4.171   3.626  0.00  0.00    +0.036 C 
ATOM     22  C   UNL     1       1.901   5.205   3.034  0.00  0.00    -0.020 C 
ATOM     23  C   UNL     1       0.836   4.823   2.332  0.00  0.00    +0.029 C 
ATOM     24  C   UNL     1      -0.087   5.857   1.741  0.00  0.00    +0.051 C 
ENDBRANCH  19  23
ENDBRANCH  18  19
ENDBRANCH   1  18
TORSDOF 3
