REMARK  Name = ZINC09378856
REMARK  9 active torsions:
REMARK  status: ('A' for Active; 'I' for Inactive)
REMARK    1  A    between atoms: C_1  and  C_2
REMARK    2  A    between atoms: C_2  and  C_4
REMARK    3  A    between atoms: C_2  and  N_19
REMARK    4  A    between atoms: N_6  and  C_7
REMARK    5  A    between atoms: C_8  and  C_17
REMARK    6  A    between atoms: N_19  and  C_20
REMARK    7  A    between atoms: C_25  and  C_26
REMARK    8  A    between atoms: N_28  and  C_29
REMARK    9  A    between atoms: C_29  and  C_30
REMARK                            x       y       z     vdW  Elec       q    Type
REMARK                         _______ _______ _______ _____ _____    ______ ____
ROOT
ATOM      1  C   UNL     1      -4.257   6.910  -5.396  0.00  0.00    +0.038 C 
ATOM      2  C   UNL     1      -2.809   6.453  -5.584  0.00  0.00    +0.154 C 
ENDROOT
BRANCH   2   3
ATOM      3  C   UNL     1      -2.716   5.566  -6.799  0.00  0.00    +0.238 C 
ATOM      4  O   UNL     1      -2.325   4.424  -6.687  0.00  0.00    -0.273 OA
ATOM      5  N   UNL     1      -3.066   6.043  -8.010  0.00  0.00    -0.277 N 
ATOM      6  H   UNL     1      -3.379   6.957  -8.099  0.00  0.00    +0.155 HD
BRANCH   5   7
ATOM      7  C   UNL     1      -2.980   5.226  -9.129  0.00  0.00    +0.090 A 
ATOM      8  C   UNL     1      -3.297   5.529 -10.442  0.00  0.00    +0.084 A 
ATOM      9  C   UNL     1      -3.110   4.488 -11.443  0.00  0.00    -0.018 A 
ATOM     10  C   UNL     1      -2.653   3.312 -10.961  0.00  0.00    -0.004 A 
ATOM     11  S   UNL     1      -2.458   3.578  -9.220  0.00  0.00    -0.077 S 
ATOM     12  C   UNL     1      -2.385   2.052 -11.725  0.00  0.00    +0.043 C 
ATOM     13  C   UNL     1      -1.545   2.382 -12.966  0.00  0.00    +0.005 C 
ATOM     14  C   UNL     1      -2.493   2.705 -14.117  0.00  0.00    +0.001 C 
ATOM     15  C   UNL     1      -3.754   3.382 -13.586  0.00  0.00    +0.005 C 
ATOM     16  C   UNL     1      -3.406   4.710 -12.921  0.00  0.00    +0.037 C 
BRANCH   8  17
ATOM     17  C   UNL     1      -3.788   6.825 -10.805  0.00  0.00    +0.102 C 
ATOM     18  N   UNL     1      -4.178   7.852 -11.093  0.00  0.00    -0.191 NA
ENDBRANCH   8  17
ENDBRANCH   5   7
ENDBRANCH   2   3
BRANCH   2  19
ATOM     19  N   UNL     1      -2.375   5.707  -4.400  0.00  0.00    -0.333 N 
ATOM     20  H   UNL     1      -2.435   4.739  -4.388  0.00  0.00    +0.147 HD
BRANCH  19  21
ATOM     21  C   UNL     1      -1.878   6.386  -3.296  0.00  0.00    +0.040 A 
ATOM     22  C   UNL     1      -1.896   7.775  -3.263  0.00  0.00    +0.024 A 
ATOM     23  C   UNL     1      -1.396   8.447  -2.167  0.00  0.00    +0.002 A 
ATOM     24  C   UNL     1      -0.877   7.746  -1.090  0.00  0.00    +0.001 A 
ATOM     25  C   UNL     1      -0.855   6.369  -1.102  0.00  0.00    +0.015 A 
ATOM     26  C   UNL     1      -1.358   5.673  -2.204  0.00  0.00    +0.057 A 
BRANCH  26  27
ATOM     27  C   UNL     1      -1.336   4.199  -2.224  0.00  0.00    +0.246 C 
ATOM     28  O   UNL     1      -1.871   3.595  -3.135  0.00  0.00    -0.270 OA
ATOM     29  N   UNL     1      -0.725   3.520  -1.233  0.00  0.00    -0.309 N 
ATOM     30  H   UNL     1      -0.298   4.002  -0.507  0.00  0.00    +0.149 HD
BRANCH  29  31
ATOM     31  C   UNL     1      -0.704   2.056  -1.253  0.00  0.00    +0.136 C 
BRANCH  31  32
ATOM     32  C   UNL     1       0.048   1.540  -0.024  0.00  0.00    +0.135 C 
ATOM     33  C   UNL     1       0.076  -0.001  -0.035  0.00  0.00    +0.035 C 
ATOM     34  C   UNL     1       1.583  -0.353  -0.027  0.00  0.00    +0.031 C 
ATOM     35  C   UNL     1       2.218   0.948   0.527  0.00  0.00    +0.160 C 
ATOM     36  O   UNL     1       1.412   1.992  -0.059  0.00  0.00    -0.375 OA
ENDBRANCH  31  32
ENDBRANCH  29  31
ENDBRANCH  26  27
ENDBRANCH  19  21
ENDBRANCH   2  19
TORSDOF 8
