REMARK  Name = ZINC37320885
REMARK  6 active torsions:
REMARK  status: ('A' for Active; 'I' for Inactive)
REMARK    1  A    between atoms: C_1  and  C_2
REMARK    2  A    between atoms: C_2  and  C_4
REMARK    3  A    between atoms: C_2  and  N_11
REMARK    4  A    between atoms: N_11  and  C_12
REMARK    5  A    between atoms: C_15  and  O_21
REMARK    6  A    between atoms: C_17  and  N_18
REMARK                            x       y       z     vdW  Elec       q    Type
REMARK                         _______ _______ _______ _____ _____    ______ ____
ROOT
ATOM      1  N   UNL     1      -1.331  -0.606  -0.003  0.00  0.00    -0.336 N 
ATOM      2  H   UNL     1      -1.693  -0.984   0.813  0.00  0.00    +0.147 HD
ENDROOT
BRANCH   1   3
ATOM      3  C   UNL     1      -2.056  -0.695  -1.197  0.00  0.00    +0.058 A 
ATOM      4  C   UNL     1      -1.490  -0.259  -2.388  0.00  0.00    +0.029 A 
ATOM      5  C   UNL     1      -2.207  -0.347  -3.565  0.00  0.00    +0.047 A 
ATOM      6  C   UNL     1      -3.491  -0.872  -3.558  0.00  0.00    +0.119 A 
ATOM      7  C   UNL     1      -4.057  -1.307  -2.370  0.00  0.00    +0.080 A 
ATOM      8  C   UNL     1      -3.340  -1.225  -1.192  0.00  0.00    +0.150 A 
BRANCH   8   9
ATOM      9  N   UNL     1      -3.942  -1.695   0.076  0.00  0.00    +0.058 N 
ATOM     10  O   UNL     1      -4.644  -2.679   0.083  0.00  0.00    -0.126 OA
ATOM     11  O   UNL     1      -3.731  -1.095   1.104  0.00  0.00    -0.126 OA
ENDBRANCH   8   9
BRANCH   6  12
ATOM     12  O   UNL     1      -4.195  -0.959  -4.718  0.00  0.00    -0.507 OA
ATOM     13  H   UNL     1      -4.070  -1.792  -5.193  0.00  0.00    +0.292 HD
ENDBRANCH   6  12
ENDBRANCH   1   3
BRANCH   1  15
ATOM     14  C   UNL     1      -0.224   1.566   0.192  0.00  0.00    +0.033 C 
ATOM     15  C   UNL     1      -0.026   0.060   0.013  0.00  0.00    +0.098 C 
BRANCH  15  16
ATOM     16  C   UNL     1       0.797  -0.478   1.155  0.00  0.00    -0.028 A 
ATOM     17  C   UNL     1       0.201  -0.741   2.374  0.00  0.00    +0.006 A 
ATOM     18  C   UNL     1       0.956  -1.234   3.421  0.00  0.00    +0.015 A 
ATOM     19  C   UNL     1       2.309  -1.464   3.250  0.00  0.00    +0.013 A 
ATOM     20  C   UNL     1       2.906  -1.201   2.030  0.00  0.00    +0.015 A 
ATOM     21  C   UNL     1       2.149  -0.713   0.982  0.00  0.00    +0.006 A 
ATOM     22  I   UNL     1       3.454  -2.211   4.837  0.00  0.00    -0.044 I 
ENDBRANCH  15  16
ENDBRANCH   1  15
TORSDOF 5
