REMARK  Name = ZINC08914481
REMARK  4 active torsions:
REMARK  status: ('A' for Active; 'I' for Inactive)
REMARK    1  A    between atoms: C_4  and  C_7
REMARK    2  A    between atoms: C_15  and  C_17
REMARK    3  A    between atoms: C_17  and  C_19
REMARK    4  A    between atoms: C_23  and  N_25
REMARK                            x       y       z     vdW  Elec       q    Type
REMARK                         _______ _______ _______ _____ _____    ______ ____
ROOT
ATOM      1  C   UNL     1       2.292   0.960  -0.189  0.00  0.00    +0.016 C 
ATOM      2  C   UNL     1       2.973   1.486   1.092  0.00  0.00    -0.047 C 
ATOM      3  C   UNL     1       2.262   2.782   1.543  0.00  0.00    +0.052 C 
ATOM      4  S   UNL     1       3.714   3.748   2.154  0.00  0.00    -0.181 S 
ATOM      5  C   UNL     1       4.955   3.010   1.003  0.00  0.00    -0.005 C 
ATOM      6  C   UNL     1       4.638   1.240  -0.589  0.00  0.00    +0.052 C 
ATOM      7  C   UNL     1       3.283   1.370  -1.313  0.00  0.00    +0.069 C 
ATOM      8  C   UNL     1       5.693   2.078  -1.252  0.00  0.00    -0.027 A 
ATOM      9  C   UNL     1       5.813   3.427  -1.504  0.00  0.00    +0.004 A 
ATOM     10  C   UNL     1       6.934   3.914  -2.151  0.00  0.00    +0.000 A 
ATOM     11  C   UNL     1       7.933   3.042  -2.545  0.00  0.00    +0.002 A 
ATOM     12  C   UNL     1       7.818   1.691  -2.297  0.00  0.00    +0.023 A 
ATOM     13  C   UNL     1       6.692   1.192  -1.645  0.00  0.00    +0.036 A 
ATOM     14  N   UNL     1       6.348  -0.113  -1.284  0.00  0.00    -0.286 N 
ATOM     15  C   UNL     1       5.156  -0.170  -0.660  0.00  0.00    +0.212 C 
ATOM     16  O   UNL     1       4.607  -1.165  -0.236  0.00  0.00    -0.277 OA
ATOM     17  H   UNL     1       6.904  -0.888  -1.463  0.00  0.00    +0.155 HD
ATOM     18  N   UNL     1       4.427   1.621   0.795  0.00  0.00    +0.401 N 
ATOM     19  H   UNL     1       4.947   0.983   1.409  0.00  0.00    -0.078 HD
ENDROOT
BRANCH   1  23
ATOM     20  C   UNL     1      -1.500   2.842  -0.762  0.00  0.00    +0.000 A 
ATOM     21  C   UNL     1      -0.338   3.581  -0.874  0.00  0.00    +0.000 A 
ATOM     22  C   UNL     1       0.890   2.971  -0.694  0.00  0.00    +0.004 A 
ATOM     23  C   UNL     1       0.954   1.624  -0.391  0.00  0.00    -0.045 A 
ATOM     24  C   UNL     1      -0.209   0.886  -0.273  0.00  0.00    +0.004 A 
ATOM     25  C   UNL     1      -1.436   1.495  -0.458  0.00  0.00    +0.000 A 
ENDBRANCH   1  23
BRANCH   7  26
ATOM     26  C   UNL     1       3.043   2.790  -1.754  0.00  0.00    +0.166 C 
ATOM     27  O   UNL     1       3.416   3.712  -1.061  0.00  0.00    -0.292 OA
BRANCH  26  28
ATOM     28  C   UNL     1       2.354   3.059  -3.027  0.00  0.00    +0.020 A 
ATOM     29  C   UNL     1       1.927   1.998  -3.833  0.00  0.00    +0.011 A 
ATOM     30  C   UNL     1       1.278   2.258  -5.021  0.00  0.00    +0.003 A 
ATOM     31  C   UNL     1       1.059   3.564  -5.423  0.00  0.00    +0.033 A 
ATOM     32  C   UNL     1       1.484   4.619  -4.634  0.00  0.00    +0.127 A 
ATOM     33  C   UNL     1       2.129   4.376  -3.440  0.00  0.00    +0.044 A 
BRANCH  32  34
ATOM     34  N   UNL     1       1.244   6.012  -5.073  0.00  0.00    +0.056 N 
ATOM     35  O   UNL     1       1.617   6.942  -4.380  0.00  0.00    -0.126 OA
ATOM     36  O   UNL     1       0.675   6.229  -6.128  0.00  0.00    -0.126 OA
ENDBRANCH  32  34
ENDBRANCH  26  28
ENDBRANCH   7  26
TORSDOF 4
