REMARK  Name = ZINC40728237
REMARK  6 active torsions:
REMARK  status: ('A' for Active; 'I' for Inactive)
REMARK    1  A    between atoms: C_1  and  C_2
REMARK    2  A    between atoms: C_5  and  S_8
REMARK    3  A    between atoms: S_8  and  C_9
REMARK    4  A    between atoms: C_10  and  N_28
REMARK    5  A    between atoms: C_11  and  N_15
REMARK    6  A    between atoms: N_18  and  C_21
REMARK                            x       y       z     vdW  Elec       q    Type
REMARK                         _______ _______ _______ _____ _____    ______ ____
ROOT
ATOM      1  C   UNL     1      -1.072  -4.676   2.671  0.00  0.00    +0.127 A 
ATOM      2  C   UNL     1      -1.103  -6.037   2.981  0.00  0.00    +0.098 A 
ATOM      3  C   UNL     1       0.110  -6.720   3.072  0.00  0.00    +0.147 A 
ATOM      4  N   UNL     1       1.243  -6.053   2.862  0.00  0.00    -0.219 NA
ATOM      5  C   UNL     1       1.229  -4.768   2.572  0.00  0.00    +0.224 A 
ATOM      6  N   UNL     1       0.105  -4.087   2.472  0.00  0.00    -0.227 NA
ENDROOT
BRANCH   3   7
ATOM      7  N   UNL     1       0.136  -8.076   3.378  0.00  0.00    -0.311 N 
ATOM      8  C   UNL     1      -0.018  -9.084   2.320  0.00  0.00    +0.125 C 
ATOM      9  C   UNL     1       1.183 -10.037   2.373  0.00  0.00    +0.124 C 
ATOM     10  N   UNL     1       1.365 -10.487   3.760  0.00  0.00    -0.327 N 
ATOM     11  C   UNL     1       1.518  -9.479   4.818  0.00  0.00    +0.124 C 
ATOM     12  C   UNL     1       0.323  -8.526   4.764  0.00  0.00    +0.125 C 
BRANCH  10  13
ATOM     13  C   UNL     1       1.390 -11.849   4.067  0.00  0.00    +0.031 A 
ATOM     14  C   UNL     1       1.371 -12.793   3.048  0.00  0.00    +0.023 A 
ATOM     15  C   UNL     1       1.397 -14.140   3.354  0.00  0.00    +0.003 A 
ATOM     16  C   UNL     1       1.441 -14.549   4.675  0.00  0.00    +0.020 A 
ATOM     17  C   UNL     1       1.460 -13.612   5.693  0.00  0.00    +0.043 A 
ATOM     18  C   UNL     1       1.440 -12.263   5.392  0.00  0.00    +0.043 A 
ATOM     19 CL   UNL     1       1.516 -14.131   7.348  0.00  0.00    -0.083 Cl
ENDBRANCH  10  13
ENDBRANCH   3   7
BRANCH   2  20
ATOM     20  N   UNL     1      -2.322  -6.700   3.195  0.00  0.00    -0.353 N 
ATOM     21  H   UNL     1      -3.160  -6.231   3.058  0.00  0.00    +0.142 HD
ATOM     22  H   UNL     1      -2.327  -7.627   3.481  0.00  0.00    +0.142 HD
ENDBRANCH   2  20
BRANCH   1  23
ATOM     23  S   UNL     1      -2.568  -3.753   2.540  0.00  0.00    -0.068 S 
BRANCH  23  28
ATOM     24  C   UNL     1      -0.764   1.697   0.675  0.00  0.00    +0.044 C 
ATOM     25  C   UNL     1      -1.214   0.336   1.141  0.00  0.00    -0.050 A 
ATOM     26  C   UNL     1      -1.437  -0.670   0.218  0.00  0.00    +0.004 A 
ATOM     27  C   UNL     1      -1.850  -1.918   0.641  0.00  0.00    +0.015 A 
ATOM     28  C   UNL     1      -2.041  -2.162   1.996  0.00  0.00    +0.014 A 
ATOM     29  C   UNL     1      -1.815  -1.149   2.920  0.00  0.00    +0.015 A 
ATOM     30  C   UNL     1      -1.398   0.095   2.490  0.00  0.00    +0.004 A 
ENDBRANCH  23  28
ENDBRANCH   1  23
TORSDOF 5
