REMARK  Name = ZINC35705220
REMARK  15 active torsions:
REMARK  status: ('A' for Active; 'I' for Inactive)
REMARK    1  A    between atoms: C_1  and  C_2
REMARK    2  A    between atoms: C_2  and  C_3
REMARK    3  A    between atoms: C_4  and  C_35
REMARK    4  A    between atoms: C_5  and  C_19
REMARK    5  A    between atoms: C_8  and  C_13
REMARK    6  A    between atoms: C_14  and  N_16
REMARK    7  A    between atoms: N_16  and  C_17
REMARK    8  A    between atoms: C_17  and  C_18
REMARK    9  A    between atoms: C_22  and  O_27
REMARK   10  A    between atoms: C_23  and  O_25
REMARK   11  A    between atoms: O_25  and  C_26
REMARK   12  A    between atoms: O_27  and  C_28
REMARK   13  A    between atoms: C_28  and  C_29
REMARK   14  A    between atoms: C_35  and  O_37
REMARK   15  A    between atoms: O_37  and  C_38
REMARK                            x       y       z     vdW  Elec       q    Type
REMARK                         _______ _______ _______ _____ _____    ______ ____
ROOT
ATOM      1  C   UNL     1       0.794  -0.835  -1.480  0.00  0.00    +0.056 C 
ATOM      2  C   UNL     1       2.175  -0.863  -1.442  0.00  0.00    +0.083 C 
ATOM      3  C   UNL     1       2.914  -0.964  -2.758  0.00  0.00    +0.150 C 
ATOM      4  N   UNL     1       2.090  -1.025  -3.994  0.00  0.00    -0.267 N 
ATOM      5  C   UNL     1       2.547  -1.119  -5.294  0.00  0.00    +0.048 C 
ATOM      6  C   UNL     1       1.625  -1.163  -6.281  0.00  0.00    +0.072 C 
ATOM      7  S   UNL     1       0.100  -1.071  -5.365  0.00  0.00    -0.060 S 
ATOM      8  C   UNL     1       0.736  -0.984  -3.814  0.00  0.00    +0.166 C 
ATOM      9  N   UNL     1       0.153  -0.900  -2.636  0.00  0.00    -0.229 NA
ENDROOT
BRANCH   3  10
ATOM     10  C   UNL     1       3.828   0.230  -2.869  0.00  0.00    -0.018 A 
ATOM     11  C   UNL     1       3.297   1.486  -3.095  0.00  0.00    +0.009 A 
ATOM     12  C   UNL     1       4.131   2.584  -3.197  0.00  0.00    +0.050 A 
ATOM     13  C   UNL     1       5.502   2.426  -3.074  0.00  0.00    +0.162 A 
ATOM     14  C   UNL     1       6.036   1.162  -2.846  0.00  0.00    +0.162 A 
ATOM     15  C   UNL     1       5.194   0.066  -2.740  0.00  0.00    +0.055 A 
BRANCH  14  16
ATOM     16  O   UNL     1       7.381   1.002  -2.725  0.00  0.00    -0.491 OA
ATOM     17  C   UNL     1       7.867  -0.336  -2.596  0.00  0.00    +0.277 C 
ENDBRANCH  14  16
BRANCH  13  18
ATOM     18  O   UNL     1       6.324   3.505  -3.175  0.00  0.00    -0.484 OA
BRANCH  18  19
ATOM     19  C   UNL     1       5.706   4.772  -3.410  0.00  0.00    +0.264 C 
BRANCH  19  20
ATOM     20  C   UNL     1       6.765   5.840  -3.492  0.00  0.00    -0.010 A 
ATOM     21  C   UNL     1       7.169   6.503  -2.348  0.00  0.00    +0.007 A 
ATOM     22  C   UNL     1       8.141   7.483  -2.424  0.00  0.00    +0.000 A 
ATOM     23  C   UNL     1       8.709   7.800  -3.644  0.00  0.00    +0.000 A 
ATOM     24  C   UNL     1       8.306   7.137  -4.787  0.00  0.00    +0.000 A 
ATOM     25  C   UNL     1       7.337   6.154  -4.711  0.00  0.00    +0.007 A 
ENDBRANCH  19  20
ENDBRANCH  18  19
ENDBRANCH  13  18
ENDBRANCH   3  10
BRANCH   5  26
ATOM     26  C   UNL     1       3.985  -1.170  -5.593  0.00  0.00    +0.091 C 
ATOM     27  C   UNL     1       4.404  -1.443  -6.843  0.00  0.00    +0.239 C 
ATOM     28  O   UNL     1       3.505  -1.540  -7.853  0.00  0.00    -0.271 OA
BRANCH  27  29
ATOM     29  N   UNL     1       5.753  -1.625  -7.098  0.00  0.00    -0.312 N 
ATOM     30  H   UNL     1       6.388  -1.631  -6.365  0.00  0.00    +0.149 HD
BRANCH  29  31
ATOM     31  C   UNL     1       6.221  -1.810  -8.474  0.00  0.00    +0.101 C 
ATOM     32  C   UNL     1       7.721  -2.109  -8.466  0.00  0.00    +0.024 C 
ENDBRANCH  29  31
ENDBRANCH  27  29
ENDBRANCH   5  26
BRANCH   1  34
ATOM     33  C   UNL     1      -0.114   0.734   0.212  0.00  0.00    +0.010 C 
ATOM     34  C   UNL     1       0.012  -0.736  -0.196  0.00  0.00    +0.053 C 
ENDBRANCH   1  34
BRANCH   2  35
ATOM     35  C   UNL     1       2.866  -0.799  -0.227  0.00  0.00    +0.339 C 
ATOM     36  O   UNL     1       2.258  -0.607   0.812  0.00  0.00    -0.245 OA
BRANCH  35  37
ATOM     37  O   UNL     1       4.209  -0.950  -0.205  0.00  0.00    -0.465 OA
ATOM     38  C   UNL     1       4.850  -0.874   1.070  0.00  0.00    +0.280 C 
ENDBRANCH  35  37
ENDBRANCH   2  35
TORSDOF 11
