REMARK  Name = ZINC37191401
REMARK  5 active torsions:
REMARK  status: ('A' for Active; 'I' for Inactive)
REMARK    1  A    between atoms: C_3  and  C_6
REMARK    2  A    between atoms: C_8  and  C_11
REMARK    3  A    between atoms: C_11  and  S_12
REMARK    4  A    between atoms: S_12  and  C_13
REMARK    5  A    between atoms: C_16  and  N_19
REMARK                            x       y       z     vdW  Elec       q    Type
REMARK                         _______ _______ _______ _____ _____    ______ ____
ROOT
ATOM      1  C   UNL     1       7.295   1.023  -0.073  0.00  0.00    +0.155 C 
ENDROOT
BRANCH   1   4
ATOM      2  C   UNL     1       3.728   1.669  -0.025  0.00  0.00    +0.265 A 
ATOM      3  N   UNL     1       4.774   0.868  -0.045  0.00  0.00    -0.191 NA
ATOM      4  C   UNL     1       5.897   1.587  -0.051  0.00  0.00    +0.182 A 
ATOM      5  N   UNL     1       5.595   2.854  -0.036  0.00  0.00    -0.060 NA
ATOM      6  O   UNL     1       4.178   2.938  -0.024  0.00  0.00    -0.332 OA
BRANCH   2   9
ATOM      7  C   UNL     1      -0.016   1.350   0.009  0.00  0.00    +0.008 A 
ATOM      8  C   UNL     1       1.178   2.035   0.002  0.00  0.00    +0.021 A 
ATOM      9  C   UNL     1       2.320   1.252  -0.013  0.00  0.00    +0.077 A 
ATOM     10  S   UNL     1       1.636  -0.394  -0.016  0.00  0.00    -0.092 S 
ATOM     11  C   UNL     1       0.002  -0.004   0.002  0.00  0.00    +0.046 A 
ENDBRANCH   2   9
ENDBRANCH   1   4
BRANCH   1  12
ATOM     12  S   UNL     1       7.835   0.812  -1.792  0.00  0.00    -0.098 S 
BRANCH  12  13
ATOM     13  C   UNL     1       9.464   0.154  -1.649  0.00  0.00    +0.097 A 
ATOM     14  C   UNL     1      10.194  -0.130  -2.798  0.00  0.00    +0.036 A 
ATOM     15  C   UNL     1      11.471  -0.646  -2.675  0.00  0.00    +0.027 A 
ATOM     16  C   UNL     1      11.979  -0.863  -1.395  0.00  0.00    +0.043 A 
ATOM     17  C   UNL     1      11.193  -0.556  -0.294  0.00  0.00    +0.134 A 
ATOM     18  N   UNL     1       9.980  -0.060  -0.449  0.00  0.00    -0.247 NA
BRANCH  16  19
ATOM     19  N   UNL     1      13.267  -1.385  -1.222  0.00  0.00    -0.357 N 
ATOM     20  H   UNL     1      13.812  -1.597  -1.996  0.00  0.00    +0.142 HD
ATOM     21  H   UNL     1      13.615  -1.533  -0.329  0.00  0.00    +0.142 HD
ENDBRANCH  16  19
ENDBRANCH  12  13
ENDBRANCH   1  12
TORSDOF 5
