REMARK  Name = ZINC65260117
REMARK  7 active torsions:
REMARK  status: ('A' for Active; 'I' for Inactive)
REMARK    1  A    between atoms: C_1  and  C_2
REMARK    2  A    between atoms: C_2  and  N_3
REMARK    3  A    between atoms: C_6  and  C_8
REMARK    4  A    between atoms: N_25  and  C_26
REMARK    5  A    between atoms: C_26  and  C_27
REMARK    6  A    between atoms: C_26  and  C_28
REMARK    7  A    between atoms: C_26  and  C_29
REMARK                            x       y       z     vdW  Elec       q    Type
REMARK                         _______ _______ _______ _____ _____    ______ ____
ROOT
ATOM      1  C   UNL     1       1.620  -0.217  -5.045  0.00  0.00    +0.268 C 
ATOM      2  O   UNL     1       2.350  -0.892  -5.744  0.00  0.00    -0.268 OA
ATOM      3  N   UNL     1       0.602   0.470  -5.601  0.00  0.00    -0.294 N 
ATOM      4  C   UNL     1      -0.218   1.381  -4.791  0.00  0.00    +0.108 C 
ATOM      5  C   UNL     1      -1.693   1.002  -4.961  0.00  0.00    +0.021 C 
ATOM      6  C   UNL     1      -2.046   1.002  -6.451  0.00  0.00    +0.036 C 
ATOM      7  C   UNL     1      -1.188  -0.029  -7.180  0.00  0.00    +0.102 C 
ATOM      8  C   UNL     1       0.295   0.328  -7.032  0.00  0.00    +0.141 C 
ATOM      9  C   UNL     1      -1.558  -0.054  -8.648  0.00  0.00    +0.098 C 
ATOM     10  N   UNL     1      -1.035  -1.091  -9.399  0.00  0.00    -0.301 N 
ATOM     11  C   UNL     1      -0.948  -2.356  -8.792  0.00  0.00    +0.053 A 
ATOM     12  C   UNL     1      -0.671  -3.474  -9.562  0.00  0.00    +0.025 A 
ATOM     13  C   UNL     1      -0.580  -4.718  -8.965  0.00  0.00    +0.002 A 
ATOM     14  C   UNL     1      -0.763  -4.850  -7.601  0.00  0.00    +0.002 A 
ATOM     15  C   UNL     1      -1.041  -3.740  -6.826  0.00  0.00    +0.025 A 
ATOM     16  C   UNL     1      -1.139  -2.489  -7.418  0.00  0.00    +0.049 A 
ATOM     17  N   UNL     1      -1.440  -1.367  -6.631  0.00  0.00    -0.329 N 
ATOM     18  N   UNL     1      -2.325   0.847  -9.173  0.00  0.00    -0.370 N 
ATOM     19  H   UNL     1      -1.809  -1.474  -5.740  0.00  0.00    +0.147 HD
ATOM     20  H   UNL     1      -2.749   1.511  -8.608  0.00  0.00    +0.161 HD
ATOM     21  H   UNL     1      -0.738  -0.951 -10.311  0.00  0.00    +0.153 HD
ENDROOT
BRANCH   1  25
ATOM     22  N   UNL     1       1.656   0.428  -1.542  0.00  0.00    -0.270 N 
ATOM     23  C   UNL     1       2.643  -0.503  -1.561  0.00  0.00    +0.129 A 
ATOM     24  C   UNL     1       2.795  -0.896  -2.849  0.00  0.00    +0.091 A 
ATOM     25  C   UNL     1       1.847  -0.149  -3.588  0.00  0.00    +0.165 A 
ATOM     26  N   UNL     1       1.203   0.616  -2.729  0.00  0.00    -0.165 NA
ATOM     27 CL   UNL     1       3.917  -2.069  -3.463  0.00  0.00    -0.080 Cl
BRANCH  22  29
ATOM     28  C   UNL     1       1.256   2.627  -0.550  0.00  0.00    +0.029 C 
ATOM     29  C   UNL     1       1.173   1.114  -0.341  0.00  0.00    +0.140 C 
ENDBRANCH  22  29
ENDBRANCH   1  25
BRANCH  18  30
ATOM     30  C   UNL     1      -2.551   0.864 -10.620  0.00  0.00    +0.031 C 
ATOM     31  C   UNL     1      -3.069  -0.503 -11.071  0.00  0.00    +0.033 C 
ATOM     32  C   UNL     1      -3.584   1.939 -10.963  0.00  0.00    +0.033 C 
ATOM     33  C   UNL     1      -1.236   1.173 -11.338  0.00  0.00    +0.033 C 
ENDBRANCH  18  30
TORSDOF 3
