REMARK  Name = ZINC65910812
REMARK  7 active torsions:
REMARK  status: ('A' for Active; 'I' for Inactive)
REMARK    1  A    between atoms: C_1  and  N_2
REMARK    2  A    between atoms: N_2  and  C_3
REMARK    3  A    between atoms: N_2  and  C_15
REMARK    4  A    between atoms: C_3  and  C_4
REMARK    5  A    between atoms: C_4  and  N_5
REMARK    6  A    between atoms: N_5  and  C_6
REMARK    7  A    between atoms: C_7  and  C_9
REMARK                            x       y       z     vdW  Elec       q    Type
REMARK                         _______ _______ _______ _____ _____    ______ ____
ROOT
ATOM      1  C   UNL     1      -2.200  -0.143  -1.020  0.00  0.00    +0.089 C 
ENDROOT
BRANCH   1   2
ATOM      2  N   UNL     1      -3.519  -0.728  -1.279  0.00  0.00    -0.302 N 
ATOM      3  C   UNL     1      -4.721  -0.091  -0.736  0.00  0.00    +0.132 C 
ATOM      4  C   UNL     1      -3.625  -1.851  -2.016  0.00  0.00    +0.253 C 
ATOM      5  O   UNL     1      -2.622  -2.438  -2.379  0.00  0.00    -0.269 OA
BRANCH   4   6
ATOM      6  C   UNL     1      -4.947  -2.365  -2.381  0.00  0.00    +0.075 A 
ATOM      7  C   UNL     1      -5.278  -3.550  -3.021  0.00  0.00    +0.022 A 
ATOM      8  C   UNL     1      -6.619  -3.762  -3.230  0.00  0.00    +0.024 A 
ATOM      9  C   UNL     1      -7.508  -2.826  -2.808  0.00  0.00    +0.056 A 
ATOM     10  S   UNL     1      -6.551  -1.635  -2.110  0.00  0.00    -0.077 S 
ATOM     11 BR   UNL     1      -9.392  -2.859  -2.964  0.00  0.00    -0.043 Br
ENDBRANCH   4   6
ENDBRANCH   1   2
BRANCH   1  12
ATOM     12  C   UNL     1      -1.623  -0.737   0.267  0.00  0.00    -0.060 C 
BRANCH  12  14
ATOM     13  C   UNL     1      -0.446   1.286   0.792  0.00  0.00    -0.096 C 
ATOM     14  N   UNL     1      -0.301  -0.151   0.526  0.00  0.00    +0.381 N 
ATOM     15  H   UNL     1       0.290  -0.286  -0.280  0.00  0.00    -0.082 HD
BRANCH  14  16
ATOM     16  C   UNL     1       0.304  -0.806   1.693  0.00  0.00    -0.069 C 
ATOM     17  C   UNL     1       1.681  -0.196   1.964  0.00  0.00    -0.015 C 
ATOM     18  C   UNL     1       2.312  -0.879   3.179  0.00  0.00    -0.002 C 
ATOM     19  C   UNL     1       2.463  -2.376   2.902  0.00  0.00    -0.000 C 
ATOM     20  C   UNL     1       1.086  -2.986   2.632  0.00  0.00    -0.002 C 
ATOM     21  C   UNL     1       0.455  -2.304   1.416  0.00  0.00    -0.015 C 
ENDBRANCH  14  16
ENDBRANCH  12  14
ENDBRANCH   1  12
TORSDOF 5
