REMARK  Name = ZINC08719251
REMARK  7 active torsions:
REMARK  status: ('A' for Active; 'I' for Inactive)
REMARK    1  A    between atoms: C_1  and  C_2
REMARK    2  A    between atoms: C_2  and  C_4
REMARK    3  A    between atoms: C_2  and  S_14
REMARK    4  A    between atoms: S_14  and  C_15
REMARK    5  A    between atoms: C_18  and  C_27
REMARK    6  A    between atoms: N_19  and  C_20
REMARK    7  A    between atoms: C_27  and  N_56
REMARK                            x       y       z     vdW  Elec       q    Type
REMARK                         _______ _______ _______ _____ _____    ______ ____
ROOT
ATOM      1  C   UNL     1       0.001  -0.002  -0.004  0.00  0.00    +0.197 A 
ATOM      2  N   UNL     1      -0.017   1.311   0.003  0.00  0.00    -0.122 NA
ATOM      3  N   UNL     1       1.185   1.766  -0.008  0.00  0.00    -0.135 NA
ATOM      4  C   UNL     1       2.038   0.780  -0.022  0.00  0.00    +0.122 A 
ATOM      5  N   UNL     1       1.315  -0.383  -0.021  0.00  0.00    -0.276 N 
ENDROOT
BRANCH   5   6
ATOM      6  C   UNL     1       1.817  -1.693  -0.033  0.00  0.00    +0.050 A 
ATOM      7  C   UNL     1       2.557  -2.164   1.044  0.00  0.00    +0.028 A 
ATOM      8  C   UNL     1       3.047  -3.455   1.031  0.00  0.00    +0.022 A 
ATOM      9  C   UNL     1       2.809  -4.276  -0.057  0.00  0.00    +0.041 A 
ATOM     10  C   UNL     1       2.076  -3.807  -1.133  0.00  0.00    +0.022 A 
ATOM     11  C   UNL     1       1.581  -2.518  -1.123  0.00  0.00    +0.028 A 
ATOM     12 CL   UNL     1       3.432  -5.897  -0.072  0.00  0.00    -0.084 Cl
ENDBRANCH   5   6
BRANCH   1  13
ATOM     13  S   UNL     1      -1.400  -1.070   0.005  0.00  0.00    -0.073 S 
BRANCH  13  15
ATOM     14  C   UNL     1      -2.706   0.959  -1.276  0.00  0.00    +0.029 C 
ATOM     15  C   UNL     1      -2.730   0.158   0.027  0.00  0.00    +0.137 C 
BRANCH  15  16
ATOM     16  C   UNL     1      -4.058  -0.543   0.161  0.00  0.00    +0.231 C 
ATOM     17  O   UNL     1      -4.155  -1.718  -0.124  0.00  0.00    -0.274 OA
ATOM     18  N   UNL     1      -5.137   0.136   0.598  0.00  0.00    -0.269 N 
ATOM     19  C   UNL     1      -6.387  -0.481   0.622  0.00  0.00    +0.125 A 
ATOM     20  C   UNL     1      -7.512   0.256   0.973  0.00  0.00    +0.045 A 
ATOM     21  C   UNL     1      -8.747  -0.369   0.994  0.00  0.00    +0.025 A 
ATOM     22  C   UNL     1      -8.813  -1.716   0.660  0.00  0.00    +0.059 A 
ATOM     23  C   UNL     1      -7.653  -2.386   0.321  0.00  0.00    +0.132 A 
ATOM     24  N   UNL     1      -6.491  -1.762   0.306  0.00  0.00    -0.239 NA
ATOM     25 CL   UNL     1     -10.337  -2.548   0.670  0.00  0.00    -0.082 Cl
ATOM     26  H   UNL     1      -5.044   1.055   0.896  0.00  0.00    +0.156 HD
ENDBRANCH  15  16
ENDBRANCH  13  15
ENDBRANCH   1  13
BRANCH   4  27
ATOM     27  C   UNL     1       3.540   0.899  -0.037  0.00  0.00    -0.001 C 
BRANCH  27  33
ATOM     28  C   UNL     1       3.751  -0.327  -2.114  0.00  0.00    -0.078 C 
ATOM     29  C   UNL     1       4.123  -0.195  -3.593  0.00  0.00    -0.019 C 
ATOM     30  C   UNL     1       5.604   0.174  -3.711  0.00  0.00    -0.004 C 
ATOM     31  C   UNL     1       5.860   1.476  -2.946  0.00  0.00    -0.019 C 
ATOM     32  C   UNL     1       5.438   1.296  -1.486  0.00  0.00    -0.078 C 
ATOM     33  N   UNL     1       3.998   0.966  -1.440  0.00  0.00    +0.384 N 
ATOM     34  H   UNL     1       3.472   1.701  -1.928  0.00  0.00    -0.081 HD
ENDBRANCH  27  33
ENDBRANCH   4  27
TORSDOF 6
