REMARK  Name = ZINC47506788
REMARK  7 active torsions:
REMARK  status: ('A' for Active; 'I' for Inactive)
REMARK    1  A    between atoms: C_1  and  N_2
REMARK    2  A    between atoms: N_2  and  C_3
REMARK    3  A    between atoms: C_3  and  C_4
REMARK    4  A    between atoms: C_9  and  O_10
REMARK    5  A    between atoms: N_13  and  C_14
REMARK    6  A    between atoms: C_19  and  S_20
REMARK    7  A    between atoms: S_20  and  C_21
REMARK                            x       y       z     vdW  Elec       q    Type
REMARK                         _______ _______ _______ _____ _____    ______ ____
ROOT
ATOM      1  C   UNL     1       0.057   1.439   0.022  0.00  0.00    +0.134 C 
ATOM      2  N   UNL     1      -0.574   0.119  -0.067  0.00  0.00    -0.284 N 
ATOM      3  C   UNL     1      -0.587  -0.543  -1.241  0.00  0.00    +0.307 C 
ATOM      4  O   UNL     1      -1.110  -1.638  -1.315  0.00  0.00    -0.252 OA
ATOM      5  N   UNL     1      -0.020   0.009  -2.332  0.00  0.00    -0.268 N 
ATOM      6  H   UNL     1       0.325   0.914  -2.295  0.00  0.00    +0.156 HD
ENDROOT
BRANCH   5   7
ATOM      7  C   UNL     1       0.071  -0.727  -3.522  0.00  0.00    +0.048 A 
ATOM      8  C   UNL     1       0.077  -2.113  -3.484  0.00  0.00    +0.024 A 
ATOM      9  C   UNL     1       0.168  -2.837  -4.658  0.00  0.00    +0.002 A 
ATOM     10  C   UNL     1       0.253  -2.183  -5.874  0.00  0.00    +0.001 A 
ATOM     11  C   UNL     1       0.247  -0.802  -5.922  0.00  0.00    +0.016 A 
ATOM     12  C   UNL     1       0.151  -0.067  -4.748  0.00  0.00    +0.029 A 
BRANCH  12  13
ATOM     13  S   UNL     1       0.136   1.694  -4.807  0.00  0.00    -0.120 S 
BRANCH  13  14
ATOM     14  C   UNL     1       0.257   2.075  -6.576  0.00  0.00    +0.051 C 
ATOM     15  C   UNL     1       1.645   1.666  -7.111  0.00  0.00    +0.014 C 
ATOM     16  C   UNL     1       1.998   2.773  -8.135  0.00  0.00    +0.001 C 
ATOM     17  C   UNL     1       1.445   4.053  -7.460  0.00  0.00    +0.001 C 
ATOM     18  C   UNL     1       0.130   3.593  -6.798  0.00  0.00    +0.014 C 
ENDBRANCH  13  14
ENDBRANCH  12  13
ENDBRANCH   5   7
BRANCH   2  19
ATOM     19  C   UNL     1      -1.190  -0.480   1.119  0.00  0.00    +0.147 C 
BRANCH  19  20
ATOM     20  C   UNL     1      -2.639  -0.072   1.194  0.00  0.00    +0.011 A 
ATOM     21  C   UNL     1      -3.025   0.956   2.032  0.00  0.00    +0.009 A 
ATOM     22  C   UNL     1      -4.354   1.331   2.101  0.00  0.00    +0.001 A 
ATOM     23  C   UNL     1      -5.300   0.679   1.331  0.00  0.00    +0.004 A 
ATOM     24  C   UNL     1      -4.918  -0.349   0.491  0.00  0.00    +0.046 A 
ATOM     25  C   UNL     1      -3.584  -0.724   0.416  0.00  0.00    +0.122 A 
BRANCH  25  26
ATOM     26  O   UNL     1      -3.206  -1.731  -0.414  0.00  0.00    -0.506 OA
ATOM     27  H   UNL     1      -3.227  -2.607  -0.005  0.00  0.00    +0.292 HD
ENDBRANCH  25  26
ENDBRANCH  19  20
ENDBRANCH   2  19
TORSDOF 6
