REMARK  Name = ZINC04063774
REMARK  6 active torsions:
REMARK  status: ('A' for Active; 'I' for Inactive)
REMARK    1  A    between atoms: C_1  and  C_2
REMARK    2  A    between atoms: N_4  and  C_5
REMARK    3  A    between atoms: C_16  and  S_21
REMARK    4  A    between atoms: S_21  and  C_22
REMARK    5  A    between atoms: C_27  and  N_28
REMARK    6  A    between atoms: C_31  and  C_34
REMARK                            x       y       z     vdW  Elec       q    Type
REMARK                         _______ _______ _______ _____ _____    ______ ____
ROOT
ATOM      1  C   UNL     1      -3.638   3.017   0.013  0.00  0.00    +0.034 A 
ATOM      2  C   UNL     1      -3.560   1.749  -0.547  0.00  0.00    +0.025 A 
ATOM      3  C   UNL     1      -2.355   1.077  -0.553  0.00  0.00    +0.025 A 
ATOM      4  C   UNL     1      -1.224   1.668   0.001  0.00  0.00    +0.031 A 
ATOM      5  C   UNL     1      -1.287   2.951   0.552  0.00  0.00    -0.020 A 
ATOM      6  C   UNL     1      -2.495   3.633   0.553  0.00  0.00    +0.029 A 
ATOM      7  C   UNL     1      -0.091   3.626   1.168  0.00  0.00    +0.045 C 
ATOM      8  C   UNL     1       1.082   2.650   1.358  0.00  0.00    +0.024 C 
ATOM      9  C   UNL     1       0.701   1.849   2.622  0.00  0.00    +0.022 C 
ATOM     10  C   UNL     1       0.030   2.895   3.537  0.00  0.00    +0.070 C 
ATOM     11  C   UNL     1      -0.475   4.024   2.620  0.00  0.00    +0.101 C 
ATOM     12 CL   UNL     1      -2.264   4.191   2.772  0.00  0.00    -0.120 Cl
ATOM     13  C   UNL     1       1.231   1.724   0.161  0.00  0.00    +0.107 C 
ATOM     14  N   UNL     1      -0.012   0.965  -0.017  0.00  0.00    -0.336 N 
ATOM     15  H   UNL     1       0.005   0.004  -0.147  0.00  0.00    +0.147 HD
ENDROOT
BRANCH  13  16
ATOM     16  C   UNL     1       1.505   2.539  -1.076  0.00  0.00    +0.008 A 
ATOM     17  C   UNL     1       0.463   2.907  -1.907  0.00  0.00    +0.008 A 
ATOM     18  C   UNL     1       0.713   3.660  -3.038  0.00  0.00    +0.000 A 
ATOM     19  C   UNL     1       2.007   4.037  -3.347  0.00  0.00    +0.003 A 
ATOM     20  C   UNL     1       3.051   3.666  -2.522  0.00  0.00    +0.039 A 
ATOM     21  C   UNL     1       2.801   2.916  -1.385  0.00  0.00    +0.128 A 
ATOM     22  F   UNL     1       3.821   2.553  -0.577  0.00  0.00    -0.205 F 
ENDBRANCH  13  16
BRANCH   1  26
ATOM     23  C   UNL     1      -7.332   3.748   0.032  0.00  0.00    +0.109 C 
ATOM     24  C   UNL     1      -6.015   3.023   0.142  0.00  0.00    +0.214 C 
ATOM     25  O   UNL     1      -5.996   1.827   0.340  0.00  0.00    -0.276 OA
ATOM     26  N   UNL     1      -4.859   3.705   0.021  0.00  0.00    -0.286 N 
ATOM     27  H   UNL     1      -4.872   4.671  -0.060  0.00  0.00    +0.155 HD
ENDBRANCH   1  26
BRANCH  10  28
ATOM     28  S   UNL     1      -1.364   2.144   4.422  0.00  0.00    -0.118 S 
BRANCH  28  29
ATOM     29  C   UNL     1      -1.911   3.414   5.514  0.00  0.00    +0.038 A 
ATOM     30  C   UNL     1      -1.268   4.647   5.526  0.00  0.00    +0.017 A 
ATOM     31  C   UNL     1      -1.699   5.640   6.383  0.00  0.00    +0.001 A 
ATOM     32  C   UNL     1      -2.770   5.410   7.228  0.00  0.00    +0.002 A 
ATOM     33  C   UNL     1      -3.412   4.185   7.218  0.00  0.00    +0.034 A 
ATOM     34  C   UNL     1      -2.990   3.189   6.360  0.00  0.00    +0.140 A 
BRANCH  34  35
ATOM     35  N   UNL     1      -3.682   1.881   6.346  0.00  0.00    +0.058 N 
ATOM     36  O   UNL     1      -4.628   1.684   7.088  0.00  0.00    -0.126 OA
ATOM     37  O   UNL     1      -3.306   1.001   5.592  0.00  0.00    -0.126 OA
ENDBRANCH  34  35
ENDBRANCH  28  29
ENDBRANCH  10  28
TORSDOF 5
