REMARK  Name = ZINC62363357
REMARK  11 active torsions:
REMARK  status: ('A' for Active; 'I' for Inactive)
REMARK    1  A    between atoms: C_1  and  C_2
REMARK    2  A    between atoms: N_5  and  C_8
REMARK    3  A    between atoms: C_8  and  C_10
REMARK    4  A    between atoms: C_8  and  C_19
REMARK    5  A    between atoms: C_10  and  N_11
REMARK    6  A    between atoms: N_14  and  C_15
REMARK    7  A    between atoms: C_15  and  C_16
REMARK    8  A    between atoms: C_16  and  C_17
REMARK    9  A    between atoms: C_16  and  C_18
REMARK   10  A    between atoms: C_24  and  O_25
REMARK   11  A    between atoms: O_25  and  C_26
REMARK                            x       y       z     vdW  Elec       q    Type
REMARK                         _______ _______ _______ _____ _____    ______ ____
ROOT
ATOM      1  C   UNL     1      -0.846  -3.789   1.247  0.00  0.00    -0.017 C 
ENDROOT
BRANCH   1   6
ATOM      2  C   UNL     1      -1.186   1.429  -1.030  0.00  0.00    +0.007 C 
ATOM      3  C   UNL     1      -0.960  -0.072  -0.833  0.00  0.00    -0.018 C 
ATOM      4  C   UNL     1      -2.272  -0.735  -0.403  0.00  0.00    -0.015 C 
ATOM      5  C   UNL     1      -2.022  -2.220  -0.131  0.00  0.00    -0.078 C 
ATOM      6  N   UNL     1      -1.025  -2.364   0.937  0.00  0.00    +0.385 N 
ATOM      7  C   UNL     1       0.256  -1.794   0.503  0.00  0.00    -0.078 C 
ATOM      8  C   UNL     1       0.093  -0.293   0.256  0.00  0.00    -0.015 C 
ATOM      9  H   UNL     1      -1.345  -1.880   1.762  0.00  0.00    -0.081 HD
ENDBRANCH   1   6
BRANCH   1  10
ATOM     10  C   UNL     1       0.094  -3.934   2.416  0.00  0.00    -0.018 A 
ATOM     11  C   UNL     1       0.228  -2.904   3.328  0.00  0.00    +0.005 A 
ATOM     12  C   UNL     1       1.090  -3.036   4.400  0.00  0.00    +0.000 A 
ATOM     13  C   UNL     1       1.821  -4.199   4.563  0.00  0.00    +0.004 A 
ATOM     14  C   UNL     1       1.691  -5.231   3.655  0.00  0.00    +0.046 A 
ATOM     15  C   UNL     1       0.822  -5.103   2.581  0.00  0.00    +0.122 A 
BRANCH  15  16
ATOM     16  O   UNL     1       0.689  -6.119   1.689  0.00  0.00    -0.495 OA
ATOM     17  C   UNL     1       1.469  -7.293   1.921  0.00  0.00    +0.277 C 
ENDBRANCH  15  16
ENDBRANCH   1  10
BRANCH   1  18
ATOM     18  C   UNL     1      -2.199  -4.408   1.601  0.00  0.00    +0.095 C 
BRANCH  18  19
ATOM     19  N   UNL     1      -2.821  -3.637   2.680  0.00  0.00    -0.301 N 
ATOM     20  C   UNL     1      -4.071  -3.936   3.089  0.00  0.00    +0.300 C 
ATOM     21  O   UNL     1      -4.681  -4.846   2.561  0.00  0.00    -0.253 OA
ATOM     22  N   UNL     1      -4.643  -3.227   4.081  0.00  0.00    -0.299 N 
ATOM     23  H   UNL     1      -2.335  -2.911   3.101  0.00  0.00    +0.150 HD
ATOM     24  H   UNL     1      -4.156  -2.501   4.502  0.00  0.00    +0.150 HD
BRANCH  22  25
ATOM     25  C   UNL     1      -6.001  -3.552   4.525  0.00  0.00    +0.108 C 
BRANCH  25  26
ATOM     26  C   UNL     1      -6.409  -2.603   5.654  0.00  0.00    -0.000 C 
ATOM     27  C   UNL     1      -7.869  -2.860   6.033  0.00  0.00    +0.009 C 
ATOM     28  C   UNL     1      -5.516  -2.847   6.872  0.00  0.00    +0.009 C 
ENDBRANCH  25  26
ENDBRANCH  22  25
ENDBRANCH  18  19
ENDBRANCH   1  18
TORSDOF 7
