REMARK  Name = ZINC39888448
REMARK  8 active torsions:
REMARK  status: ('A' for Active; 'I' for Inactive)
REMARK    1  A    between atoms: C_4  and  C_7
REMARK    2  A    between atoms: C_7  and  O_8
REMARK    3  A    between atoms: O_8  and  C_9
REMARK    4  A    between atoms: C_14  and  C_15
REMARK    5  A    between atoms: N_16  and  N_17
REMARK    6  A    between atoms: C_22  and  C_25
REMARK    7  A    between atoms: C_25  and  C_26
REMARK    8  A    between atoms: C_30  and  C_32
REMARK                            x       y       z     vdW  Elec       q    Type
REMARK                         _______ _______ _______ _____ _____    ______ ____
ROOT
ATOM      1  N   UNL     1       3.236  -0.439   4.826  0.00  0.00    -0.127 NA
ATOM      2  C   UNL     1       2.095   0.199   4.676  0.00  0.00    +0.183 C 
ATOM      3  N   UNL     1       1.460   0.546   3.502  0.00  0.00    -0.263 N 
ATOM      4  C   UNL     1       0.307   1.191   3.482  0.00  0.00    +0.232 C 
ATOM      5  O   UNL     1      -0.245   1.492   2.446  0.00  0.00    -0.274 OA
ATOM      6  C   UNL     1      -0.285   1.531   4.841  0.00  0.00    +0.144 C 
ATOM      7  S   UNL     1       0.999   0.812   5.947  0.00  0.00    -0.075 S 
ATOM      8  H   UNL     1       1.877   0.307   2.659  0.00  0.00    +0.157 HD
ENDROOT
BRANCH   1  10
ATOM      9  C   UNL     1       5.039  -1.447   3.937  0.00  0.00    +0.146 C 
ATOM     10  N   UNL     1       3.906  -0.814   3.789  0.00  0.00    -0.155 NA
BRANCH   9  16
ATOM     11  C   UNL     1       5.318  -1.605   1.466  0.00  0.00    +0.130 A 
ATOM     12  C   UNL     1       6.048  -2.007   0.361  0.00  0.00    +0.046 A 
ATOM     13  C   UNL     1       7.246  -2.677   0.527  0.00  0.00    +0.004 A 
ATOM     14  C   UNL     1       7.726  -2.950   1.796  0.00  0.00    +0.001 A 
ATOM     15  C   UNL     1       7.012  -2.558   2.909  0.00  0.00    +0.013 A 
ATOM     16  C   UNL     1       5.802  -1.874   2.755  0.00  0.00    +0.036 A 
BRANCH  11  17
ATOM     17  O   UNL     1       4.141  -0.946   1.304  0.00  0.00    -0.487 OA
BRANCH  17  18
ATOM     18  C   UNL     1       3.711  -0.707  -0.038  0.00  0.00    +0.264 C 
BRANCH  18  22
ATOM     19  C   UNL     1      -0.017   1.378   0.010  0.00  0.00    +0.000 A 
ATOM     20  C   UNL     1       1.171   2.086   0.002  0.00  0.00    +0.000 A 
ATOM     21  C   UNL     1       2.377   1.411  -0.013  0.00  0.00    +0.007 A 
ATOM     22  C   UNL     1       2.396   0.029  -0.020  0.00  0.00    -0.010 A 
ATOM     23  C   UNL     1       1.208  -0.679  -0.012  0.00  0.00    +0.007 A 
ATOM     24  C   UNL     1       0.002  -0.004   0.002  0.00  0.00    +0.000 A 
ENDBRANCH  18  22
ENDBRANCH  17  18
ENDBRANCH  11  17
ENDBRANCH   9  16
ENDBRANCH   1  10
BRANCH   6  25
ATOM     25  C   UNL     1      -1.636   0.843   5.046  0.00  0.00    +0.059 C 
BRANCH  25  26
ATOM     26  C   UNL     1      -2.241   1.302   6.347  0.00  0.00    -0.045 A 
ATOM     27  C   UNL     1      -1.970   0.616   7.516  0.00  0.00    +0.005 A 
ATOM     28  C   UNL     1      -2.525   1.036   8.710  0.00  0.00    +0.021 A 
ATOM     29  C   UNL     1      -3.353   2.144   8.735  0.00  0.00    +0.053 A 
ATOM     30  C   UNL     1      -3.624   2.831   7.565  0.00  0.00    +0.073 A 
ATOM     31  C   UNL     1      -3.064   2.412   6.372  0.00  0.00    +0.017 A 
ATOM     32 CL   UNL     1      -4.052   2.672  10.233  0.00  0.00    -0.083 Cl
BRANCH  30  33
ATOM     33  C   UNL     1      -4.526   4.038   7.591  0.00  0.00    +0.419 C 
ATOM     34  F   UNL     1      -4.648   4.557   6.298  0.00  0.00    -0.166 F 
ATOM     35  F   UNL     1      -5.789   3.666   8.065  0.00  0.00    -0.166 F 
ATOM     36  F   UNL     1      -3.979   5.011   8.434  0.00  0.00    -0.166 F 
ENDBRANCH  30  33
ENDBRANCH  25  26
ENDBRANCH   6  25
TORSDOF 8
