REMARK  Name = ZINC40810472
REMARK  10 active torsions:
REMARK  status: ('A' for Active; 'I' for Inactive)
REMARK    1  A    between atoms: C_1  and  C_2
REMARK    2  A    between atoms: C_2  and  C_36
REMARK    3  A    between atoms: C_7  and  C_18
REMARK    4  A    between atoms: C_8  and  N_11
REMARK    5  A    between atoms: C_12  and  C_14
REMARK    6  A    between atoms: C_14  and  C_15
REMARK    7  A    between atoms: C_14  and  C_16
REMARK    8  A    between atoms: C_14  and  N_17
REMARK    9  A    between atoms: C_18  and  S_19
REMARK   10  A    between atoms: S_19  and  N_22
REMARK                            x       y       z     vdW  Elec       q    Type
REMARK                         _______ _______ _______ _____ _____    ______ ____
ROOT
ATOM      1  C   UNL     1      -0.019   1.526   0.010  0.00  0.00    +0.012 C 
ATOM      2  C   UNL     1       0.002  -0.004   0.002  0.00  0.00    -0.023 C 
ATOM      3  C   UNL     1       0.998  -0.573  -1.069  0.00  0.00    -0.003 C 
ATOM      4  C   UNL     1       1.005  -2.084  -0.682  0.00  0.00    +0.005 C 
ATOM      5  C   UNL     1       0.840  -2.095   0.855  0.00  0.00    +0.011 C 
ATOM      6  C   UNL     1       0.750  -0.590   1.252  0.00  0.00    +0.015 C 
ATOM      7  C   UNL     1       2.187  -0.036   1.013  0.00  0.00    +0.081 C 
ATOM      8  C   UNL     1       2.350  -0.008  -0.535  0.00  0.00    +0.027 C 
ATOM      9  C   UNL     1      -1.404  -0.588  -0.152  0.00  0.00    +0.012 C 
ENDROOT
BRANCH   7  10
ATOM     10  N   UNL     1       2.308   1.321   1.552  0.00  0.00    -0.313 N 
ATOM     11  C   UNL     1       3.515   1.797   1.916  0.00  0.00    +0.201 C 
ATOM     12  O   UNL     1       4.502   1.102   1.799  0.00  0.00    -0.277 OA
ATOM     13  H   UNL     1       1.519   1.878   1.646  0.00  0.00    +0.149 HD
BRANCH  11  14
ATOM     14  C   UNL     1       3.639   3.193   2.470  0.00  0.00    +0.001 C 
ATOM     15  C   UNL     1       4.886   3.283   3.352  0.00  0.00    -0.001 C 
ATOM     16  C   UNL     1       3.757   4.191   1.316  0.00  0.00    -0.001 C 
BRANCH  14  17
ATOM     17  N   UNL     1       2.449   3.510   3.271  0.00  0.00    +0.387 N 
ATOM     18  H   UNL     1       2.370   2.852   4.032  0.00  0.00    -0.089 HD
ATOM     19  H   UNL     1       2.531   4.445   3.642  0.00  0.00    -0.089 HD
ATOM     20  H   UNL     1       1.626   3.450   2.689  0.00  0.00    -0.089 HD
ENDBRANCH  14  17
ENDBRANCH  11  14
ENDBRANCH   7  10
BRANCH   6  21
ATOM     21  C   UNL     1       0.121  -0.294   2.615  0.00  0.00    +0.194 C 
BRANCH  21  22
ATOM     22  S   UNL     1       1.126  -1.051   3.921  0.00  0.00    +0.032 S 
ATOM     23  O   UNL     1       1.048  -2.468   3.841  0.00  0.00    -0.158 OA
ATOM     24  O   UNL     1       2.386  -0.399   4.009  0.00  0.00    -0.158 OA
BRANCH  22  25
ATOM     25  N   UNL     1       0.351  -0.665   5.333  0.00  0.00    -0.181 NA
ATOM     26  C   UNL     1       0.682   0.572   6.054  0.00  0.00    +0.110 C 
ATOM     27  C   UNL     1       1.040   0.217   7.501  0.00  0.00    +0.028 C 
ATOM     28  C   UNL     1      -0.092  -0.599   8.118  0.00  0.00    -0.001 C 
ATOM     29  C   UNL     1      -1.389   0.231   8.136  0.00  0.00    +0.016 C 
ATOM     30  C   UNL     1      -1.343   0.883   9.535  0.00  0.00    +0.036 C 
ATOM     31  C   UNL     1      -0.509  -0.054  10.382  0.00  0.00    -0.044 A 
ATOM     32  C   UNL     1       0.212  -0.907   9.565  0.00  0.00    -0.038 A 
ATOM     33  C   UNL     1       1.050  -1.855  10.128  0.00  0.00    +0.004 A 
ATOM     34  C   UNL     1       1.169  -1.951  11.501  0.00  0.00    +0.000 A 
ATOM     35  C   UNL     1       0.449  -1.099  12.317  0.00  0.00    +0.000 A 
ATOM     36  C   UNL     1      -0.388  -0.152  11.758  0.00  0.00    +0.004 A 
ATOM     37  C   UNL     1      -0.312  -1.891   7.336  0.00  0.00    +0.028 C 
ATOM     38  C   UNL     1      -0.684  -1.550   5.884  0.00  0.00    +0.110 C 
ENDBRANCH  22  25
ENDBRANCH  21  22
ENDBRANCH   6  21
TORSDOF 6
