REMARK  Name = ZINC02410245
REMARK  8 active torsions:
REMARK  status: ('A' for Active; 'I' for Inactive)
REMARK    1  A    between atoms: C_1  and  C_2
REMARK    2  A    between atoms: N_15  and  C_28
REMARK    3  A    between atoms: C_16  and  C_18
REMARK    4  A    between atoms: C_21  and  C_24
REMARK    5  A    between atoms: C_24  and  C_25
REMARK    6  A    between atoms: C_24  and  C_26
REMARK    7  A    between atoms: C_24  and  C_27
REMARK    8  A    between atoms: C_28  and  C_29
REMARK                            x       y       z     vdW  Elec       q    Type
REMARK                         _______ _______ _______ _____ _____    ______ ____
ROOT
ATOM      1  C   UNL     1       6.393   5.704  -0.022  0.00  0.00    +0.044 C 
ATOM      2  C   UNL     1       5.619   4.411  -0.023  0.00  0.00    -0.050 A 
ATOM      3  C   UNL     1       6.298   3.201  -0.036  0.00  0.00    +0.007 A 
ATOM      4  C   UNL     1       5.611   2.006  -0.038  0.00  0.00    +0.047 A 
ATOM      5  C   UNL     1       4.219   2.007  -0.026  0.00  0.00    +0.139 A 
ATOM      6  C   UNL     1       3.540   3.238  -0.013  0.00  0.00    +0.065 A 
ATOM      7  C   UNL     1       4.252   4.436  -0.012  0.00  0.00    +0.018 A 
ATOM      8  C   UNL     1       2.064   3.217   0.000  0.00  0.00    +0.199 A 
ATOM      9  O   UNL     1       1.410   4.245   0.011  0.00  0.00    -0.287 OA
ATOM     10  C   UNL     1       1.425   1.899  -0.001  0.00  0.00    +0.072 A 
ATOM     11  C   UNL     1       2.188   0.779  -0.015  0.00  0.00    +0.199 A 
ATOM     12  O   UNL     1       3.533   0.850  -0.026  0.00  0.00    -0.450 OA
ATOM     13  C   UNL     1       1.286  -0.401  -0.012  0.00  0.00    +0.284 C 
ATOM     14  O   UNL     1       1.656  -1.558  -0.022  0.00  0.00    -0.267 OA
ATOM     15  N   UNL     1       0.002  -0.004   0.002  0.00  0.00    -0.276 N 
ATOM     16  C   UNL     1      -0.018   1.464   0.010  0.00  0.00    +0.145 C 
ENDROOT
BRANCH  16  17
ATOM     17  C   UNL     1      -0.725   1.980  -1.216  0.00  0.00    -0.022 A 
ATOM     18  C   UNL     1      -0.522   1.370  -2.440  0.00  0.00    +0.006 A 
ATOM     19  C   UNL     1      -1.174   1.841  -3.564  0.00  0.00    +0.004 A 
ATOM     20  C   UNL     1      -2.023   2.927  -3.466  0.00  0.00    -0.042 A 
ATOM     21  C   UNL     1      -2.223   3.541  -2.244  0.00  0.00    +0.004 A 
ATOM     22  C   UNL     1      -1.574   3.067  -1.119  0.00  0.00    +0.006 A 
BRANCH  20  23
ATOM     23  C   UNL     1      -2.731   3.443  -4.692  0.00  0.00    -0.013 C 
ATOM     24  C   UNL     1      -2.330   4.899  -4.939  0.00  0.00    +0.015 C 
ATOM     25  C   UNL     1      -2.339   2.594  -5.903  0.00  0.00    +0.015 C 
ATOM     26  C   UNL     1      -4.244   3.360  -4.480  0.00  0.00    +0.015 C 
ENDBRANCH  20  23
ENDBRANCH  16  17
BRANCH  15  27
ATOM     27  C   UNL     1      -1.171  -0.882   0.008  0.00  0.00    +0.183 C 
BRANCH  27  28
ATOM     28  C   UNL     1      -1.586  -1.175  -1.411  0.00  0.00    +0.122 A 
ATOM     29  C   UNL     1      -1.145  -2.199  -2.164  0.00  0.00    +0.046 A 
ATOM     30  C   UNL     1      -1.792  -2.094  -3.416  0.00  0.00    +0.041 A 
ATOM     31  C   UNL     1      -2.584  -1.008  -3.357  0.00  0.00    +0.195 A 
ATOM     32  O   UNL     1      -2.455  -0.455  -2.139  0.00  0.00    -0.466 OA
ENDBRANCH  27  28
ENDBRANCH  15  27
TORSDOF 4
