REMARK  Name = ZINC44657038
REMARK  8 active torsions:
REMARK  status: ('A' for Active; 'I' for Inactive)
REMARK    1  A    between atoms: C_1  and  C_2
REMARK    2  A    between atoms: C_4  and  C_27
REMARK    3  A    between atoms: C_8  and  C_12
REMARK    4  A    between atoms: C_12  and  C_14
REMARK    5  A    between atoms: C_12  and  O_15
REMARK    6  A    between atoms: O_15  and  C_16
REMARK    7  A    between atoms: C_16  and  C_18
REMARK    8  A    between atoms: C_23  and  O_24
REMARK                            x       y       z     vdW  Elec       q    Type
REMARK                         _______ _______ _______ _____ _____    ______ ____
ROOT
ATOM      1  C   UNL     1      -2.262  -3.654   4.678  0.00  0.00    +0.238 C 
ATOM      2  C   UNL     1      -3.757  -3.879   4.912  0.00  0.00    +0.060 C 
ENDROOT
BRANCH   1   9
ATOM      3  C   UNL     1      -0.019   1.526   0.010  0.00  0.00    +0.024 C 
ATOM      4  C   UNL     1       0.002  -0.004   0.002  0.00  0.00    +0.076 C 
ATOM      5  C   UNL     1      -1.399  -0.565   0.089  0.00  0.00    -0.045 C 
ATOM      6  C   UNL     1      -1.704  -1.321   1.155  0.00  0.00    +0.071 C 
ATOM      7  C   UNL     1      -0.645  -1.546   2.162  0.00  0.00    +0.112 C 
ATOM      8  N   UNL     1      -0.881  -2.276   3.226  0.00  0.00    -0.224 NA
ATOM      9  C   UNL     1      -2.066  -2.829   3.432  0.00  0.00    +0.164 C 
ATOM     10  N   UNL     1      -3.079  -2.698   2.609  0.00  0.00    -0.158 NA
ATOM     11  C   UNL     1      -3.005  -1.988   1.478  0.00  0.00    +0.271 C 
ATOM     12  O   UNL     1      -3.966  -1.886   0.735  0.00  0.00    -0.268 OA
ATOM     13  S   UNL     1       0.764  -0.661   1.541  0.00  0.00    -0.098 S 
ATOM     14  C   UNL     1      -2.419  -0.284  -0.984  0.00  0.00    +0.041 C 
ENDBRANCH   1   9
BRANCH   1  15
ATOM     15  O   UNL     1      -1.609  -4.915   4.522  0.00  0.00    -0.450 OA
BRANCH  15  16
ATOM     16  C   UNL     1      -1.137  -5.503   5.639  0.00  0.00    +0.343 C 
ATOM     17  O   UNL     1      -1.277  -4.959   6.717  0.00  0.00    -0.245 OA
BRANCH  16  18
ATOM     18  C   UNL     1      -0.453  -6.806   5.554  0.00  0.00    +0.101 A 
ATOM     19  C   UNL     1      -0.285  -7.432   4.316  0.00  0.00    +0.034 A 
ATOM     20  C   UNL     1       0.357  -8.650   4.243  0.00  0.00    +0.019 A 
ATOM     21  C   UNL     1       0.837  -9.257   5.394  0.00  0.00    +0.019 A 
ATOM     22  C   UNL     1       0.678  -8.648   6.623  0.00  0.00    +0.047 A 
ATOM     23  C   UNL     1       0.040  -7.420   6.714  0.00  0.00    +0.131 A 
ATOM     24 BR   UNL     1       0.583  -9.496   2.568  0.00  0.00    -0.050 Br
BRANCH  23  25
ATOM     25  O   UNL     1      -0.112  -6.819   7.920  0.00  0.00    -0.506 OA
ATOM     26  H   UNL     1      -0.929  -7.059   8.379  0.00  0.00    +0.292 HD
ENDBRANCH  23  25
ENDBRANCH  16  18
ENDBRANCH  15  16
ENDBRANCH   1  15
TORSDOF 5
