REMARK  Name = ZINC45069964
REMARK  0 active torsions:
REMARK  status: ('A' for Active; 'I' for Inactive)
REMARK                            x       y       z     vdW  Elec       q    Type
REMARK                         _______ _______ _______ _____ _____    ______ ____
ROOT
ATOM      1  C   UNL     1      -0.019   1.530   0.011  0.00  0.00    +0.004 C 
ATOM      2  C   UNL     1       1.518   1.482  -0.004  0.00  0.00    +0.006 C 
ATOM      3  C   UNL     1       1.401   0.114  -0.697  0.00  0.00    +0.013 C 
ATOM      4  C   UNL     1       0.002  -0.004   0.002  0.00  0.00    -0.005 C 
ATOM      5  C   UNL     1      -0.931  -0.619  -1.082  0.00  0.00    +0.018 C 
ATOM      6  C   UNL     1       0.008  -1.024  -2.176  0.00  0.00    +0.096 C 
ATOM      7  C   UNL     1       1.037   0.181  -2.160  0.00  0.00    +0.088 C 
ATOM      8  N   UNL     1       1.400  -0.519  -3.329  0.00  0.00    -0.311 N 
ATOM      9  C   UNL     1       0.088  -0.862  -3.612  0.00  0.00    +0.218 C 
ATOM     10  O   UNL     1      -0.628  -0.968  -4.585  0.00  0.00    -0.275 OA
ATOM     11  H   UNL     1       2.250  -0.687  -3.764  0.00  0.00    +0.149 HD
ENDROOT
TORSDOF 0
