REMARK  Name = ZINC63855376
REMARK  9 active torsions:
REMARK  status: ('A' for Active; 'I' for Inactive)
REMARK    1  A    between atoms: C_1  and  C_2
REMARK    2  A    between atoms: C_4  and  C_8
REMARK    3  A    between atoms: C_8  and  N_9
REMARK    4  A    between atoms: N_9  and  C_10
REMARK    5  A    between atoms: N_9  and  C_11
REMARK    6  A    between atoms: C_11  and  C_12
REMARK    7  A    between atoms: C_15  and  C_18
REMARK    8  A    between atoms: C_21  and  C_27
REMARK    9  A    between atoms: C_22  and  C_26
REMARK                            x       y       z     vdW  Elec       q    Type
REMARK                         _______ _______ _______ _____ _____    ______ ____
ROOT
ATOM      1  C   UNL     1      -3.367   5.553  -5.453  0.00  0.00    -0.033 A 
ATOM      2  C   UNL     1      -3.139   6.913  -5.362  0.00  0.00    +0.005 A 
ATOM      3  C   UNL     1      -3.433   7.736  -6.434  0.00  0.00    +0.007 A 
ATOM      4  C   UNL     1      -3.953   7.199  -7.596  0.00  0.00    -0.009 A 
ATOM      5  C   UNL     1      -4.180   5.838  -7.687  0.00  0.00    +0.007 A 
ATOM      6  C   UNL     1      -3.882   5.015  -6.618  0.00  0.00    +0.005 A 
ENDROOT
BRANCH   4   7
ATOM      7  C   UNL     1      -4.274   8.096  -8.763  0.00  0.00    +0.190 C 
ATOM      8  N   UNL     1      -4.107   7.350 -10.017  0.00  0.00    -0.318 N 
ATOM      9  C   UNL     1      -2.838   7.134 -10.491  0.00  0.00    +0.117 C 
ATOM     10  C   UNL     1      -1.877   8.042 -10.214  0.00  0.00    +0.037 C 
ATOM     11  C   UNL     1      -2.186   9.170  -9.419  0.00  0.00    +0.243 C 
ATOM     12  O   UNL     1      -1.383  10.082  -9.325  0.00  0.00    -0.270 OA
ATOM     13  N   UNL     1      -3.362   9.245  -8.764  0.00  0.00    -0.289 N 
ATOM     14  C   UNL     1      -0.481   7.853 -10.749  0.00  0.00    +0.051 C 
ATOM     15  H   UNL     1      -4.879   7.016 -10.500  0.00  0.00    +0.148 HD
ATOM     16  H   UNL     1      -3.607  10.058  -8.295  0.00  0.00    +0.151 HD
BRANCH   9  17
ATOM     17  C   UNL     1      -2.522   5.907 -11.307  0.00  0.00    +0.430 C 
ATOM     18  F   UNL     1      -1.780   5.010 -10.531  0.00  0.00    -0.165 F 
ATOM     19  F   UNL     1      -3.714   5.297 -11.712  0.00  0.00    -0.165 F 
ATOM     20  F   UNL     1      -1.780   6.275 -12.434  0.00  0.00    -0.165 F 
ENDBRANCH   9  17
ENDBRANCH   4   7
BRANCH   1  21
ATOM     21  C   UNL     1      -3.047   4.656  -4.286  0.00  0.00    +0.119 C 
BRANCH  21  22
ATOM     22  N   UNL     1      -1.658   4.188  -4.393  0.00  0.00    -0.294 NA
ATOM     23  C   UNL     1      -1.486   3.315  -5.562  0.00  0.00    +0.105 C 
BRANCH  22  24
ATOM     24  C   UNL     1      -1.235   3.509  -3.162  0.00  0.00    +0.156 C 
BRANCH  24  28
ATOM     25  C   UNL     1      -0.907   5.734   1.374  0.00  0.00    +0.065 C 
ATOM     26  C   UNL     1      -0.876   5.488  -0.112  0.00  0.00    +0.030 A 
ATOM     27  N   UNL     1      -1.169   4.313  -0.750  0.00  0.00    -0.346 N 
ATOM     28  C   UNL     1      -1.017   4.529  -2.075  0.00  0.00    +0.099 A 
ATOM     29  H   UNL     1      -1.436   3.480  -0.330  0.00  0.00    +0.167 HD
ATOM     30  N   UNL     1      -0.650   5.768  -2.257  0.00  0.00    -0.349 N 
ATOM     31  C   UNL     1      -0.560   6.382  -1.068  0.00  0.00    +0.105 A 
ATOM     32  H   UNL     1      -0.473   6.181  -3.117  0.00  0.00    +0.166 HD
ENDBRANCH  24  28
ENDBRANCH  22  24
ENDBRANCH  21  22
ENDBRANCH   1  21
TORSDOF 6
