REMARK  Name = ZINC65383446
REMARK  4 active torsions:
REMARK  status: ('A' for Active; 'I' for Inactive)
REMARK    1  A    between atoms: C_17  and  C_19
REMARK    2  A    between atoms: C_19  and  O_20
REMARK    3  A    between atoms: O_20  and  C_21
REMARK    4  A    between atoms: C_26  and  O_27
REMARK                            x       y       z     vdW  Elec       q    Type
REMARK                         _______ _______ _______ _____ _____    ______ ____
ROOT
ATOM      1  C   UNL     1      -0.017   1.378   0.010  0.00  0.00    +0.001 A 
ATOM      2  C   UNL     1       1.169   2.092   0.002  0.00  0.00    +0.004 A 
ATOM      3  C   UNL     1       2.387   1.436  -0.009  0.00  0.00    +0.046 A 
ATOM      4  C   UNL     1       2.421   0.054  -0.014  0.00  0.00    +0.129 A 
ATOM      5  C   UNL     1       1.220  -0.671  -0.013  0.00  0.00    +0.017 A 
ATOM      6  C   UNL     1       0.002  -0.004   0.002  0.00  0.00    +0.011 A 
ATOM      7  C   UNL     1       1.304  -2.147  -0.036  0.00  0.00    +0.011 C 
ATOM      8  C   UNL     1       2.449  -2.713   0.332  0.00  0.00    +0.021 C 
ATOM      9  C   UNL     1       3.621  -1.849   0.760  0.00  0.00    +0.131 C 
ATOM     10  O   UNL     1       3.592  -0.631  -0.013  0.00  0.00    -0.481 OA
ATOM     11  C   UNL     1       4.904  -2.597   0.377  0.00  0.00    +0.054 C 
ATOM     12  C   UNL     1       6.031  -1.623   0.168  0.00  0.00    +0.023 C 
ATOM     13  C   UNL     1       6.820  -1.429   1.479  0.00  0.00    +0.108 C 
ATOM     14  N   UNL     1       5.929  -1.354   2.654  0.00  0.00    -0.299 N 
ATOM     15  C   UNL     1       4.689  -0.613   2.637  0.00  0.00    +0.112 C 
ATOM     16  C   UNL     1       3.534  -1.541   2.200  0.00  0.00    +0.071 C 
ATOM     17  C   UNL     1       6.286  -2.000   3.782  0.00  0.00    +0.253 C 
ATOM     18  O   UNL     1       5.570  -1.952   4.760  0.00  0.00    -0.272 OA
ENDROOT
BRANCH  17  19
ATOM     19  C   UNL     1       7.574  -2.780   3.829  0.00  0.00    +0.324 C 
BRANCH  19  20
ATOM     20  O   UNL     1       7.728  -3.369   5.122  0.00  0.00    -0.479 OA
BRANCH  20  21
ATOM     21  C   UNL     1       8.847  -4.112   5.332  0.00  0.00    +0.162 A 
ATOM     22  C   UNL     1       9.779  -4.267   4.319  0.00  0.00    +0.049 A 
ATOM     23  C   UNL     1      10.916  -5.023   4.535  0.00  0.00    +0.004 A 
ATOM     24  C   UNL     1      11.126  -5.626   5.761  0.00  0.00    +0.004 A 
ATOM     25  C   UNL     1      10.200  -5.476   6.776  0.00  0.00    +0.049 A 
ATOM     26  C   UNL     1       9.061  -4.715   6.568  0.00  0.00    +0.158 A 
BRANCH  26  27
ATOM     27  O   UNL     1       8.152  -4.562   7.568  0.00  0.00    -0.503 OA
ATOM     28  H   UNL     1       7.462  -5.239   7.579  0.00  0.00    +0.292 HD
ENDBRANCH  26  27
ENDBRANCH  20  21
ENDBRANCH  19  20
ENDBRANCH  17  19
TORSDOF 4
