REMARK  Name = ZINC61886325
REMARK  5 active torsions:
REMARK  status: ('A' for Active; 'I' for Inactive)
REMARK    1  A    between atoms: C_6  and  C_7
REMARK    2  A    between atoms: C_7  and  C_8
REMARK    3  A    between atoms: N_10  and  C_11
REMARK    4  A    between atoms: C_16  and  C_18
REMARK    5  A    between atoms: N_19  and  O_20
REMARK                            x       y       z     vdW  Elec       q    Type
REMARK                         _______ _______ _______ _____ _____    ______ ____
ROOT
ATOM      1  C   UNL     1      -1.757  -0.763  -1.555  0.00  0.00    +0.218 C 
ATOM      2  O   UNL     1      -1.150  -0.343  -2.517  0.00  0.00    -0.275 OA
ATOM      3  N   UNL     1      -2.858  -1.521  -1.731  0.00  0.00    -0.312 N 
ATOM      4  H   UNL     1      -3.302  -1.917  -0.965  0.00  0.00    +0.149 HD
ENDROOT
BRANCH   3   5
ATOM      5  C   UNL     1      -3.384  -1.747  -3.080  0.00  0.00    +0.083 C 
ATOM      6  C   UNL     1      -2.780  -3.032  -3.672  0.00  0.00    +0.023 C 
ATOM      7  C   UNL     1      -3.961  -3.984  -3.954  0.00  0.00    +0.003 C 
ATOM      8  C   UNL     1      -5.075  -3.502  -2.993  0.00  0.00    +0.013 C 
ATOM      9  C   UNL     1      -4.910  -1.961  -3.023  0.00  0.00    +0.076 C 
BRANCH   9  10
ATOM     10  C   UNL     1      -5.483  -1.344  -1.773  0.00  0.00    +0.136 C 
ATOM     11  N   UNL     1      -5.978  -0.151  -1.810  0.00  0.00    -0.076 NA
ATOM     12  N   UNL     1      -5.479  -2.051  -0.591  0.00  0.00    -0.344 N 
ATOM     13  H   UNL     1      -5.107  -2.947  -0.564  0.00  0.00    +0.144 HD
ATOM     14  H   UNL     1      -5.848  -1.654   0.213  0.00  0.00    +0.144 HD
BRANCH  11  15
ATOM     15  O   UNL     1      -5.885   0.617  -2.995  0.00  0.00    -0.408 OA
ATOM     16  H   UNL     1      -6.215   1.522  -2.904  0.00  0.00    +0.328 HD
ENDBRANCH  11  15
ENDBRANCH   9  10
ENDBRANCH   3   5
BRANCH   1  17
ATOM     17  C   UNL     1      -1.281  -0.438  -0.163  0.00  0.00    +0.130 C 
BRANCH  17  23
ATOM     18  C   UNL     1      -0.152   1.793  -0.276  0.00  0.00    +0.005 A 
ATOM     19  C   UNL     1       0.984   2.576  -0.349  0.00  0.00    +0.015 A 
ATOM     20  C   UNL     1       2.233   1.981  -0.388  0.00  0.00    +0.018 A 
ATOM     21  C   UNL     1       2.343   0.603  -0.353  0.00  0.00    +0.015 A 
ATOM     22  C   UNL     1       1.206  -0.180  -0.281  0.00  0.00    +0.005 A 
ATOM     23  C   UNL     1      -0.041   0.415  -0.242  0.00  0.00    -0.039 A 
ATOM     24 BR   UNL     1       3.788   3.053  -0.488  0.00  0.00    -0.050 Br
ENDBRANCH  17  23
ENDBRANCH   1  17
TORSDOF 5
