REMARK  Name = ZINC33772121
REMARK  12 active torsions:
REMARK  status: ('A' for Active; 'I' for Inactive)
REMARK    1  A    between atoms: C_1  and  C_2
REMARK    2  A    between atoms: C_2  and  C_3
REMARK    3  A    between atoms: C_3  and  N_4
REMARK    4  A    between atoms: C_12  and  C_14
REMARK    5  A    between atoms: C_19  and  S_21
REMARK    6  A    between atoms: S_21  and  C_22
REMARK    7  A    between atoms: C_22  and  C_23
REMARK    8  A    between atoms: N_25  and  C_26
REMARK    9  A    between atoms: C_26  and  C_27
REMARK   10  A    between atoms: C_27  and  C_28
REMARK   11  A    between atoms: C_28  and  N_29
REMARK   12  A    between atoms: C_34  and  C_36
REMARK                            x       y       z     vdW  Elec       q    Type
REMARK                         _______ _______ _______ _____ _____    ______ ____
ROOT
ATOM      1  N   UNL     1       5.796  19.137  -2.179  0.00  0.00    -0.299 N 
ATOM      2  C   UNL     1       4.910  18.835  -1.210  0.00  0.00    +0.303 C 
ATOM      3  O   UNL     1       3.851  19.430  -1.147  0.00  0.00    -0.253 OA
ATOM      4  N   UNL     1       5.196  17.873  -0.311  0.00  0.00    -0.280 N 
ATOM      5  C   UNL     1       6.424  17.071  -0.428  0.00  0.00    +0.128 C 
ATOM      6  C   UNL     1       6.047  15.588  -0.349  0.00  0.00    +0.125 C 
ATOM      7  N   UNL     1       5.264  15.350   0.871  0.00  0.00    -0.312 N 
ATOM      8  C   UNL     1       3.997  16.093   0.845  0.00  0.00    +0.128 C 
ATOM      9  C   UNL     1       4.290  17.596   0.814  0.00  0.00    +0.092 C 
ATOM     10  C   UNL     1       2.984  18.371   0.624  0.00  0.00    +0.030 C 
ATOM     11  C   UNL     1       5.042  13.996   1.063  0.00  0.00    +0.127 A 
ATOM     12  C   UNL     1       6.115  13.105   1.127  0.00  0.00    +0.083 A 
ATOM     13  C   UNL     1       5.846  11.762   1.320  0.00  0.00    +0.135 A 
ATOM     14  N   UNL     1       4.587  11.363   1.436  0.00  0.00    -0.210 NA
ATOM     15  C   UNL     1       3.589  12.232   1.371  0.00  0.00    +0.192 A 
ATOM     16  N   UNL     1       3.804  13.526   1.182  0.00  0.00    -0.207 NA
ATOM     17 CL   UNL     1       7.143  10.611   1.407  0.00  0.00    -0.062 Cl
ATOM     18  H   UNL     1       6.717  18.545  -2.287  0.00  0.00    +0.150 HD
ENDROOT
BRANCH   1  19
ATOM     19  C   UNL     1       5.534  20.256  -3.089  0.00  0.00    +0.105 C 
BRANCH  19  21
ATOM     20  C   UNL     1       6.414  21.551  -5.036  0.00  0.00    +0.005 C 
ATOM     21  C   UNL     1       6.688  20.383  -4.086  0.00  0.00    +0.015 C 
ENDBRANCH  19  21
ENDBRANCH   1  19
BRANCH  15  22
ATOM     22  S   UNL     1       1.933  11.652   1.531  0.00  0.00    -0.077 S 
BRANCH  22  23
ATOM     23  C   UNL     1       2.240   9.882   1.752  0.00  0.00    +0.173 C 
BRANCH  23  24
ATOM     24  C   UNL     1       0.927   9.160   1.914  0.00  0.00    +0.223 C 
ATOM     25  O   UNL     1      -0.114   9.782   1.883  0.00  0.00    -0.275 OA
ATOM     26  N   UNL     1       0.909   7.824   2.092  0.00  0.00    -0.315 N 
ATOM     27  H   UNL     1       1.853   7.261   2.120  0.00  0.00    +0.149 HD
BRANCH  26  28
ATOM     28  C   UNL     1      -0.367   7.123   2.250  0.00  0.00    +0.102 C 
BRANCH  28  29
ATOM     29  C   UNL     1      -0.108   5.627   2.436  0.00  0.00    +0.000 C 
BRANCH  29  30
ATOM     30  C   UNL     1      -1.441   4.894   2.601  0.00  0.00    -0.077 C 
BRANCH  30  31
ATOM     31  N   UNL     1      -1.191   3.458   2.780  0.00  0.00    +0.381 N 
ATOM     32  C   UNL     1      -0.617   2.868   1.564  0.00  0.00    -0.078 C 
ATOM     33  C   UNL     1      -0.506   1.351   1.734  0.00  0.00    -0.019 C 
ATOM     34  C   UNL     1       0.381   1.042   2.942  0.00  0.00    -0.003 C 
ATOM     35  C   UNL     1      -0.212   1.708   4.187  0.00  0.00    -0.016 C 
ATOM     36  C   UNL     1      -0.332   3.214   3.945  0.00  0.00    -0.072 C 
ATOM     37  C   UNL     1      -0.945   3.881   5.178  0.00  0.00    -0.013 C 
ATOM     38  H   UNL     1      -2.158   2.966   2.966  0.00  0.00    -0.081 HD
ENDBRANCH  30  31
ENDBRANCH  29  30
ENDBRANCH  28  29
ENDBRANCH  26  28
ENDBRANCH  23  24
ENDBRANCH  22  23
ENDBRANCH  15  22
TORSDOF 9
