REMARK  Name = ZINC02328994
REMARK  8 active torsions:
REMARK  status: ('A' for Active; 'I' for Inactive)
REMARK    1  A    between atoms: C_1  and  O_2
REMARK    2  A    between atoms: O_2  and  C_3
REMARK    3  A    between atoms: C_6  and  C_9
REMARK    4  A    between atoms: C_9  and  N_10
REMARK    5  A    between atoms: C_14  and  C_15
REMARK    6  A    between atoms: C_16  and  N_26
REMARK    7  A    between atoms: N_26  and  C_27
REMARK    8  A    between atoms: C_27  and  C_28
REMARK                            x       y       z     vdW  Elec       q    Type
REMARK                         _______ _______ _______ _____ _____    ______ ____
ROOT
ATOM      1  C   UNL     1       2.224   0.960  -0.153  0.00  0.00    +0.081 A 
ATOM      2  C   UNL     1       0.915   1.460  -0.352  0.00  0.00    +0.134 A 
ATOM      3  N   UNL     1       0.727   2.766  -0.475  0.00  0.00    -0.214 NA
ATOM      4  C   UNL     1       1.743   3.627  -0.421  0.00  0.00    +0.142 A 
ATOM      5  C   UNL     1       1.482   5.002  -0.559  0.00  0.00    +0.047 A 
ATOM      6  C   UNL     1       2.514   5.891  -0.506  0.00  0.00    +0.005 A 
ATOM      7  C   UNL     1       3.821   5.422  -0.316  0.00  0.00    +0.018 A 
ATOM      8  C   UNL     1       4.054   4.097  -0.186  0.00  0.00    +0.096 A 
ATOM      9  N   UNL     1       3.028   3.200  -0.237  0.00  0.00    -0.268 N 
ATOM     10  C   UNL     1       3.295   1.883  -0.103  0.00  0.00    +0.267 A 
ATOM     11  O   UNL     1       4.440   1.496   0.061  0.00  0.00    -0.267 OA
ENDROOT
BRANCH   1  16
ATOM     12  N   UNL     1       1.081  -2.983   2.225  0.00  0.00    -0.251 N 
ATOM     13  C   UNL     1       1.792  -2.536   1.204  0.00  0.00    +0.259 C 
ATOM     14  O   UNL     1       2.419  -3.303   0.495  0.00  0.00    -0.269 OA
ATOM     15  C   UNL     1       1.807  -1.133   0.960  0.00  0.00    +0.077 C 
ATOM     16  C   UNL     1       2.456  -0.428  -0.012  0.00  0.00    +0.037 C 
ATOM     17  S   UNL     1       0.739  -0.548   2.269  0.00  0.00    -0.061 S 
ATOM     18  C   UNL     1       0.379  -2.134   3.008  0.00  0.00    +0.121 C 
ATOM     19  S   UNL     1      -0.605  -2.488   4.363  0.00  0.00    -0.027 S 
BRANCH  12  20
ATOM     20  C   UNL     1       1.048  -4.420   2.508  0.00  0.00    +0.150 C 
BRANCH  20  24
ATOM     21  C   UNL     1      -2.177  -6.221   0.359  0.00  0.00    +0.120 A 
ATOM     22  C   UNL     1      -0.920  -6.129  -0.222  0.00  0.00    +0.046 A 
ATOM     23  C   UNL     1       0.120  -5.546   0.474  0.00  0.00    +0.009 A 
ATOM     24  C   UNL     1      -0.089  -5.056   1.750  0.00  0.00    -0.029 A 
ATOM     25  C   UNL     1      -1.339  -5.152   2.334  0.00  0.00    +0.009 A 
ATOM     26  C   UNL     1      -2.384  -5.729   1.639  0.00  0.00    +0.046 A 
BRANCH  21  28
ATOM     27  C   UNL     1      -4.468  -6.855   0.336  0.00  0.00    +0.277 C 
ATOM     28  O   UNL     1      -3.202  -6.794  -0.325  0.00  0.00    -0.495 OA
ENDBRANCH  21  28
ENDBRANCH  20  24
ENDBRANCH  12  20
ENDBRANCH   1  16
BRANCH   2  29
ATOM     29  N   UNL     1      -0.156   0.596  -0.411  0.00  0.00    -0.326 N 
ATOM     30  H   UNL     1      -0.014  -0.360  -0.320  0.00  0.00    +0.148 HD
BRANCH  29  31
ATOM     31  C   UNL     1      -1.509   1.119  -0.617  0.00  0.00    +0.134 C 
BRANCH  31  32
ATOM     32  C   UNL     1      -2.505  -0.042  -0.650  0.00  0.00    +0.135 C 
ATOM     33  C   UNL     1      -3.932   0.499  -0.867  0.00  0.00    +0.035 C 
ATOM     34  C   UNL     1      -4.408  -0.197  -2.166  0.00  0.00    +0.031 C 
ATOM     35  C   UNL     1      -3.465  -1.424  -2.241  0.00  0.00    +0.160 C 
ATOM     36  O   UNL     1      -2.205  -0.912  -1.755  0.00  0.00    -0.375 OA
ENDBRANCH  31  32
ENDBRANCH  29  31
ENDBRANCH   2  29
TORSDOF 7
