REMARK  Name = ZINC60361294
REMARK  4 active torsions:
REMARK  status: ('A' for Active; 'I' for Inactive)
REMARK    1  A    between atoms: N_8  and  C_16
REMARK    2  A    between atoms: C_16  and  C_17
REMARK    3  A    between atoms: N_27  and  C_28
REMARK    4  A    between atoms: C_28  and  C_29
REMARK                            x       y       z     vdW  Elec       q    Type
REMARK                         _______ _______ _______ _____ _____    ______ ____
ROOT
ATOM      1  C   UNL     1      -0.017   1.380   0.010  0.00  0.00    +0.000 A 
ATOM      2  C   UNL     1       1.166   2.097   0.002  0.00  0.00    +0.001 A 
ATOM      3  C   UNL     1       2.379   1.435  -0.022  0.00  0.00    +0.009 A 
ATOM      4  C   UNL     1       2.400   0.046  -0.034  0.00  0.00    -0.013 A 
ATOM      5  C   UNL     1       1.206  -0.675  -0.010  0.00  0.00    -0.026 A 
ATOM      6  C   UNL     1       0.002  -0.004   0.002  0.00  0.00    +0.005 A 
ATOM      7  C   UNL     1       1.259  -2.177   0.032  0.00  0.00    +0.121 C 
ATOM      8  N   UNL     1       1.568  -2.735  -1.286  0.00  0.00    -0.287 NA
ATOM      9  C   UNL     1       2.654  -2.019  -1.959  0.00  0.00    +0.121 C 
ATOM     10  C   UNL     1       3.796  -1.742  -1.020  0.00  0.00    -0.026 A 
ATOM     11  C   UNL     1       3.674  -0.710  -0.087  0.00  0.00    -0.013 A 
ATOM     12  C   UNL     1       4.728  -0.415   0.768  0.00  0.00    +0.009 A 
ATOM     13  C   UNL     1       5.890  -1.160   0.702  0.00  0.00    +0.001 A 
ATOM     14  C   UNL     1       6.000  -2.195  -0.210  0.00  0.00    +0.000 A 
ATOM     15  C   UNL     1       4.955  -2.485  -1.071  0.00  0.00    +0.005 A 
ENDROOT
BRANCH   8  16
ATOM     16  C   UNL     1       1.862  -4.171  -1.193  0.00  0.00    +0.159 C 
BRANCH  16  17
ATOM     17  C   UNL     1       1.932  -4.760  -2.579  0.00  0.00    +0.128 A 
ATOM     18  N   UNL     1       1.742  -3.972  -3.593  0.00  0.00    -0.232 NA
ATOM     19  C   UNL     1       1.790  -4.430  -4.869  0.00  0.00    +0.078 A 
ATOM     20  C   UNL     1       1.587  -3.583  -5.960  0.00  0.00    +0.028 A 
ATOM     21  C   UNL     1       1.645  -4.092  -7.238  0.00  0.00    +0.002 A 
ATOM     22  C   UNL     1       1.904  -5.438  -7.457  0.00  0.00    +0.001 A 
ATOM     23  C   UNL     1       2.109  -6.294  -6.396  0.00  0.00    +0.015 A 
ATOM     24  C   UNL     1       2.054  -5.799  -5.095  0.00  0.00    +0.065 A 
ATOM     25  C   UNL     1       2.264  -6.664  -3.925  0.00  0.00    +0.263 A 
ATOM     26  O   UNL     1       2.495  -7.853  -4.050  0.00  0.00    -0.267 OA
ATOM     27  N   UNL     1       2.196  -6.087  -2.703  0.00  0.00    -0.281 N 
BRANCH  27  28
ATOM     28  C   UNL     1       2.404  -6.900  -1.502  0.00  0.00    +0.245 C 
BRANCH  28  29
ATOM     29  C   UNL     1       1.114  -7.448  -1.052  0.00  0.00    +0.084 C 
ATOM     30  N   UNL     1       0.119  -7.871  -0.704  0.00  0.00    -0.195 NA
ENDBRANCH  28  29
ENDBRANCH  27  28
ENDBRANCH  16  17
ENDBRANCH   8  16
TORSDOF 4
