REMARK  Name = ZINC08835423
REMARK  7 active torsions:
REMARK  status: ('A' for Active; 'I' for Inactive)
REMARK    1  A    between atoms: C_1  and  O_2
REMARK    2  A    between atoms: O_2  and  C_3
REMARK    3  A    between atoms: N_13  and  C_14
REMARK    4  A    between atoms: C_14  and  N_16
REMARK    5  A    between atoms: C_17  and  C_19
REMARK    6  A    between atoms: C_22  and  N_28
REMARK    7  A    between atoms: C_23  and  N_25
REMARK                            x       y       z     vdW  Elec       q    Type
REMARK                         _______ _______ _______ _____ _____    ______ ____
ROOT
ATOM      1  N   UNL     1       3.587   3.276   0.092  0.00  0.00    -0.262 N 
ATOM      2  C   UNL     1       2.412   3.928  -0.017  0.00  0.00    +0.250 C 
ATOM      3  O   UNL     1       2.397   5.138  -0.129  0.00  0.00    -0.270 OA
ATOM      4  H   UNL     1       3.600   2.181   0.193  0.00  0.00    +0.157 HD
ENDROOT
BRANCH   2   5
ATOM      5  C   UNL     1       1.146   3.173  -0.001  0.00  0.00    +0.039 A 
ATOM      6  C   UNL     1       1.161   1.781   0.128  0.00  0.00    +0.015 A 
ATOM      7  C   UNL     1      -0.012   1.082   0.144  0.00  0.00    +0.026 A 
ATOM      8  C   UNL     1      -1.227   1.751   0.027  0.00  0.00    +0.060 A 
ATOM      9  C   UNL     1      -1.253   3.138  -0.097  0.00  0.00    +0.148 A 
ATOM     10  C   UNL     1      -0.074   3.848  -0.113  0.00  0.00    +0.047 A 
BRANCH   8  11
ATOM     11  N   UNL     1      -2.418   1.033   0.038  0.00  0.00    -0.328 N 
ATOM     12  C   UNL     1      -2.399  -0.047  -0.982  0.00  0.00    +0.105 C 
ATOM     13  C   UNL     1      -3.497  -1.021  -0.487  0.00  0.00    +0.020 C 
ATOM     14  C   UNL     1      -3.334  -0.975   1.049  0.00  0.00    +0.020 C 
ATOM     15  C   UNL     1      -2.617   0.357   1.338  0.00  0.00    +0.105 C 
ENDBRANCH   8  11
BRANCH   9  16
ATOM     16  N   UNL     1      -2.547   3.847  -0.215  0.00  0.00    +0.058 N 
ATOM     17  O   UNL     1      -2.575   5.064  -0.229  0.00  0.00    -0.126 OA
ATOM     18  O   UNL     1      -3.583   3.213  -0.299  0.00  0.00    -0.126 OA
ENDBRANCH   9  16
ENDBRANCH   2   5
BRANCH   1  19
ATOM     19  C   UNL     1       4.744   3.966   0.077  0.00  0.00    +0.163 C 
ATOM     20  S   UNL     1       4.723   5.671  -0.081  0.00  0.00    -0.016 S 
BRANCH  19  31
ATOM     21  C   UNL     1      11.209   6.740   0.091  0.00  0.00    +0.140 A 
ATOM     22  C   UNL     1      10.915   5.389   0.203  0.00  0.00    +0.064 A 
ATOM     23  C   UNL     1       9.606   4.978   0.186  0.00  0.00    +0.042 A 
ATOM     24  C   UNL     1       8.524   5.878   0.059  0.00  0.00    +0.057 A 
ATOM     25  C   UNL     1       8.858   7.247  -0.052  0.00  0.00    +0.050 A 
ATOM     26  C   UNL     1      10.167   7.654  -0.035  0.00  0.00    +0.085 A 
ATOM     27 CL   UNL     1      10.533   9.346  -0.175  0.00  0.00    -0.080 Cl
ATOM     28  N   UNL     1       7.293   5.318   0.059  0.00  0.00    -0.335 N 
ATOM     29  C   UNL     1       7.108   4.023   0.170  0.00  0.00    +0.163 A 
ATOM     30  S   UNL     1       8.781   3.409   0.304  0.00  0.00    -0.052 S 
ATOM     31  N   UNL     1       5.919   3.314   0.186  0.00  0.00    -0.169 NA
ATOM     32  H   UNL     1       6.400   5.952  -0.036  0.00  0.00    +0.168 HD
BRANCH  21  34
ATOM     33  C   UNL     1      13.513   6.167   0.239  0.00  0.00    +0.277 C 
ATOM     34  O   UNL     1      12.501   7.167   0.106  0.00  0.00    -0.494 OA
ENDBRANCH  21  34
ENDBRANCH  19  31
ENDBRANCH   1  19
TORSDOF 6
