REMARK  Name = ZINC09476710
REMARK  8 active torsions:
REMARK  status: ('A' for Active; 'I' for Inactive)
REMARK    1  A    between atoms: C_1  and  C_2
REMARK    2  A    between atoms: C_2  and  C_4
REMARK    3  A    between atoms: C_2  and  N_15
REMARK    4  A    between atoms: C_4  and  C_5
REMARK    5  A    between atoms: C_16  and  C_18
REMARK    6  A    between atoms: C_18  and  C_19
REMARK    7  A    between atoms: C_19  and  N_20
REMARK    8  A    between atoms: N_20  and  C_21
REMARK                            x       y       z     vdW  Elec       q    Type
REMARK                         _______ _______ _______ _____ _____    ______ ____
ROOT
ATOM      1  N   UNL     1       3.868   1.940   1.958  0.00  0.00    -0.312 N 
ATOM      2  C   UNL     1       3.765   2.104   3.292  0.00  0.00    +0.215 C 
ATOM      3  O   UNL     1       3.949   1.163   4.035  0.00  0.00    -0.276 OA
ATOM      4  H   UNL     1       3.721   2.693   1.365  0.00  0.00    +0.149 HD
ENDROOT
BRANCH   1   6
ATOM      5  C   UNL     1       5.721   0.447   1.397  0.00  0.00    +0.028 C 
ATOM      6  C   UNL     1       4.202   0.626   1.405  0.00  0.00    +0.074 C 
BRANCH   6   7
ATOM      7  C   UNL     1       3.669   0.523  -0.025  0.00  0.00    +0.059 C 
BRANCH   7   8
ATOM      8  C   UNL     1       2.163   0.576  -0.004  0.00  0.00    -0.021 A 
ATOM      9  C   UNL     1       1.327  -0.474   0.003  0.00  0.00    +0.087 A 
ATOM     10  N   UNL     1       0.030  -0.038   0.023  0.00  0.00    -0.360 N 
ATOM     11  H   UNL     1      -0.751  -0.613   0.031  0.00  0.00    +0.165 HD
ATOM     12  C   UNL     1      -0.001   1.339   0.029  0.00  0.00    +0.047 A 
ATOM     13  C   UNL     1       1.333   1.784   0.011  0.00  0.00    +0.003 A 
ATOM     14  C   UNL     1       1.611   3.152   0.013  0.00  0.00    +0.010 A 
ATOM     15  C   UNL     1       0.584   4.053   0.031  0.00  0.00    +0.001 A 
ATOM     16  C   UNL     1      -0.734   3.619   0.048  0.00  0.00    +0.002 A 
ATOM     17  C   UNL     1      -1.031   2.273   0.051  0.00  0.00    +0.026 A 
ENDBRANCH   7   8
ENDBRANCH   6   7
ENDBRANCH   1   6
BRANCH   2  18
ATOM     18  C   UNL     1       3.421   3.457   3.861  0.00  0.00    +0.114 C 
BRANCH  18  19
ATOM     19  C   UNL     1       3.367   3.370   5.387  0.00  0.00    +0.112 C 
BRANCH  19  20
ATOM     20  N   UNL     1       3.033   4.684   5.940  0.00  0.00    -0.327 N 
ATOM     21  H   UNL     1       3.731   5.347   5.669  0.00  0.00    +0.148 HD
BRANCH  20  22
ATOM     22  C   UNL     1       2.927   4.853   7.311  0.00  0.00    +0.151 A 
ATOM     23  C   UNL     1       2.610   6.099   7.855  0.00  0.00    +0.147 A 
ATOM     24  C   UNL     1       2.503   6.218   9.250  0.00  0.00    +0.164 A 
ATOM     25  N   UNL     1       2.197   7.503   9.510  0.00  0.00    -0.329 N 
ATOM     26  C   UNL     1       2.104   8.169   8.393  0.00  0.00    +0.198 A 
ATOM     27  N   UNL     1       2.350   7.354   7.343  0.00  0.00    -0.231 NA
ATOM     28  H   UNL     1       2.061   7.889  10.422  0.00  0.00    +0.168 HD
ATOM     29  N   UNL     1       2.706   5.133  10.004  0.00  0.00    -0.198 NA
ATOM     30  C   UNL     1       3.022   3.982   9.448  0.00  0.00    +0.226 A 
ATOM     31  N   UNL     1       3.126   3.831   8.139  0.00  0.00    -0.200 NA
ATOM     32 CL   UNL     1       3.294   2.607  10.473  0.00  0.00    -0.041 Cl
ENDBRANCH  20  22
ENDBRANCH  19  20
ENDBRANCH  18  19
ENDBRANCH   2  18
TORSDOF 7
