REMARK  Name = ZINC39494160
REMARK  12 active torsions:
REMARK  status: ('A' for Active; 'I' for Inactive)
REMARK    1  A    between atoms: C_1  and  C_2
REMARK    2  A    between atoms: C_2  and  C_3
REMARK    3  A    between atoms: C_2  and  C_4
REMARK    4  A    between atoms: C_4  and  C_5
REMARK    5  A    between atoms: C_5  and  C_7
REMARK    6  A    between atoms: C_5  and  C_25
REMARK    7  A    between atoms: C_7  and  C_9
REMARK    8  A    between atoms: C_7  and  N_15
REMARK    9  A    between atoms: C_16  and  C_18
REMARK   10  A    between atoms: C_23  and  O_24
REMARK   11  A    between atoms: C_25  and  C_27
REMARK   12  A    between atoms: C_27  and  C_28
REMARK                            x       y       z     vdW  Elec       q    Type
REMARK                         _______ _______ _______ _____ _____    ______ ____
ROOT
ATOM      1  C   UNL     1      -0.803  -2.733   1.110  0.00  0.00    +0.114 C 
ENDROOT
BRANCH   1   2
ATOM      2  C   UNL     1      -1.690  -2.391   2.280  0.00  0.00    -0.027 A 
ATOM      3  C   UNL     1      -1.590  -1.152   2.884  0.00  0.00    +0.005 A 
ATOM      4  C   UNL     1      -2.404  -0.838   3.956  0.00  0.00    +0.000 A 
ATOM      5  C   UNL     1      -3.317  -1.764   4.425  0.00  0.00    +0.000 A 
ATOM      6  C   UNL     1      -3.418  -3.003   3.820  0.00  0.00    +0.000 A 
ATOM      7  C   UNL     1      -2.607  -3.315   2.745  0.00  0.00    +0.005 A 
ENDBRANCH   1   2
BRANCH   1   8
ATOM      8  N   UNL     1       0.565  -2.288   1.388  0.00  0.00    -0.304 N 
ATOM      9  C   UNL     1       1.427  -3.113   2.014  0.00  0.00    +0.248 C 
ATOM     10  O   UNL     1       1.101  -4.256   2.267  0.00  0.00    -0.270 OA
ATOM     11  H   UNL     1       0.849  -1.400   1.121  0.00  0.00    +0.150 HD
BRANCH   9  12
ATOM     12  C   UNL     1       2.768  -2.627   2.393  0.00  0.00    +0.078 A 
ATOM     13  C   UNL     1       3.108  -1.285   2.208  0.00  0.00    +0.017 A 
ATOM     14  C   UNL     1       4.362  -0.838   2.564  0.00  0.00    +0.001 A 
ATOM     15  C   UNL     1       5.288  -1.714   3.106  0.00  0.00    +0.004 A 
ATOM     16  C   UNL     1       4.966  -3.043   3.294  0.00  0.00    +0.046 A 
ATOM     17  C   UNL     1       3.707  -3.509   2.946  0.00  0.00    +0.129 A 
BRANCH  17  18
ATOM     18  O   UNL     1       3.386  -4.814   3.136  0.00  0.00    -0.506 OA
ATOM     19  H   UNL     1       3.592  -5.383   2.381  0.00  0.00    +0.292 HD
ENDBRANCH  17  18
ENDBRANCH   9  12
ENDBRANCH   1   8
BRANCH   1  20
ATOM     20  C   UNL     1      -1.323  -2.031  -0.146  0.00  0.00    +0.080 C 
BRANCH  20  21
ATOM     21  C   UNL     1      -2.671  -2.594  -0.514  0.00  0.00    +0.143 C 
ATOM     22  O   UNL     1      -3.448  -2.917   0.352  0.00  0.00    -0.297 OA
BRANCH  21  23
ATOM     23  C   UNL     1      -3.051  -2.752  -1.964  0.00  0.00    +0.109 C 
BRANCH  23  24
ATOM     24  C   UNL     1      -4.483  -3.213  -2.061  0.00  0.00    -0.040 A 
ATOM     25  C   UNL     1      -4.775  -4.564  -2.070  0.00  0.00    +0.004 A 
ATOM     26  C   UNL     1      -6.088  -4.987  -2.159  0.00  0.00    +0.000 A 
ATOM     27  C   UNL     1      -7.109  -4.059  -2.237  0.00  0.00    +0.000 A 
ATOM     28  C   UNL     1      -6.817  -2.708  -2.227  0.00  0.00    +0.000 A 
ATOM     29  C   UNL     1      -5.505  -2.285  -2.134  0.00  0.00    +0.004 A 
ENDBRANCH  23  24
ENDBRANCH  21  23
ENDBRANCH  20  21
BRANCH  20  30
ATOM     30  C   UNL     1      -1.452  -0.531   0.124  0.00  0.00    +0.016 C 
BRANCH  30  32
ATOM     31  C   UNL     1      -2.075   1.671  -0.879  0.00  0.00    +0.007 C 
ATOM     32  C   UNL     1      -1.818   0.192  -1.174  0.00  0.00    -0.016 C 
ATOM     33  C   UNL     1      -0.665   0.063  -2.171  0.00  0.00    +0.007 C 
ENDBRANCH  30  32
ENDBRANCH  20  30
ENDBRANCH   1  20
TORSDOF 10
