REMARK  Name = ZINC39838528
REMARK  10 active torsions:
REMARK  status: ('A' for Active; 'I' for Inactive)
REMARK    1  A    between atoms: C_1  and  C_2
REMARK    2  A    between atoms: C_2  and  C_3
REMARK    3  A    between atoms: C_3  and  C_4
REMARK    4  A    between atoms: C_4  and  O_5
REMARK    5  A    between atoms: O_5  and  C_6
REMARK    6  A    between atoms: C_9  and  C_15
REMARK    7  A    between atoms: C_11  and  O_12
REMARK    8  A    between atoms: O_12  and  C_13
REMARK    9  A    between atoms: C_13  and  C_14
REMARK   10  A    between atoms: C_35  and  C_37
REMARK                            x       y       z     vdW  Elec       q    Type
REMARK                         _______ _______ _______ _____ _____    ______ ____
ROOT
ATOM      1  C   UNL     1       1.844  -8.068  -3.111  0.00  0.00    +0.151 C 
ATOM      2  C   UNL     1       2.946  -8.604  -2.257  0.00  0.00    +0.072 A 
ATOM      3  C   UNL     1       4.386  -8.329  -2.254  0.00  0.00    +0.199 A 
ATOM      4  O   UNL     1       4.895  -7.428  -2.898  0.00  0.00    -0.287 OA
ATOM      5  C   UNL     1       5.166  -9.253  -1.391  0.00  0.00    +0.066 A 
ATOM      6  C   UNL     1       6.560  -9.251  -1.434  0.00  0.00    +0.035 A 
ATOM      7  C   UNL     1       7.267 -10.118  -0.630  0.00  0.00    +0.042 A 
ATOM      8  C   UNL     1       6.592 -10.989   0.216  0.00  0.00    +0.023 A 
ATOM      9  C   UNL     1       5.217 -10.998   0.268  0.00  0.00    +0.048 A 
ATOM     10  C   UNL     1       4.479 -10.127  -0.534  0.00  0.00    +0.140 A 
ATOM     11  O   UNL     1       3.128 -10.150  -0.456  0.00  0.00    -0.450 OA
ATOM     12  C   UNL     1       2.396  -9.491  -1.376  0.00  0.00    +0.199 A 
ATOM     13  C   UNL     1       0.948  -9.560  -1.633  0.00  0.00    +0.288 C 
ATOM     14  O   UNL     1       0.165 -10.260  -1.022  0.00  0.00    -0.266 OA
ATOM     15  N   UNL     1       0.615  -8.731  -2.645  0.00  0.00    -0.238 N 
ATOM     16  C   UNL     1      -0.665  -8.536  -3.159  0.00  0.00    +0.129 A 
ATOM     17  C   UNL     1      -0.843  -7.731  -4.278  0.00  0.00    +0.044 A 
ATOM     18  C   UNL     1      -2.119  -7.546  -4.778  0.00  0.00    +0.005 A 
ATOM     19  C   UNL     1      -3.179  -8.176  -4.139  0.00  0.00    +0.023 A 
ATOM     20  C   UNL     1      -2.929  -8.962  -3.032  0.00  0.00    +0.040 A 
ATOM     21  N   UNL     1      -1.700  -9.125  -2.580  0.00  0.00    -0.237 NA
ATOM     22  C   UNL     1      -4.075  -9.649  -2.333  0.00  0.00    +0.065 C 
ATOM     23 CL   UNL     1       9.002 -10.123  -0.675  0.00  0.00    -0.084 Cl
ENDROOT
BRANCH   1  27
ATOM     24  C   UNL     1       1.514  -3.834  -2.603  0.00  0.00    +0.162 A 
ATOM     25  C   UNL     1       0.980  -4.692  -1.655  0.00  0.00    +0.050 A 
ATOM     26  C   UNL     1       1.089  -6.060  -1.822  0.00  0.00    +0.009 A 
ATOM     27  C   UNL     1       1.728  -6.576  -2.934  0.00  0.00    -0.018 A 
ATOM     28  C   UNL     1       2.263  -5.725  -3.884  0.00  0.00    +0.055 A 
ATOM     29  C   UNL     1       2.153  -4.353  -3.725  0.00  0.00    +0.162 A 
BRANCH  24  30
ATOM     30  O   UNL     1       1.408  -2.488  -2.441  0.00  0.00    -0.488 OA
BRANCH  30  31
ATOM     31  C   UNL     1       0.739  -2.027  -1.265  0.00  0.00    +0.229 C 
BRANCH  31  32
ATOM     32  C   UNL     1       0.718  -0.497  -1.257  0.00  0.00    +0.041 C 
BRANCH  32  34
ATOM     33  C   UNL     1      -0.019   1.526   0.010  0.00  0.00    +0.004 C 
ATOM     34  C   UNL     1       0.002  -0.004   0.002  0.00  0.00    -0.000 C 
ENDBRANCH  32  34
ENDBRANCH  31  32
ENDBRANCH  30  31
ENDBRANCH  24  30
BRANCH  29  35
ATOM     35  O   UNL     1       2.673  -3.515  -4.662  0.00  0.00    -0.489 OA
BRANCH  35  36
ATOM     36  C   UNL     1       3.315  -4.118  -5.787  0.00  0.00    +0.226 C 
ATOM     37  C   UNL     1       3.833  -3.026  -6.725  0.00  0.00    +0.048 C 
ENDBRANCH  35  36
ENDBRANCH  29  35
ENDBRANCH   1  27
TORSDOF 7
