REMARK  Name = ZINC41315905
REMARK  7 active torsions:
REMARK  status: ('A' for Active; 'I' for Inactive)
REMARK    1  A    between atoms: C_1  and  C_2
REMARK    2  A    between atoms: C_2  and  C_3
REMARK    3  A    between atoms: C_3  and  C_5
REMARK    4  A    between atoms: C_3  and  C_22
REMARK    5  A    between atoms: C_5  and  C_6
REMARK    6  A    between atoms: C_14  and  S_18
REMARK    7  A    between atoms: S_18  and  N_21
REMARK                            x       y       z     vdW  Elec       q    Type
REMARK                         _______ _______ _______ _____ _____    ______ ____
ROOT
ATOM      1  C   UNL     1      -0.809  -2.436  -1.501  0.00  0.00    +0.216 C 
ATOM      2  O   UNL     1      -1.679  -1.593  -1.560  0.00  0.00    -0.276 OA
ATOM      3  N   UNL     1      -1.129  -3.742  -1.589  0.00  0.00    -0.297 N 
ATOM      4  C   UNL     1      -2.525  -4.178  -1.764  0.00  0.00    +0.113 C 
ATOM      5  C   UNL     1      -2.634  -4.869  -3.122  0.00  0.00    +0.054 C 
ATOM      6  C   UNL     1      -1.520  -5.864  -3.309  0.00  0.00    -0.041 A 
ATOM      7  C   UNL     1      -1.698  -6.860  -4.261  0.00  0.00    +0.006 A 
ATOM      8  C   UNL     1      -0.713  -7.798  -4.489  0.00  0.00    +0.029 A 
ATOM      9  C   UNL     1       0.465  -7.747  -3.766  0.00  0.00    +0.105 A 
ATOM     10  C   UNL     1       0.643  -6.761  -2.818  0.00  0.00    +0.034 A 
ATOM     11  C   UNL     1      -0.350  -5.821  -2.583  0.00  0.00    -0.025 A 
ATOM     12  C   UNL     1      -0.101  -4.786  -1.520  0.00  0.00    +0.143 C 
ENDROOT
BRANCH   9  13
ATOM     13  S   UNL     1       1.732  -8.937  -4.055  0.00  0.00    +0.056 S 
ATOM     14  O   UNL     1       2.510  -8.999  -2.867  0.00  0.00    -0.153 OA
ATOM     15  O   UNL     1       1.097 -10.081  -4.610  0.00  0.00    -0.153 OA
BRANCH  13  16
ATOM     16  N   UNL     1       2.719  -8.325  -5.235  0.00  0.00    -0.204 NA
ATOM     17  H   UNL     1       2.531  -7.456  -5.622  0.00  0.00    +0.144 HD
ATOM     18  H   UNL     1       3.486  -8.836  -5.540  0.00  0.00    +0.144 HD
ENDBRANCH  13  16
ENDBRANCH   9  13
BRANCH   1  19
ATOM     19  C   UNL     1       0.630  -2.023  -1.329  0.00  0.00    +0.104 C 
BRANCH  19  20
ATOM     20  C   UNL     1       0.718  -0.497  -1.257  0.00  0.00    +0.027 C 
BRANCH  20  21
ATOM     21  C   UNL     1       2.165  -0.079  -1.208  0.00  0.00    -0.044 A 
ATOM     22  C   UNL     1       2.975  -0.515  -0.176  0.00  0.00    +0.007 A 
ATOM     23  C   UNL     1       4.303  -0.132  -0.130  0.00  0.00    +0.038 A 
ATOM     24  C   UNL     1       4.821   0.687  -1.119  0.00  0.00    +0.123 A 
ATOM     25  C   UNL     1       4.008   1.122  -2.152  0.00  0.00    +0.038 A 
ATOM     26  C   UNL     1       2.683   0.734  -2.199  0.00  0.00    +0.007 A 
ATOM     27  F   UNL     1       6.118   1.062  -1.075  0.00  0.00    -0.205 F 
ENDBRANCH  20  21
BRANCH  20  29
ATOM     28  C   UNL     1      -0.019   1.526   0.010  0.00  0.00    +0.004 C 
ATOM     29  C   UNL     1       0.002  -0.004   0.002  0.00  0.00    +0.005 C 
ENDBRANCH  20  29
ENDBRANCH  19  20
ENDBRANCH   1  19
TORSDOF 6
