REMARK  Name = ZINC38686330
REMARK  9 active torsions:
REMARK  status: ('A' for Active; 'I' for Inactive)
REMARK    1  A    between atoms: C_5  and  C_7
REMARK    2  A    between atoms: C_7  and  O_8
REMARK    3  A    between atoms: O_8  and  C_9
REMARK    4  A    between atoms: C_12  and  C_15
REMARK    5  A    between atoms: C_20  and  O_29
REMARK    6  A    between atoms: C_24  and  N_28
REMARK    7  A    between atoms: C_25  and  C_26
REMARK    8  A    between atoms: O_29  and  C_30
REMARK    9  A    between atoms: C_30  and  C_32
REMARK                            x       y       z     vdW  Elec       q    Type
REMARK                         _______ _______ _______ _____ _____    ______ ____
ROOT
ATOM      1  C   UNL     1      -0.831  -8.257  -0.062  0.00  0.00    +0.098 C 
ATOM      2  C   UNL     1      -1.567  -8.679   1.181  0.00  0.00    +0.008 A 
ATOM      3  C   UNL     1      -0.873  -8.815   2.370  0.00  0.00    +0.012 A 
ATOM      4  C   UNL     1      -1.531  -9.201   3.521  0.00  0.00    +0.047 A 
ATOM      5  C   UNL     1      -2.895  -9.455   3.487  0.00  0.00    +0.135 A 
ATOM      6  C   UNL     1      -3.594  -9.320   2.298  0.00  0.00    +0.093 A 
ATOM      7  C   UNL     1      -2.929  -8.931   1.142  0.00  0.00    +0.138 A 
ATOM      8  O   UNL     1      -3.627  -8.803  -0.014  0.00  0.00    -0.441 OA
ATOM      9  C   UNL     1      -2.981  -8.814  -1.191  0.00  0.00    +0.199 C 
ATOM     10  C   UNL     1      -1.656  -8.562  -1.280  0.00  0.00    +0.098 C 
ENDROOT
BRANCH   1  14
ATOM     11  C   UNL     1      -0.058  -4.057   0.107  0.00  0.00    +0.121 A 
ATOM     12  C   UNL     1       0.997  -4.955   0.026  0.00  0.00    +0.046 A 
ATOM     13  C   UNL     1       0.744  -6.312  -0.029  0.00  0.00    +0.008 A 
ATOM     14  C   UNL     1      -0.558  -6.776  -0.002  0.00  0.00    -0.034 A 
ATOM     15  C   UNL     1      -1.611  -5.883   0.078  0.00  0.00    +0.008 A 
ATOM     16  C   UNL     1      -1.363  -4.525   0.139  0.00  0.00    +0.046 A 
BRANCH  11  17
ATOM     17  O   UNL     1       0.188  -2.722   0.162  0.00  0.00    -0.487 OA
BRANCH  17  18
ATOM     18  C   UNL     1       1.557  -2.312   0.124  0.00  0.00    +0.266 C 
BRANCH  18  23
ATOM     19  C   UNL     1       0.543   1.319   0.340  0.00  0.00    +0.000 A 
ATOM     20  C   UNL     1       1.773   1.951   0.320  0.00  0.00    +0.001 A 
ATOM     21  C   UNL     1       2.933   1.204   0.236  0.00  0.00    +0.020 A 
ATOM     22  C   UNL     1       2.864  -0.176   0.173  0.00  0.00    +0.047 A 
ATOM     23  C   UNL     1       1.633  -0.808   0.194  0.00  0.00    +0.008 A 
ATOM     24  C   UNL     1       0.474  -0.060   0.277  0.00  0.00    +0.008 A 
ATOM     25 CL   UNL     1       4.320  -1.115   0.067  0.00  0.00    -0.083 Cl
ENDBRANCH  18  23
ENDBRANCH  17  18
ENDBRANCH  11  17
ENDBRANCH   1  14
BRANCH   9  26
ATOM     26  N   UNL     1      -3.687  -9.087  -2.336  0.00  0.00    -0.328 N 
ATOM     27  H   UNL     1      -4.638  -9.269  -2.288  0.00  0.00    +0.145 HD
ATOM     28  H   UNL     1      -3.234  -9.098  -3.194  0.00  0.00    +0.145 HD
ENDBRANCH   9  26
BRANCH  10  29
ATOM     29  C   UNL     1      -1.027  -8.587  -2.566  0.00  0.00    +0.101 C 
ATOM     30  N   UNL     1      -0.528  -8.607  -3.587  0.00  0.00    -0.191 NA
ENDBRANCH  10  29
BRANCH   5  31
ATOM     31  O   UNL     1      -3.545  -9.836   4.618  0.00  0.00    -0.422 OA
BRANCH  31  32
ATOM     32  C   UNL     1      -4.004 -11.102   4.689  0.00  0.00    +0.351 C 
ATOM     33  O   UNL     1      -3.741 -11.895   3.805  0.00  0.00    -0.244 OA
BRANCH  32  34
ATOM     34  C   UNL     1      -4.818 -11.523   5.831  0.00  0.00    +0.097 A 
ATOM     35  C   UNL     1      -5.377 -12.765   6.097  0.00  0.00    +0.022 A 
ATOM     36  C   UNL     1      -6.099 -12.857   7.262  0.00  0.00    +0.008 A 
ATOM     37  C   UNL     1      -6.215 -11.762   8.055  0.00  0.00    +0.046 A 
ATOM     38  S   UNL     1      -5.343 -10.575   7.247  0.00  0.00    -0.090 S 
ENDBRANCH  32  34
ENDBRANCH  31  32
ENDBRANCH   5  31
TORSDOF 9
