REMARK  Name = ZINC63709771
REMARK  9 active torsions:
REMARK  status: ('A' for Active; 'I' for Inactive)
REMARK    1  A    between atoms: N_12  and  C_13
REMARK    2  A    between atoms: C_13  and  C_14
REMARK    3  A    between atoms: C_14  and  C_15
REMARK    4  A    between atoms: C_15  and  C_16
REMARK    5  A    between atoms: C_16  and  C_17
REMARK    6  A    between atoms: C_17  and  C_18
REMARK    7  A    between atoms: N_20  and  C_21
REMARK    8  A    between atoms: C_21  and  C_22
REMARK    9  A    between atoms: C_22  and  C_23
REMARK                            x       y       z     vdW  Elec       q    Type
REMARK                         _______ _______ _______ _____ _____    ______ ____
ROOT
ATOM      1  C   UNL     1      -2.429  -7.113  -0.009  0.00  0.00    +0.009 C 
ENDROOT
BRANCH   1   2
ATOM      2  C   UNL     1      -1.026  -6.504  -0.020  0.00  0.00    +0.002 C 
BRANCH   2   3
ATOM      3  C   UNL     1      -1.132  -4.978  -0.011  0.00  0.00    +0.019 C 
BRANCH   3   4
ATOM      4  C   UNL     1       0.272  -4.369  -0.022  0.00  0.00    +0.103 C 
BRANCH   4  16
ATOM      5  C   UNL     1      -0.017   1.374   0.010  0.00  0.00    +0.001 A 
ATOM      6  C   UNL     1       1.169   2.094   0.002  0.00  0.00    +0.002 A 
ATOM      7  C   UNL     1       2.387   1.445  -0.013  0.00  0.00    +0.026 A 
ATOM      8  C   UNL     1       2.427   0.058  -0.021  0.00  0.00    +0.052 A 
ATOM      9  C   UNL     1       1.225  -0.674  -0.013  0.00  0.00    +0.038 A 
ATOM     10  C   UNL     1       0.002  -0.004   0.002  0.00  0.00    +0.013 A 
ATOM     11  C   UNL     1       1.307  -2.141  -0.021  0.00  0.00    +0.131 A 
ATOM     12  N   UNL     1       2.505  -2.706  -0.036  0.00  0.00    -0.207 NA
ATOM     13  C   UNL     1       3.622  -1.982  -0.043  0.00  0.00    +0.179 A 
ATOM     14  S   UNL     1       5.127  -2.799  -0.063  0.00  0.00    -0.011 S 
ATOM     15  N   UNL     1       3.622  -0.637  -0.036  0.00  0.00    -0.333 N 
ATOM     16  N   UNL     1       0.171  -2.908  -0.014  0.00  0.00    -0.328 N 
ATOM     17  H   UNL     1      -0.701  -2.482  -0.003  0.00  0.00    +0.147 HD
ATOM     18  H   UNL     1       4.463  -0.153  -0.043  0.00  0.00    +0.168 HD
ENDBRANCH   4  16
ENDBRANCH   3   4
ENDBRANCH   2   3
ENDBRANCH   1   2
BRANCH   1  19
ATOM     19  C   UNL     1      -2.323  -8.639  -0.017  0.00  0.00    +0.096 C 
BRANCH  19  20
ATOM     20  C   UNL     1      -3.706  -9.239  -0.006  0.00  0.00    +0.213 C 
ATOM     21  O   UNL     1      -4.680  -8.516   0.007  0.00  0.00    -0.276 OA
ATOM     22  N   UNL     1      -3.860 -10.578  -0.012  0.00  0.00    -0.315 N 
ATOM     23  H   UNL     1      -3.081 -11.155  -0.022  0.00  0.00    +0.149 HD
BRANCH  22  24
ATOM     24  C   UNL     1      -5.204 -11.161  -0.001  0.00  0.00    +0.108 C 
BRANCH  24  25
ATOM     25  C   UNL     1      -5.098 -12.687  -0.010  0.00  0.00    +0.052 C 
BRANCH  25  26
ATOM     26  C   UNL     1      -6.480 -13.286   0.001  0.00  0.00    -0.040 C 
ATOM     27  C   UNL     1      -7.198 -13.696  -1.070  0.00  0.00    -0.001 A 
ATOM     28  C   UNL     1      -6.917 -13.704  -2.510  0.00  0.00    +0.010 A 
ATOM     29  C   UNL     1      -7.853 -14.188  -3.358  0.00  0.00    +0.001 A 
ATOM     30  C   UNL     1      -9.081 -14.680  -2.897  0.00  0.00    +0.002 A 
ATOM     31  C   UNL     1      -9.412 -14.705  -1.589  0.00  0.00    +0.026 A 
ATOM     32  C   UNL     1      -8.502 -14.221  -0.608  0.00  0.00    +0.043 A 
ATOM     33  N   UNL     1      -8.589 -14.139   0.697  0.00  0.00    -0.380 N 
ATOM     34  C   UNL     1      -7.344 -13.558   1.213  0.00  0.00    +0.144 C 
ATOM     35  H   UNL     1      -9.347 -14.420   1.233  0.00  0.00    +0.160 HD
ENDBRANCH  25  26
ENDBRANCH  24  25
ENDBRANCH  22  24
ENDBRANCH  19  20
ENDBRANCH   1  19
TORSDOF 9
