REMARK  Name = ZINC06902938
REMARK  9 active torsions:
REMARK  status: ('A' for Active; 'I' for Inactive)
REMARK    1  A    between atoms: C_1  and  C_2
REMARK    2  A    between atoms: C_4  and  C_27
REMARK    3  A    between atoms: C_5  and  C_26
REMARK    4  A    between atoms: C_6  and  S_9
REMARK    5  A    between atoms: C_7  and  C_8
REMARK    6  A    between atoms: S_9  and  N_12
REMARK    7  A    between atoms: N_12  and  C_13
REMARK    8  A    between atoms: C_18  and  O_19
REMARK    9  A    between atoms: O_19  and  C_20
REMARK                            x       y       z     vdW  Elec       q    Type
REMARK                         _______ _______ _______ _____ _____    ______ ____
ROOT
ATOM      1  N   UNL     1      -0.170   8.000   0.060  0.00  0.00    -0.213 N 
ATOM      2  H   UNL     1       0.463   7.440  -0.417  0.00  0.00    +0.174 HD
ENDROOT
BRANCH   1   3
ATOM      3  C   UNL     1      -1.544   7.774  -0.075  0.00  0.00    +0.090 A 
ATOM      4  C   UNL     1      -2.349   8.728  -0.682  0.00  0.00    +0.028 A 
ATOM      5  C   UNL     1      -3.707   8.505  -0.811  0.00  0.00    +0.002 A 
ATOM      6  C   UNL     1      -4.266   7.332  -0.340  0.00  0.00    +0.004 A 
ATOM      7  C   UNL     1      -3.470   6.375   0.262  0.00  0.00    +0.048 A 
ATOM      8  C   UNL     1      -2.108   6.590   0.395  0.00  0.00    +0.151 A 
BRANCH   8   9
ATOM      9  O   UNL     1      -1.324   5.650   0.986  0.00  0.00    -0.454 OA
BRANCH   9  10
ATOM     10  C   UNL     1      -0.615   4.813   0.184  0.00  0.00    +0.129 A 
ATOM     11  C   UNL     1       0.289   3.918   0.738  0.00  0.00    +0.046 A 
ATOM     12  C   UNL     1       1.009   3.069  -0.080  0.00  0.00    +0.004 A 
ATOM     13  C   UNL     1       0.829   3.111  -1.450  0.00  0.00    +0.000 A 
ATOM     14  C   UNL     1      -0.066   4.006  -2.006  0.00  0.00    +0.004 A 
ATOM     15  C   UNL     1      -0.793   4.853  -1.192  0.00  0.00    +0.046 A 
ENDBRANCH   9  10
ENDBRANCH   8   9
ENDBRANCH   1   3
BRANCH   1  16
ATOM     16  S   UNL     1       0.377   9.222   1.035  0.00  0.00    +0.073 S 
ATOM     17  O   UNL     1       1.795   9.216   0.937  0.00  0.00    -0.150 OA
ATOM     18  O   UNL     1      -0.404  10.368   0.726  0.00  0.00    -0.150 OA
BRANCH  16  24
ATOM     19  C   UNL     1       1.662   7.137   5.653  0.00  0.00    +0.044 C 
ATOM     20  C   UNL     1       0.627   7.812   4.789  0.00  0.00    -0.045 A 
ATOM     21  C   UNL     1      -0.629   8.083   5.299  0.00  0.00    +0.007 A 
ATOM     22  C   UNL     1      -1.577   8.702   4.507  0.00  0.00    -0.045 A 
ATOM     23  C   UNL     1      -1.270   9.050   3.205  0.00  0.00    -0.021 A 
ATOM     24  C   UNL     1      -0.014   8.779   2.695  0.00  0.00    +0.115 A 
ATOM     25  C   UNL     1       0.933   8.155   3.485  0.00  0.00    -0.021 A 
ATOM     26  C   UNL     1       2.300   7.853   2.927  0.00  0.00    +0.046 C 
ATOM     27  C   UNL     1      -2.304   9.725   2.341  0.00  0.00    +0.046 C 
ATOM     28  C   UNL     1      -2.946   8.997   5.063  0.00  0.00    +0.044 C 
ENDBRANCH  16  24
ENDBRANCH   1  16
TORSDOF 5
