REMARK  Name = ZINC07060862
REMARK  8 active torsions:
REMARK  status: ('A' for Active; 'I' for Inactive)
REMARK    1  A    between atoms: C_1  and  C_2
REMARK    2  A    between atoms: C_5  and  N_9
REMARK    3  A    between atoms: C_6  and  C_8
REMARK    4  A    between atoms: C_10  and  C_12
REMARK    5  A    between atoms: C_12  and  C_14
REMARK    6  A    between atoms: C_12  and  S_15
REMARK    7  A    between atoms: S_15  and  C_16
REMARK    8  A    between atoms: C_21  and  C_26
REMARK                            x       y       z     vdW  Elec       q    Type
REMARK                         _______ _______ _______ _____ _____    ______ ____
ROOT
ATOM      1  C   UNL     1      -0.134  -6.343  -1.187  0.00  0.00    +0.137 C 
ATOM      2  C   UNL     1       1.263  -6.941  -1.007  0.00  0.00    +0.029 C 
ENDROOT
BRANCH   1   4
ATOM      3  N   UNL     1       0.059  -4.170  -0.021  0.00  0.00    -0.284 N 
ATOM      4  C   UNL     1      -0.040  -4.839  -1.187  0.00  0.00    +0.230 C 
ATOM      5  O   UNL     1      -0.054  -4.230  -2.236  0.00  0.00    -0.274 OA
ATOM      6  H   UNL     1       0.135  -4.658   0.814  0.00  0.00    +0.155 HD
BRANCH   3  11
ATOM      7  C   UNL     1       0.025   1.503   0.005  0.00  0.00    +0.044 C 
ATOM      8  C   UNL     1       0.034  -0.004  -0.002  0.00  0.00    -0.050 A 
ATOM      9  C   UNL     1       0.632  -0.685  -1.046  0.00  0.00    +0.005 A 
ATOM     10  C   UNL     1       0.642  -2.066  -1.055  0.00  0.00    +0.024 A 
ATOM     11  C   UNL     1       0.051  -2.771  -0.014  0.00  0.00    +0.036 A 
ATOM     12  C   UNL     1      -0.548  -2.083   1.033  0.00  0.00    -0.029 A 
ATOM     13  C   UNL     1      -0.550  -0.702   1.039  0.00  0.00    +0.008 A 
ATOM     14  C   UNL     1      -1.190  -2.843   2.165  0.00  0.00    +0.045 C 
ENDBRANCH   3  11
ENDBRANCH   1   4
BRANCH   1  15
ATOM     15  S   UNL     1      -0.833  -6.905  -2.764  0.00  0.00    -0.075 S 
BRANCH  15  16
ATOM     16  C   UNL     1      -1.015  -8.645  -2.553  0.00  0.00    +0.168 A 
ATOM     17  N   UNL     1      -1.506  -9.503  -3.496  0.00  0.00    -0.333 N 
ATOM     18  H   UNL     1      -1.812  -9.266  -4.386  0.00  0.00    +0.168 HD
ATOM     19  C   UNL     1      -1.486 -10.774  -2.945  0.00  0.00    +0.067 A 
ATOM     20  C   UNL     1      -1.853 -12.028  -3.408  0.00  0.00    +0.031 A 
ATOM     21  C   UNL     1      -1.707 -13.131  -2.593  0.00  0.00    -0.048 A 
ATOM     22  C   UNL     1      -1.194 -12.994  -1.311  0.00  0.00    +0.005 A 
ATOM     23  C   UNL     1      -0.825 -11.756  -0.835  0.00  0.00    +0.030 A 
ATOM     24  C   UNL     1      -0.967 -10.629  -1.648  0.00  0.00    +0.090 A 
ATOM     25  N   UNL     1      -0.693  -9.310  -1.471  0.00  0.00    -0.222 NA
ATOM     26  C   UNL     1      -2.107 -14.493  -3.098  0.00  0.00    +0.044 C 
ENDBRANCH  15  16
ENDBRANCH   1  15
TORSDOF 4
