REMARK  Name = ZINC51649094
REMARK  5 active torsions:
REMARK  status: ('A' for Active; 'I' for Inactive)
REMARK    1  A    between atoms: C_1  and  C_2
REMARK    2  A    between atoms: C_6  and  C_8
REMARK    3  A    between atoms: N_16  and  C_17
REMARK    4  A    between atoms: C_20  and  N_24
REMARK    5  A    between atoms: C_22  and  C_23
REMARK                            x       y       z     vdW  Elec       q    Type
REMARK                         _______ _______ _______ _____ _____    ______ ____
ROOT
ATOM      1  C   UNL     1       0.047  -2.846   2.534  0.00  0.00    +0.108 C 
ATOM      2  C   UNL     1       1.480  -3.318   2.863  0.00  0.00    +0.029 C 
ATOM      3  C   UNL     1       1.251  -4.732   3.458  0.00  0.00    +0.021 C 
ATOM      4  C   UNL     1       0.057  -5.237   2.611  0.00  0.00    +0.110 C 
ATOM      5  N   UNL     1      -0.792  -4.046   2.406  0.00  0.00    -0.278 N 
ATOM      6  C   UNL     1      -2.115  -4.055   2.146  0.00  0.00    +0.307 C 
ATOM      7  O   UNL     1      -2.712  -3.007   1.995  0.00  0.00    -0.252 OA
ATOM      8  N   UNL     1      -2.775  -5.226   2.052  0.00  0.00    -0.269 N 
ATOM      9  H   UNL     1      -2.286  -6.063   2.088  0.00  0.00    +0.156 HD
ENDROOT
BRANCH   1  15
ATOM     10  C   UNL     1       0.002   1.516   0.081  0.00  0.00    +0.044 C 
ATOM     11  C   UNL     1       0.023   0.009   0.064  0.00  0.00    -0.050 A 
ATOM     12  C   UNL     1       0.041  -0.669  -1.141  0.00  0.00    +0.003 A 
ATOM     13  C   UNL     1       0.060  -2.051  -1.156  0.00  0.00    +0.001 A 
ATOM     14  C   UNL     1       0.062  -2.756   0.033  0.00  0.00    +0.005 A 
ATOM     15  C   UNL     1       0.045  -2.078   1.238  0.00  0.00    -0.027 A 
ATOM     16  C   UNL     1       0.030  -0.696   1.253  0.00  0.00    +0.008 A 
ENDBRANCH   1  15
BRANCH   8  17
ATOM     17  C   UNL     1      -4.169  -5.235   1.901  0.00  0.00    +0.038 A 
ATOM     18  C   UNL     1      -4.922  -4.157   2.348  0.00  0.00    +0.025 A 
ATOM     19  C   UNL     1      -6.295  -4.166   2.199  0.00  0.00    +0.025 A 
ATOM     20  C   UNL     1      -6.922  -5.252   1.603  0.00  0.00    +0.030 A 
ATOM     21  C   UNL     1      -6.168  -6.330   1.157  0.00  0.00    +0.028 A 
ATOM     22  C   UNL     1      -4.795  -6.319   1.300  0.00  0.00    -0.027 A 
ATOM     23  C   UNL     1      -3.977  -7.485   0.810  0.00  0.00    +0.046 C 
BRANCH  20  24
ATOM     24  N   UNL     1      -8.313  -5.261   1.453  0.00  0.00    -0.328 N 
ATOM     25  C   UNL     1      -9.086  -4.071   1.810  0.00  0.00    +0.116 C 
ATOM     26  C   UNL     1      -9.725  -3.479   0.548  0.00  0.00    +0.088 C 
ATOM     27  S   UNL     1     -10.752  -4.757  -0.238  0.00  0.00    -0.158 S 
ATOM     28  C   UNL     1      -9.603  -6.153  -0.425  0.00  0.00    +0.088 C 
ATOM     29  C   UNL     1      -8.977  -6.458   0.935  0.00  0.00    +0.116 C 
ENDBRANCH  20  24
ENDBRANCH   8  17
TORSDOF 3
