REMARK  Name = ZINC09972927
REMARK  13 active torsions:
REMARK  status: ('A' for Active; 'I' for Inactive)
REMARK    1  A    between atoms: C_1  and  O_2
REMARK    2  A    between atoms: O_2  and  C_3
REMARK    3  A    between atoms: C_5  and  C_23
REMARK    4  A    between atoms: C_7  and  C_20
REMARK    5  A    between atoms: C_8  and  O_9
REMARK    6  A    between atoms: O_9  and  C_10
REMARK    7  A    between atoms: C_10  and  C_11
REMARK    8  A    between atoms: C_15  and  N_17
REMARK    9  A    between atoms: C_20  and  C_21
REMARK   10  A    between atoms: C_24  and  C_25
REMARK   11  A    between atoms: C_24  and  C_27
REMARK   12  A    between atoms: N_29  and  C_30
REMARK   13  A    between atoms: C_33  and  O_36
REMARK                            x       y       z     vdW  Elec       q    Type
REMARK                         _______ _______ _______ _____ _____    ______ ____
ROOT
ATOM      1  C   UNL     1      -2.012   8.436  -0.031  0.00  0.00    +0.162 A 
ATOM      2  C   UNL     1      -2.118   9.751  -0.433  0.00  0.00    +0.057 A 
ATOM      3  C   UNL     1      -1.028  10.380  -1.054  0.00  0.00    -0.020 A 
ATOM      4  C   UNL     1       0.163   9.668  -1.257  0.00  0.00    +0.015 A 
ATOM      5  C   UNL     1       0.259   8.358  -0.848  0.00  0.00    +0.002 A 
ATOM      6  C   UNL     1      -0.821   7.737  -0.233  0.00  0.00    +0.166 A 
ENDROOT
BRANCH   1   8
ATOM      7  C   UNL     1      -4.288   8.561   0.649  0.00  0.00    +0.277 C 
ATOM      8  O   UNL     1      -3.068   7.821   0.566  0.00  0.00    -0.491 OA
ENDBRANCH   1   8
BRANCH   3   9
ATOM      9  C   UNL     1      -1.134  11.775  -1.487  0.00  0.00    +0.032 C 
ATOM     10  C   UNL     1      -0.128  12.668  -1.187  0.00  0.00    +0.114 C 
BRANCH  10  11
ATOM     11  C   UNL     1       0.934  12.289  -0.243  0.00  0.00    +0.259 C 
ATOM     12  O   UNL     1       0.865  11.234   0.358  0.00  0.00    -0.269 OA
ATOM     13  N   UNL     1       1.983  13.111  -0.044  0.00  0.00    -0.281 N 
ATOM     14  H   UNL     1       1.990  13.994  -0.445  0.00  0.00    +0.155 HD
BRANCH  13  15
ATOM     15  C   UNL     1       3.063  12.690   0.742  0.00  0.00    +0.034 A 
ATOM     16  C   UNL     1       3.398  11.344   0.798  0.00  0.00    +0.027 A 
ATOM     17  C   UNL     1       4.467  10.930   1.568  0.00  0.00    +0.047 A 
ATOM     18  C   UNL     1       5.198  11.858   2.296  0.00  0.00    +0.117 A 
ATOM     19  C   UNL     1       4.861  13.202   2.244  0.00  0.00    +0.047 A 
ATOM     20  C   UNL     1       3.796  13.618   1.470  0.00  0.00    +0.027 A 
BRANCH  18  21
ATOM     21  O   UNL     1       6.247  11.449   3.059  0.00  0.00    -0.507 OA
ATOM     22  H   UNL     1       6.007  11.220   3.967  0.00  0.00    +0.292 HD
ENDBRANCH  18  21
ENDBRANCH  13  15
ENDBRANCH  10  11
BRANCH  10  23
ATOM     23  C   UNL     1      -0.117  13.964  -1.795  0.00  0.00    +0.104 C 
ATOM     24  N   UNL     1      -0.108  14.993  -2.277  0.00  0.00    -0.191 NA
ENDBRANCH  10  23
ENDBRANCH   3   9
BRANCH   6  25
ATOM     25  O   UNL     1      -0.720   6.444   0.168  0.00  0.00    -0.483 OA
BRANCH  25  26
ATOM     26  C   UNL     1      -0.246   6.212   1.496  0.00  0.00    +0.264 C 
BRANCH  26  27
ATOM     27  C   UNL     1      -0.200   4.729   1.761  0.00  0.00    -0.008 A 
ATOM     28  C   UNL     1       0.946   4.011   1.474  0.00  0.00    +0.007 A 
ATOM     29  C   UNL     1       0.988   2.651   1.718  0.00  0.00    +0.003 A 
ATOM     30  C   UNL     1      -0.116   2.009   2.248  0.00  0.00    +0.033 A 
ATOM     31  C   UNL     1      -1.263   2.726   2.529  0.00  0.00    +0.127 A 
ATOM     32  C   UNL     1      -1.304   4.087   2.290  0.00  0.00    +0.039 A 
BRANCH  31  33
ATOM     33  N   UNL     1      -2.447   2.037   3.090  0.00  0.00    +0.056 N 
ATOM     34  O   UNL     1      -2.410   0.839   3.304  0.00  0.00    -0.126 OA
ATOM     35  O   UNL     1      -3.459   2.669   3.338  0.00  0.00    -0.126 OA
ENDBRANCH  31  33
ENDBRANCH  26  27
ENDBRANCH  25  26
ENDBRANCH   6  25
BRANCH   5  36
ATOM     36  C   UNL     1       1.539   7.594  -1.068  0.00  0.00    +0.065 C 
BRANCH  36  37
ATOM     37  C   UNL     1       1.443   6.810  -2.351  0.00  0.00    -0.030 C 
ATOM     38  C   UNL     1       2.353   6.962  -3.281  0.00  0.00    +0.004 C 
ENDBRANCH  36  37
ENDBRANCH   5  36
TORSDOF 12
