REMARK  Name = ZINC66185851
REMARK  6 active torsions:
REMARK  status: ('A' for Active; 'I' for Inactive)
REMARK    1  A    between atoms: C_1  and  C_2
REMARK    2  A    between atoms: C_5  and  N_8
REMARK    3  A    between atoms: C_11  and  N_14
REMARK    4  A    between atoms: N_14  and  C_15
REMARK    5  A    between atoms: N_18  and  C_19
REMARK    6  A    between atoms: C_19  and  C_20
REMARK                            x       y       z     vdW  Elec       q    Type
REMARK                         _______ _______ _______ _____ _____    ______ ____
ROOT
ATOM      1  N   UNL     1      -4.172   0.124   7.383  0.00  0.00    -0.286 N 
ATOM      2  C   UNL     1      -4.254   1.581   7.518  0.00  0.00    +0.134 C 
ATOM      3  C   UNL     1      -4.708  -0.671   8.330  0.00  0.00    +0.303 C 
ATOM      4  O   UNL     1      -4.640  -1.880   8.218  0.00  0.00    -0.253 OA
ATOM      5  N   UNL     1      -5.318  -0.127   9.401  0.00  0.00    -0.294 N 
ATOM      6  H   UNL     1      -5.372   0.837   9.491  0.00  0.00    +0.151 HD
ENDROOT
BRANCH   1  10
ATOM      7  N   UNL     1      -2.097  -0.073   3.720  0.00  0.00    +0.382 N 
ATOM      8  C   UNL     1      -3.477  -0.575   3.724  0.00  0.00    -0.077 C 
ATOM      9  C   UNL     1      -4.221  -0.018   4.940  0.00  0.00    +0.004 C 
ATOM     10  C   UNL     1      -3.509  -0.468   6.218  0.00  0.00    +0.074 C 
ATOM     11  C   UNL     1      -2.051  -0.003   6.169  0.00  0.00    +0.004 C 
ATOM     12  C   UNL     1      -1.386  -0.560   4.908  0.00  0.00    -0.077 C 
ATOM     13  H   UNL     1      -2.108   0.936   3.726  0.00  0.00    -0.081 HD
BRANCH   7  18
ATOM     14  C   UNL     1      -0.019   1.526   0.010  0.00  0.00    +0.007 C 
ATOM     15  C   UNL     1       0.002  -0.004   0.002  0.00  0.00    -0.014 C 
ATOM     16  C   UNL     1      -1.433  -0.534   0.013  0.00  0.00    +0.002 C 
ATOM     17  C   UNL     1      -2.149  -0.040   1.272  0.00  0.00    -0.015 C 
ATOM     18  C   UNL     1      -1.409  -0.547   2.511  0.00  0.00    -0.069 C 
ATOM     19  C   UNL     1       0.026  -0.018   2.500  0.00  0.00    -0.015 C 
ATOM     20  C   UNL     1       0.742  -0.511   1.242  0.00  0.00    +0.002 C 
ENDBRANCH   7  18
ENDBRANCH   1  10
BRANCH   5  21
ATOM     21  C   UNL     1      -5.900  -0.992  10.431  0.00  0.00    +0.161 C 
BRANCH  21  22
ATOM     22  C   UNL     1      -6.517  -0.141  11.511  0.00  0.00    +0.066 A 
ATOM     23  C   UNL     1      -5.746   0.264  12.613  0.00  0.00    +0.005 A 
ATOM     24  C   UNL     1      -4.397  -0.097  12.752  0.00  0.00    +0.010 A 
ATOM     25  C   UNL     1      -3.698   0.325  13.842  0.00  0.00    +0.001 A 
ATOM     26  C   UNL     1      -4.301   1.111  14.823  0.00  0.00    +0.001 A 
ATOM     27  C   UNL     1      -5.608   1.480  14.722  0.00  0.00    +0.008 A 
ATOM     28  C   UNL     1      -6.359   1.064  13.612  0.00  0.00    -0.015 A 
ATOM     29  C   UNL     1      -7.712   1.413  13.449  0.00  0.00    +0.028 A 
ATOM     30  C   UNL     1      -8.371   0.969  12.343  0.00  0.00    +0.111 A 
ATOM     31  N   UNL     1      -7.773   0.227  11.422  0.00  0.00    -0.258 NA
ENDBRANCH  21  22
ENDBRANCH   5  21
TORSDOF 4
