REMARK  Name = ZINC18068119
REMARK  7 active torsions:
REMARK  status: ('A' for Active; 'I' for Inactive)
REMARK    1  A    between atoms: C_1  and  C_2
REMARK    2  A    between atoms: C_5  and  N_8
REMARK    3  A    between atoms: C_13  and  C_28
REMARK    4  A    between atoms: N_15  and  C_21
REMARK    5  A    between atoms: C_31  and  O_36
REMARK    6  A    between atoms: C_32  and  O_34
REMARK    7  A    between atoms: O_34  and  C_35
REMARK                            x       y       z     vdW  Elec       q    Type
REMARK                         _______ _______ _______ _____ _____    ______ ____
ROOT
ATOM      1  N   UNL     1      -0.318  -4.518  -0.221  0.00  0.00    -0.208 N 
ATOM      2  C   UNL     1      -0.292  -5.309   0.858  0.00  0.00    +0.235 C 
ATOM      3  O   UNL     1      -0.518  -4.953   1.994  0.00  0.00    -0.274 OA
ATOM      4  C   UNL     1       0.064  -6.717   0.438  0.00  0.00    +0.145 C 
ATOM      5  C   UNL     1       1.463  -7.077   0.987  0.00  0.00    +0.157 C 
ATOM      6  N   UNL     1       2.144  -7.644  -0.202  0.00  0.00    -0.244 N 
ATOM      7  O   UNL     1       1.702  -6.831  -1.291  0.00  0.00    -0.257 OA
ATOM      8  C   UNL     1       0.278  -6.593  -1.095  0.00  0.00    +0.249 C 
ATOM      9  C   UNL     1      -0.028  -5.136  -1.371  0.00  0.00    +0.259 C 
ATOM     10  O   UNL     1      -0.009  -4.612  -2.464  0.00  0.00    -0.272 OA
ENDROOT
BRANCH   1  15
ATOM     11  C   UNL     1      -1.581   1.009   0.060  0.00  0.00    +0.044 C 
ATOM     12  C   UNL     1      -1.245  -0.459  -0.015  0.00  0.00    -0.050 A 
ATOM     13  C   UNL     1      -2.215  -1.403   0.266  0.00  0.00    +0.005 A 
ATOM     14  C   UNL     1      -1.911  -2.749   0.199  0.00  0.00    +0.024 A 
ATOM     15  C   UNL     1      -0.630  -3.153  -0.152  0.00  0.00    +0.044 A 
ATOM     16  C   UNL     1       0.342  -2.202  -0.434  0.00  0.00    +0.024 A 
ATOM     17  C   UNL     1       0.030  -0.858  -0.370  0.00  0.00    +0.005 A 
ENDBRANCH   1  15
BRANCH   6  18
ATOM     18  C   UNL     1       3.022  -8.730  -0.248  0.00  0.00    +0.065 A 
ATOM     19  C   UNL     1       2.759  -9.803  -1.090  0.00  0.00    +0.029 A 
ATOM     20  C   UNL     1       3.629 -10.875  -1.133  0.00  0.00    +0.022 A 
ATOM     21  C   UNL     1       4.762 -10.881  -0.339  0.00  0.00    +0.041 A 
ATOM     22  C   UNL     1       5.027  -9.813   0.501  0.00  0.00    +0.022 A 
ATOM     23  C   UNL     1       4.163  -8.736   0.544  0.00  0.00    +0.029 A 
ATOM     24 CL   UNL     1       5.853 -12.230  -0.395  0.00  0.00    -0.084 Cl
ENDBRANCH   6  18
BRANCH   5  25
ATOM     25  C   UNL     1       1.357  -8.103   2.086  0.00  0.00    -0.018 A 
ATOM     26  C   UNL     1       1.032  -9.411   1.780  0.00  0.00    +0.009 A 
ATOM     27  C   UNL     1       0.934 -10.355   2.785  0.00  0.00    +0.049 A 
ATOM     28  C   UNL     1       1.163  -9.992   4.102  0.00  0.00    +0.158 A 
ATOM     29  C   UNL     1       1.490  -8.675   4.410  0.00  0.00    +0.162 A 
ATOM     30  C   UNL     1       1.592  -7.734   3.398  0.00  0.00    +0.055 A 
BRANCH  29  31
ATOM     31  O   UNL     1       1.715  -8.313   5.702  0.00  0.00    -0.491 OA
ATOM     32  C   UNL     1       2.047  -6.944   5.944  0.00  0.00    +0.277 C 
ENDBRANCH  29  31
BRANCH  28  33
ATOM     33  O   UNL     1       1.066 -10.919   5.092  0.00  0.00    -0.503 OA
ATOM     34  H   UNL     1       1.895 -11.379   5.283  0.00  0.00    +0.292 HD
ENDBRANCH  28  33
ENDBRANCH   5  25
TORSDOF 5
