REMARK  Name = ZINC06078306
REMARK  18 active torsions:
REMARK  status: ('A' for Active; 'I' for Inactive)
REMARK    1  A    between atoms: C_1  and  C_2
REMARK    2  A    between atoms: C_2  and  N_71
REMARK    3  A    between atoms: C_3  and  C_4
REMARK    4  A    between atoms: C_3  and  N_71
REMARK    5  A    between atoms: C_5  and  C_6
REMARK    6  A    between atoms: C_5  and  N_71
REMARK    7  A    between atoms: C_6  and  N_7
REMARK    8  A    between atoms: N_7  and  C_8
REMARK    9  A    between atoms: N_7  and  C_25
REMARK   10  A    between atoms: C_8  and  C_9
REMARK   11  A    between atoms: C_13  and  O_23
REMARK   12  A    between atoms: C_14  and  O_21
REMARK   13  A    between atoms: O_21  and  C_22
REMARK   14  A    between atoms: O_23  and  C_24
REMARK   15  A    between atoms: C_25  and  N_27
REMARK   16  A    between atoms: N_27  and  C_28
REMARK   17  A    between atoms: C_31  and  C_35
REMARK   18  A    between atoms: C_33  and  C_34
REMARK                            x       y       z     vdW  Elec       q    Type
REMARK                         _______ _______ _______ _____ _____    ______ ____
ROOT
ATOM      1  N   UNL     1      -6.146   4.568  -1.561  0.00  0.00    -0.310 N 
ENDROOT
BRANCH   1   2
ATOM      2  C   UNL     1      -6.705   3.644  -2.368  0.00  0.00    +0.137 C 
ATOM      3  S   UNL     1      -7.959   2.639  -1.779  0.00  0.00    -0.018 S 
BRANCH   2   4
ATOM      4  N   UNL     1      -6.277   3.512  -3.639  0.00  0.00    -0.297 N 
ATOM      5  H   UNL     1      -5.517   4.029  -3.951  0.00  0.00    +0.154 HD
BRANCH   4   6
ATOM      6  C   UNL     1      -6.927   2.631  -4.508  0.00  0.00    +0.036 A 
ATOM      7  C   UNL     1      -7.295   1.365  -4.069  0.00  0.00    +0.024 A 
ATOM      8  C   UNL     1      -7.937   0.497  -4.930  0.00  0.00    +0.005 A 
ATOM      9  C   UNL     1      -8.214   0.886  -6.228  0.00  0.00    -0.050 A 
ATOM     10  C   UNL     1      -7.849   2.145  -6.668  0.00  0.00    +0.008 A 
ATOM     11  C   UNL     1      -7.212   3.020  -5.810  0.00  0.00    -0.029 A 
ATOM     12  C   UNL     1      -6.820   4.394  -6.289  0.00  0.00    +0.045 C 
ATOM     13  C   UNL     1      -8.915  -0.064  -7.164  0.00  0.00    +0.044 C 
ENDBRANCH   4   6
ENDBRANCH   2   4
ENDBRANCH   1   2
BRANCH   1  14
ATOM     14  C   UNL     1      -5.151   5.502  -2.095  0.00  0.00    +0.088 C 
BRANCH  14  15
ATOM     15  C   UNL     1      -3.776   4.831  -2.107  0.00  0.00    -0.060 C 
BRANCH  15  16
ATOM     16  N   UNL     1      -2.821   5.721  -2.801  0.00  0.00    +0.380 N 
ATOM     17  H   UNL     1      -3.286   6.136  -3.617  0.00  0.00    -0.082 HD
BRANCH  16  19
ATOM     18  C   UNL     1      -1.572   6.235  -0.731  0.00  0.00    -0.017 C 
ATOM     19  C   UNL     1      -2.388   6.803  -1.893  0.00  0.00    -0.082 C 
ENDBRANCH  16  19
BRANCH  16  20
ATOM     20  C   UNL     1      -1.649   4.945  -3.258  0.00  0.00    -0.082 C 
ATOM     21  C   UNL     1      -0.737   5.862  -4.075  0.00  0.00    -0.017 C 
ENDBRANCH  16  20
ENDBRANCH  15  16
ENDBRANCH  14  15
ENDBRANCH   1  14
BRANCH   1  22
ATOM     22  C   UNL     1      -6.532   4.637  -0.149  0.00  0.00    +0.147 C 
BRANCH  22  23
ATOM     23  C   UNL     1      -5.548   3.854   0.680  0.00  0.00    +0.035 A 
ATOM     24  C   UNL     1      -5.804   2.556   0.986  0.00  0.00    +0.020 A 
ATOM     25  C   UNL     1      -4.832   1.824   1.798  0.00  0.00    +0.003 A 
ATOM     26  C   UNL     1      -5.053   0.489   2.159  0.00  0.00    +0.059 A 
ATOM     27  C   UNL     1      -4.118  -0.173   2.924  0.00  0.00    +0.162 A 
ATOM     28  C   UNL     1      -2.954   0.482   3.339  0.00  0.00    +0.163 A 
ATOM     29  C   UNL     1      -2.727   1.800   2.988  0.00  0.00    +0.075 A 
ATOM     30  C   UNL     1      -3.662   2.484   2.222  0.00  0.00    +0.053 A 
ATOM     31  N   UNL     1      -3.456   3.802   1.866  0.00  0.00    -0.322 N 
ATOM     32  H   UNL     1      -2.623   4.268   2.164  0.00  0.00    +0.169 HD
ATOM     33  C   UNL     1      -4.359   4.467   1.125  0.00  0.00    +0.254 A 
ATOM     34  O   UNL     1      -4.145   5.630   0.830  0.00  0.00    -0.268 OA
BRANCH  28  35
ATOM     35  O   UNL     1      -2.040  -0.182   4.093  0.00  0.00    -0.491 OA
ATOM     36  C   UNL     1      -0.873   0.544   4.485  0.00  0.00    +0.277 C 
ENDBRANCH  28  35
BRANCH  27  37
ATOM     37  O   UNL     1      -4.328  -1.470   3.277  0.00  0.00    -0.491 OA
ATOM     38  C   UNL     1      -5.537  -2.079   2.820  0.00  0.00    +0.277 C 
ENDBRANCH  27  37
ENDBRANCH  22  23
ENDBRANCH   1  22
TORSDOF 12
