REMARK  Name = ZINC09708235
REMARK  7 active torsions:
REMARK  status: ('A' for Active; 'I' for Inactive)
REMARK    1  A    between atoms: C_6  and  O_11
REMARK    2  A    between atoms: O_11  and  C_12
REMARK    3  A    between atoms: C_12  and  C_13
REMARK    4  A    between atoms: N_15  and  C_16
REMARK    5  A    between atoms: C_16  and  C_17
REMARK    6  A    between atoms: C_17  and  C_19
REMARK    7  A    between atoms: C_17  and  N_24
REMARK                            x       y       z     vdW  Elec       q    Type
REMARK                         _______ _______ _______ _____ _____    ______ ____
ROOT
ATOM      1  C   UNL     1       4.837   0.677   0.396  0.00  0.00    +0.251 C 
ATOM      2  O   UNL     1       4.784  -0.533   0.342  0.00  0.00    -0.272 OA
ATOM      3  N   UNL     1       6.021   1.307   0.261  0.00  0.00    -0.310 N 
ATOM      4  H   UNL     1       6.063   2.275   0.304  0.00  0.00    +0.149 HD
ENDROOT
BRANCH   1   5
ATOM      5  C   UNL     1       3.579   1.478   0.615  0.00  0.00    +0.324 C 
BRANCH   5   6
ATOM      6  O   UNL     1       2.464   0.591   0.728  0.00  0.00    -0.483 OA
BRANCH   6  12
ATOM      7  C   UNL     1      -3.588   2.135   1.665  0.00  0.00    +0.001 A 
ATOM      8  C   UNL     1      -3.480   0.748   1.579  0.00  0.00    +0.001 A 
ATOM      9  C   UNL     1      -2.275   0.150   1.377  0.00  0.00    +0.008 A 
ATOM     10  C   UNL     1      -1.119   0.940   1.247  0.00  0.00    -0.014 A 
ATOM     11  C   UNL     1       0.142   0.357   1.044  0.00  0.00    +0.054 A 
ATOM     12  C   UNL     1       1.244   1.156   0.929  0.00  0.00    +0.122 A 
ATOM     13  C   UNL     1       1.134   2.547   1.015  0.00  0.00    +0.046 A 
ATOM     14  C   UNL     1      -0.072   3.142   1.216  0.00  0.00    +0.012 A 
ATOM     15  C   UNL     1      -1.228   2.350   1.340  0.00  0.00    -0.018 A 
ATOM     16  C   UNL     1      -2.490   2.931   1.549  0.00  0.00    +0.008 A 
ENDBRANCH   6  12
ENDBRANCH   5   6
ENDBRANCH   1   5
BRANCH   3  17
ATOM     17  C   UNL     1       7.244   0.529   0.048  0.00  0.00    +0.132 C 
BRANCH  17  18
ATOM     18  C   UNL     1       8.418   1.480  -0.195  0.00  0.00    +0.127 C 
BRANCH  18  19
ATOM     19  N   UNL     1       8.527   2.419   0.930  0.00  0.00    -0.320 N 
ATOM     20  C   UNL     1       8.473   1.705   2.224  0.00  0.00    +0.110 C 
ATOM     21  C   UNL     1       9.353   2.591   3.136  0.00  0.00    +0.056 C 
ATOM     22  C   UNL     1      10.277   3.277   2.149  0.00  0.00    -0.025 A 
ATOM     23  C   UNL     1       9.735   3.125   0.878  0.00  0.00    +0.034 A 
ATOM     24  C   UNL     1      10.413   3.659  -0.216  0.00  0.00    +0.023 A 
ATOM     25  C   UNL     1      11.602   4.334  -0.033  0.00  0.00    +0.002 A 
ATOM     26  C   UNL     1      12.130   4.485   1.236  0.00  0.00    +0.000 A 
ATOM     27  C   UNL     1      11.464   3.954   2.327  0.00  0.00    +0.005 A 
ENDBRANCH  18  19
BRANCH  18  28
ATOM     28  C   UNL     1       9.693   0.685  -0.311  0.00  0.00    +0.012 A 
ATOM     29  C   UNL     1      10.419   0.394  -1.417  0.00  0.00    +0.013 A 
ATOM     30  C   UNL     1      11.572  -0.357  -1.284  0.00  0.00    +0.008 A 
ATOM     31  C   UNL     1      11.935  -0.790  -0.052  0.00  0.00    +0.045 A 
ATOM     32  S   UNL     1      10.633  -0.125   0.973  0.00  0.00    -0.100 S 
ENDBRANCH  18  28
ENDBRANCH  17  18
ENDBRANCH   3  17
TORSDOF 7
