REMARK  Name = ZINC16689119
REMARK  8 active torsions:
REMARK  status: ('A' for Active; 'I' for Inactive)
REMARK    1  A    between atoms: C_1  and  C_2
REMARK    2  A    between atoms: C_2  and  O_3
REMARK    3  A    between atoms: O_3  and  C_4
REMARK    4  A    between atoms: C_6  and  C_20
REMARK    5  A    between atoms: C_9  and  O_10
REMARK    6  A    between atoms: O_10  and  C_11
REMARK    7  A    between atoms: C_11  and  C_12
REMARK    8  A    between atoms: N_21  and  O_22
REMARK                            x       y       z     vdW  Elec       q    Type
REMARK                         _______ _______ _______ _____ _____    ______ ____
ROOT
ATOM      1  C   UNL     1       0.777  -1.811  -1.336  0.00  0.00    +0.163 A 
ATOM      2  C   UNL     1       0.244  -2.665  -0.389  0.00  0.00    +0.059 A 
ATOM      3  C   UNL     1       0.354  -4.048  -0.560  0.00  0.00    -0.000 A 
ATOM      4  C   UNL     1       1.002  -4.560  -1.686  0.00  0.00    +0.013 A 
ATOM      5  C   UNL     1       1.531  -3.701  -2.627  0.00  0.00    +0.050 A 
ATOM      6  C   UNL     1       1.417  -2.329  -2.460  0.00  0.00    +0.162 A 
ENDROOT
BRANCH   3   7
ATOM      7  C   UNL     1      -0.212  -4.964   0.448  0.00  0.00    +0.160 C 
ATOM      8  N   UNL     1      -0.109  -6.244   0.289  0.00  0.00    -0.095 NA
BRANCH   8   9
ATOM      9  O   UNL     1      -0.652  -7.124   1.256  0.00  0.00    -0.409 OA
ATOM     10  H   UNL     1      -0.526  -8.060   1.051  0.00  0.00    +0.328 HD
ENDBRANCH   8   9
ENDBRANCH   3   7
BRANCH   1  11
ATOM     11  O   UNL     1       0.671  -0.465  -1.174  0.00  0.00    -0.489 OA
BRANCH  11  13
ATOM     12  C   UNL     1      -0.019   1.526   0.010  0.00  0.00    +0.048 C 
ATOM     13  C   UNL     1       0.002  -0.004   0.002  0.00  0.00    +0.226 C 
ENDBRANCH  11  13
ENDBRANCH   1  11
BRANCH   6  14
ATOM     14  O   UNL     1       1.936  -1.487  -3.393  0.00  0.00    -0.484 OA
BRANCH  14  15
ATOM     15  C   UNL     1       2.579  -2.085  -4.520  0.00  0.00    +0.266 C 
BRANCH  15  16
ATOM     16  C   UNL     1       3.087  -1.005  -5.440  0.00  0.00    +0.008 A 
ATOM     17  C   UNL     1       2.897   0.325  -5.115  0.00  0.00    +0.010 A 
ATOM     18  C   UNL     1       3.363   1.316  -5.958  0.00  0.00    +0.020 A 
ATOM     19  C   UNL     1       4.021   0.978  -7.127  0.00  0.00    +0.042 A 
ATOM     20  C   UNL     1       4.212  -0.353  -7.452  0.00  0.00    +0.040 A 
ATOM     21  C   UNL     1       3.749  -1.345  -6.606  0.00  0.00    +0.049 A 
ATOM     22 CL   UNL     1       3.994  -3.015  -7.010  0.00  0.00    -0.083 Cl
ATOM     23 CL   UNL     1       4.606   2.223  -8.186  0.00  0.00    -0.083 Cl
ENDBRANCH  15  16
ENDBRANCH  14  15
ENDBRANCH   6  14
TORSDOF 7
