REMARK  Name = ZINC13165101
REMARK  6 active torsions:
REMARK  status: ('A' for Active; 'I' for Inactive)
REMARK    1  A    between atoms: C_1  and  C_2
REMARK    2  A    between atoms: C_2  and  C_4
REMARK    3  A    between atoms: C_2  and  S_13
REMARK    4  A    between atoms: C_4  and  C_6
REMARK    5  A    between atoms: S_13  and  C_14
REMARK    6  A    between atoms: C_20  and  N_22
REMARK                            x       y       z     vdW  Elec       q    Type
REMARK                         _______ _______ _______ _____ _____    ______ ____
ROOT
ATOM      1  S   UNL     1      -0.022   1.806   0.012  0.00  0.00    -0.077 S 
ENDROOT
BRANCH   1   2
ATOM      2  C   UNL     1       1.708   2.135  -0.003  0.00  0.00    +0.171 A 
ATOM      3  N   UNL     1       2.142   3.427  -0.006  0.00  0.00    -0.302 N 
ATOM      4  H   UNL     1       1.499   4.153   0.000  0.00  0.00    +0.171 HD
ATOM      5  C   UNL     1       3.464   3.698  -0.011  0.00  0.00    +0.254 A 
ATOM      6  O   UNL     1       3.861   4.852  -0.009  0.00  0.00    -0.268 OA
ATOM      7  C   UNL     1       4.371   2.634  -0.025  0.00  0.00    +0.113 A 
ATOM      8  C   UNL     1       3.878   1.336  -0.028  0.00  0.00    +0.124 A 
ATOM      9  N   UNL     1       2.557   1.128  -0.016  0.00  0.00    -0.209 NA
BRANCH   8  10
ATOM     10  N   UNL     1       4.748   0.265  -0.042  0.00  0.00    -0.343 N 
ATOM     11  H   UNL     1       4.402  -0.641  -0.044  0.00  0.00    +0.144 HD
ATOM     12  H   UNL     1       5.706   0.418  -0.051  0.00  0.00    +0.144 HD
ENDBRANCH   8  10
ENDBRANCH   1   2
BRANCH   1  14
ATOM     13  C   UNL     1       0.631  -0.513   1.301  0.00  0.00    +0.028 C 
ATOM     14  C   UNL     1       0.002  -0.004   0.002  0.00  0.00    +0.122 C 
BRANCH  14  15
ATOM     15  C   UNL     1      -1.407  -0.525  -0.111  0.00  0.00    +0.176 C 
ATOM     16  O   UNL     1      -2.337   0.156   0.266  0.00  0.00    -0.291 OA
BRANCH  15  17
ATOM     17  C   UNL     1      -1.655  -1.859  -0.679  0.00  0.00    +0.019 A 
ATOM     18  C   UNL     1      -0.585  -2.645  -1.121  0.00  0.00    +0.013 A 
ATOM     19  C   UNL     1      -0.824  -3.896  -1.647  0.00  0.00    +0.020 A 
ATOM     20  C   UNL     1      -2.122  -4.371  -1.750  0.00  0.00    +0.041 A 
ATOM     21  C   UNL     1      -3.187  -3.596  -1.319  0.00  0.00    +0.020 A 
ATOM     22  C   UNL     1      -2.962  -2.346  -0.786  0.00  0.00    +0.013 A 
ATOM     23 CL   UNL     1      -2.414  -5.946  -2.420  0.00  0.00    -0.084 Cl
ENDBRANCH  15  17
ENDBRANCH  14  15
ENDBRANCH   1  14
TORSDOF 5
