REMARK  Name = ZINC62977454
REMARK  7 active torsions:
REMARK  status: ('A' for Active; 'I' for Inactive)
REMARK    1  A    between atoms: C_1  and  C_2
REMARK    2  A    between atoms: C_2  and  C_3
REMARK    3  A    between atoms: C_3  and  C_5
REMARK    4  A    between atoms: C_3  and  N_24
REMARK    5  A    between atoms: C_5  and  C_7
REMARK    6  A    between atoms: C_5  and  N_13
REMARK    7  A    between atoms: C_16  and  N_19
REMARK                            x       y       z     vdW  Elec       q    Type
REMARK                         _______ _______ _______ _____ _____    ______ ____
ROOT
ATOM      1  C   UNL     1       0.417  -2.398  -1.199  0.00  0.00    +0.079 C 
ENDROOT
BRANCH   1   2
ATOM      2  C   UNL     1      -0.256  -1.173  -1.764  0.00  0.00    +0.007 A 
ATOM      3  C   UNL     1      -1.421  -0.592  -1.391  0.00  0.00    +0.014 A 
ATOM      4  C   UNL     1      -1.850   0.541  -2.058  0.00  0.00    +0.028 A 
ATOM      5  C   UNL     1      -1.090   1.035  -3.068  0.00  0.00    +0.078 A 
ATOM      6  S   UNL     1       0.281  -0.108  -3.092  0.00  0.00    -0.080 S 
ATOM      7 CL   UNL     1      -1.374   2.424  -4.071  0.00  0.00    -0.076 Cl
ENDBRANCH   1   2
BRANCH   1   8
ATOM      8  N   UNL     1       0.854  -3.268  -2.300  0.00  0.00    -0.298 NA
ATOM      9  C   UNL     1      -0.209  -3.400  -3.329  0.00  0.00    +0.083 C 
ATOM     10  C   UNL     1       0.145  -4.696  -4.089  0.00  0.00    +0.001 C 
ATOM     11  C   UNL     1       0.990  -5.523  -3.099  0.00  0.00    -0.053 C 
ATOM     12  C   UNL     1       1.077  -4.657  -1.824  0.00  0.00    +0.070 C 
BRANCH  11  13
ATOM     13  N   UNL     1       0.328  -6.801  -2.807  0.00  0.00    +0.382 N 
ATOM     14  C   UNL     1       0.264  -7.638  -4.033  0.00  0.00    -0.078 C 
ATOM     15  C   UNL     1       0.092  -9.073  -3.474  0.00  0.00    -0.020 C 
ATOM     16  C   UNL     1       0.985  -9.062  -2.212  0.00  0.00    -0.020 C 
ATOM     17  C   UNL     1       1.124  -7.577  -1.831  0.00  0.00    -0.078 C 
ATOM     18  H   UNL     1      -0.600  -6.638  -2.447  0.00  0.00    -0.081 HD
ENDBRANCH  11  13
ENDBRANCH   1   8
BRANCH   1  19
ATOM     19  C   UNL     1       1.631  -1.977  -0.369  0.00  0.00    -0.053 C 
BRANCH  19  20
ATOM     20  N   UNL     1       2.327  -3.173   0.122  0.00  0.00    +0.381 N 
ATOM     21  H   UNL     1       1.652  -3.833   0.478  0.00  0.00    -0.090 HD
ATOM     22  H   UNL     1       2.845  -3.596  -0.634  0.00  0.00    -0.090 HD
ATOM     23  H   UNL     1       2.963  -2.913   0.861  0.00  0.00    -0.090 HD
ENDBRANCH  19  20
BRANCH  19  25
ATOM     24  C   UNL     1       2.387  -0.608   1.579  0.00  0.00    +0.002 C 
ATOM     25  C   UNL     1       1.167  -1.133   0.820  0.00  0.00    -0.018 C 
ENDBRANCH  19  25
ENDBRANCH   1  19
TORSDOF 6
