REMARK  Name = ZINC41171717
REMARK  3 active torsions:
REMARK  status: ('A' for Active; 'I' for Inactive)
REMARK    1  A    between atoms: C_5  and  C_7
REMARK    2  A    between atoms: C_14  and  C_16
REMARK    3  A    between atoms: C_16  and  C_17
REMARK                            x       y       z     vdW  Elec       q    Type
REMARK                         _______ _______ _______ _____ _____    ______ ____
ROOT
ATOM      1  C   UNL     1       1.228  -2.186  -0.022  0.00  0.00    +0.168 C 
ATOM      2  C   UNL     1       1.372  -2.705   1.413  0.00  0.00    +0.144 C 
ATOM      3  N   UNL     1       1.201  -4.166   1.398  0.00  0.00    -0.296 N 
ATOM      4  C   UNL     1       0.021  -4.718   0.714  0.00  0.00    +0.136 C 
ATOM      5  C   UNL     1      -0.057  -4.101  -0.687  0.00  0.00    +0.179 C 
ATOM      6  O   UNL     1       0.007  -2.677  -0.580  0.00  0.00    -0.369 OA
ATOM      7  C   UNL     1       2.100  -4.976   1.993  0.00  0.00    +0.221 C 
ATOM      8  O   UNL     1       3.067  -4.502   2.552  0.00  0.00    -0.275 OA
ENDROOT
BRANCH   1  13
ATOM      9  C   UNL     1      -0.017   1.378   0.010  0.00  0.00    +0.001 A 
ATOM     10  C   UNL     1       1.171   2.087   0.002  0.00  0.00    +0.003 A 
ATOM     11  C   UNL     1       2.377   1.414  -0.013  0.00  0.00    +0.039 A 
ATOM     12  C   UNL     1       2.397   0.029  -0.021  0.00  0.00    +0.129 A 
ATOM     13  C   UNL     1       1.208  -0.679  -0.013  0.00  0.00    +0.018 A 
ATOM     14  C   UNL     1       0.002  -0.004   0.002  0.00  0.00    +0.009 A 
ATOM     15  F   UNL     1       3.577  -0.630  -0.036  0.00  0.00    -0.205 F 
ENDBRANCH   1  13
BRANCH   7  16
ATOM     16  C   UNL     1       1.903  -6.470   1.964  0.00  0.00    +0.138 C 
BRANCH  16  17
ATOM     17  C   UNL     1       3.038  -7.140   2.694  0.00  0.00    -0.001 A 
ATOM     18  C   UNL     1       3.132  -7.471   4.006  0.00  0.00    +0.011 A 
ATOM     19  C   UNL     1       4.283  -8.088   4.460  0.00  0.00    +0.008 A 
ATOM     20  C   UNL     1       5.282  -8.345   3.581  0.00  0.00    +0.045 A 
ATOM     21  S   UNL     1       4.603  -7.713   2.055  0.00  0.00    -0.101 S 
ENDBRANCH  16  17
ENDBRANCH   7  16
TORSDOF 3
