REMARK  Name = ZINC24172962
REMARK  10 active torsions:
REMARK  status: ('A' for Active; 'I' for Inactive)
REMARK    1  A    between atoms: C_1  and  C_2
REMARK    2  A    between atoms: C_2  and  C_3
REMARK    3  A    between atoms: N_5  and  C_31
REMARK    4  A    between atoms: C_9  and  S_11
REMARK    5  A    between atoms: S_11  and  C_12
REMARK    6  A    between atoms: C_12  and  C_13
REMARK    7  A    between atoms: N_15  and  N_16
REMARK    8  A    between atoms: C_19  and  C_23
REMARK    9  A    between atoms: C_19  and  C_25
REMARK   10  A    between atoms: C_23  and  C_24
REMARK                            x       y       z     vdW  Elec       q    Type
REMARK                         _______ _______ _______ _____ _____    ______ ____
ROOT
ATOM      1  C   UNL     1      -8.527  -1.621  -0.095  0.00  0.00    +0.240 C 
ATOM      2  O   UNL     1      -8.336  -2.815  -0.197  0.00  0.00    -0.273 OA
ATOM      3  N   UNL     1      -9.786  -1.144  -0.026  0.00  0.00    -0.223 N 
ATOM      4  H   UNL     1      -9.959  -0.061   0.067  0.00  0.00    +0.174 HD
ENDROOT
BRANCH   3   5
ATOM      5  N   UNL     1     -10.873  -2.025  -0.073  0.00  0.00    -0.137 N 
ATOM      6  C   UNL     1     -11.671  -2.187  -1.147  0.00  0.00    +0.268 C 
ATOM      7  O   UNL     1     -11.587  -1.619  -2.214  0.00  0.00    -0.271 OA
ATOM      8  C   UNL     1     -12.695  -3.229  -0.743  0.00  0.00    +0.139 C 
ATOM      9  N   UNL     1     -12.325  -3.559   0.644  0.00  0.00    -0.280 N 
ATOM     10  C   UNL     1     -11.252  -2.807   0.945  0.00  0.00    +0.327 C 
ATOM     11  O   UNL     1     -10.688  -2.834   2.022  0.00  0.00    -0.251 OA
ATOM     12  H   UNL     1     -12.909  -4.302   1.207  0.00  0.00    +0.152 HD
BRANCH   8  13
ATOM     13  C   UNL     1     -14.085  -2.649  -0.797  0.00  0.00    -0.015 A 
ATOM     14  C   UNL     1     -14.861  -2.818  -1.929  0.00  0.00    +0.006 A 
ATOM     15  C   UNL     1     -16.137  -2.289  -1.977  0.00  0.00    +0.000 A 
ATOM     16  C   UNL     1     -16.635  -1.585  -0.897  0.00  0.00    +0.000 A 
ATOM     17  C   UNL     1     -15.858  -1.413   0.233  0.00  0.00    +0.000 A 
ATOM     18  C   UNL     1     -14.583  -1.944   0.283  0.00  0.00    +0.006 A 
ENDBRANCH   8  13
BRANCH   8  19
ATOM     19  C   UNL     1     -12.595  -4.468  -1.636  0.00  0.00    +0.037 C 
ATOM     20  C   UNL     1     -11.198  -5.077  -1.508  0.00  0.00    +0.007 C 
ENDBRANCH   8  19
ENDBRANCH   3   5
BRANCH   1  21
ATOM     21  C   UNL     1      -7.357  -0.673  -0.044  0.00  0.00    +0.173 C 
BRANCH  21  22
ATOM     22  S   UNL     1      -5.811  -1.614  -0.158  0.00  0.00    -0.088 S 
BRANCH  22  29
ATOM     23  C   UNL     1      -0.049   1.183  -0.197  0.00  0.00    +0.221 C 
ATOM     24  O   UNL     1      -0.088  -0.010  -0.412  0.00  0.00    -0.275 OA
ATOM     25  N   UNL     1      -1.191   1.867   0.018  0.00  0.00    -0.246 N 
ATOM     26  C   UNL     1      -2.415   1.203  -0.008  0.00  0.00    +0.191 A 
ATOM     27  N   UNL     1      -3.645   1.685   0.066  0.00  0.00    -0.125 NA
ATOM     28  N   UNL     1      -4.659   0.937   0.023  0.00  0.00    -0.133 NA
ATOM     29  C   UNL     1      -4.555  -0.380  -0.086  0.00  0.00    +0.160 A 
ATOM     30  S   UNL     1      -2.773  -0.546  -0.142  0.00  0.00    -0.024 S 
BRANCH  25  31
ATOM     31  C   UNL     1      -1.144   3.308   0.278  0.00  0.00    +0.084 C 
ATOM     32  C   UNL     1      -2.401   3.963   0.852  0.00  0.00    +0.025 C 
ATOM     33  C   UNL     1      -2.005   4.213  -0.605  0.00  0.00    +0.025 C 
ENDBRANCH  25  31
BRANCH  23  35
ATOM     34  C   UNL     1       2.402   0.905  -0.451  0.00  0.00    +0.013 C 
ATOM     35  C   UNL     1       1.275   1.902  -0.175  0.00  0.00    +0.093 C 
ENDBRANCH  23  35
ENDBRANCH  22  29
ENDBRANCH  21  22
ENDBRANCH   1  21
TORSDOF 8
