REMARK  Name = ZINC23955925
REMARK  5 active torsions:
REMARK  status: ('A' for Active; 'I' for Inactive)
REMARK    1  A    between atoms: C_1  and  C_2
REMARK    2  A    between atoms: C_9  and  C_11
REMARK    3  A    between atoms: C_14  and  S_16
REMARK    4  A    between atoms: S_16  and  C_17
REMARK    5  A    between atoms: C_17  and  C_18
REMARK                            x       y       z     vdW  Elec       q    Type
REMARK                         _______ _______ _______ _____ _____    ______ ____
ROOT
ATOM      1  S   UNL     1       6.420   1.599  -0.051  0.00  0.00    -0.056 S 
ENDROOT
BRANCH   1   5
ATOM      2  C   UNL     1       2.552   1.288  -0.015  0.00  0.00    +0.256 A 
ATOM      3  N   UNL     1       2.925   0.029  -0.026  0.00  0.00    -0.106 NA
ATOM      4  N   UNL     1       4.210  -0.036  -0.039  0.00  0.00    -0.101 NA
ATOM      5  C   UNL     1       4.710   1.177  -0.037  0.00  0.00    +0.278 A 
ATOM      6  O   UNL     1       3.675   2.041  -0.028  0.00  0.00    -0.410 OA
BRANCH   2  14
ATOM      7  C   UNL     1      -5.027   1.401   0.337  0.00  0.00    +0.008 C 
ATOM      8  C   UNL     1      -3.644   2.038   0.495  0.00  0.00    -0.009 C 
ATOM      9  C   UNL     1      -3.580   3.321  -0.339  0.00  0.00    +0.009 C 
ATOM     10  C   UNL     1      -2.300   4.086   0.042  0.00  0.00    +0.043 C 
ATOM     11  C   UNL     1      -1.158   3.122   0.028  0.00  0.00    -0.006 A 
ATOM     12  C   UNL     1      -1.222   1.760   0.017  0.00  0.00    -0.036 A 
ATOM     13  C   UNL     1      -0.013   1.076   0.008  0.00  0.00    +0.024 A 
ATOM     14  C   UNL     1       1.169   1.787   0.001  0.00  0.00    +0.076 A 
ATOM     15  S   UNL     1       0.580   3.474   0.015  0.00  0.00    -0.088 S 
ATOM     16  C   UNL     1      -2.575   1.053   0.021  0.00  0.00    +0.039 C 
ENDBRANCH   2  14
ENDBRANCH   1   5
BRANCH   1  17
ATOM     17  C   UNL     1       7.152  -0.056  -0.067  0.00  0.00    +0.175 C 
BRANCH  17  18
ATOM     18  C   UNL     1       8.655   0.059  -0.081  0.00  0.00    +0.231 C 
ATOM     19  O   UNL     1       9.179   1.153  -0.080  0.00  0.00    -0.274 OA
ATOM     20  N   UNL     1       9.416  -1.053  -0.094  0.00  0.00    -0.260 N 
ATOM     21  C   UNL     1       8.805  -2.391  -0.095  0.00  0.00    +0.209 C 
ATOM     22  C   UNL     1       9.574  -3.283   0.845  0.00  0.00    +0.235 C 
ATOM     23  O   UNL     1       9.005  -4.197   1.403  0.00  0.00    -0.274 OA
ATOM     24  N   UNL     1      10.885  -3.078   1.073  0.00  0.00    -0.283 N 
ATOM     25  C   UNL     1      11.554  -2.001   0.481  0.00  0.00    +0.055 A 
ATOM     26  C   UNL     1      10.817  -0.972  -0.113  0.00  0.00    +0.058 A 
ATOM     27  C   UNL     1      11.462   0.100  -0.702  0.00  0.00    +0.025 A 
ATOM     28  C   UNL     1      12.845   0.150  -0.708  0.00  0.00    +0.002 A 
ATOM     29  C   UNL     1      13.580  -0.869  -0.130  0.00  0.00    +0.002 A 
ATOM     30  C   UNL     1      12.938  -1.944   0.474  0.00  0.00    +0.025 A 
ATOM     31  H   UNL     1      11.443  -3.760   1.732  0.00  0.00    +0.155 HD
ENDBRANCH  17  18
ENDBRANCH   1  17
TORSDOF 4
