REMARK  Name = ZINC12150723
REMARK  8 active torsions:
REMARK  status: ('A' for Active; 'I' for Inactive)
REMARK    1  A    between atoms: C_4  and  C_7
REMARK    2  A    between atoms: C_7  and  C_12
REMARK    3  A    between atoms: C_12  and  N_75
REMARK    4  A    between atoms: C_13  and  N_75
REMARK    5  A    between atoms: N_16  and  C_19
REMARK    6  A    between atoms: C_22  and  C_25
REMARK    7  A    between atoms: C_31  and  C_34
REMARK    8  A    between atoms: C_34  and  O_35
REMARK                            x       y       z     vdW  Elec       q    Type
REMARK                         _______ _______ _______ _____ _____    ______ ____
ROOT
ATOM      1  C   UNL     1      -0.625  -8.386   1.579  0.00  0.00    -0.069 C 
ATOM      2  C   UNL     1      -1.811  -8.122   0.647  0.00  0.00    +0.003 C 
ATOM      3  C   UNL     1      -2.578  -6.893   1.142  0.00  0.00    +0.103 C 
ATOM      4  N   UNL     1      -3.052  -7.129   2.511  0.00  0.00    -0.330 N 
ATOM      5  C   UNL     1      -1.928  -7.339   3.433  0.00  0.00    +0.103 C 
ATOM      6  C   UNL     1      -1.142  -8.581   3.007  0.00  0.00    +0.003 C 
ENDROOT
BRANCH   4   7
ATOM      7  C   UNL     1      -3.864  -6.086   2.945  0.00  0.00    +0.030 A 
ATOM      8  C   UNL     1      -4.416  -6.120   4.222  0.00  0.00    +0.024 A 
ATOM      9  C   UNL     1      -5.219  -5.090   4.653  0.00  0.00    +0.015 A 
ATOM     10  C   UNL     1      -5.482  -4.009   3.807  0.00  0.00    +0.037 A 
ATOM     11  C   UNL     1      -4.931  -3.981   2.523  0.00  0.00    +0.015 A 
ATOM     12  C   UNL     1      -4.123  -5.011   2.099  0.00  0.00    +0.024 A 
BRANCH  10  13
ATOM     13  C   UNL     1      -6.343  -2.903   4.267  0.00  0.00    +0.247 C 
ATOM     14  O   UNL     1      -7.267  -3.126   5.025  0.00  0.00    -0.270 OA
ATOM     15  N   UNL     1      -6.106  -1.645   3.846  0.00  0.00    -0.297 N 
ATOM     16  C   UNL     1      -7.036  -0.557   4.176  0.00  0.00    +0.108 C 
ATOM     17  C   UNL     1      -6.254   0.582   4.838  0.00  0.00    +0.019 C 
ATOM     18  C   UNL     1      -5.098   0.999   3.926  0.00  0.00    +0.009 C 
ATOM     19  C   UNL     1      -4.150  -0.186   3.726  0.00  0.00    +0.032 C 
ATOM     20  C   UNL     1      -4.909  -1.333   3.052  0.00  0.00    +0.113 C 
BRANCH  19  21
ATOM     21  C   UNL     1      -2.978   0.242   2.842  0.00  0.00    +0.160 C 
BRANCH  21  22
ATOM     22  O   UNL     1      -2.035  -0.828   2.751  0.00  0.00    -0.395 OA
ATOM     23  H   UNL     1      -1.263  -0.627   2.204  0.00  0.00    +0.209 HD
ENDBRANCH  21  22
ENDBRANCH  19  21
ENDBRANCH  10  13
ENDBRANCH   4   7
BRANCH   1  24
ATOM     24  N   UNL     1       0.076  -9.607   1.137  0.00  0.00    +0.382 N 
ATOM     25  H   UNL     1      -0.388 -10.429   1.541  0.00  0.00    -0.085 HD
ATOM     26  H   UNL     1       0.043  -9.664   0.113  0.00  0.00    -0.085 HD
BRANCH  24  27
ATOM     27  C   UNL     1       1.484  -9.576   1.578  0.00  0.00    -0.071 C 
BRANCH  27  28
ATOM     28  C   UNL     1       2.146 -10.912   1.234  0.00  0.00    -0.019 C 
ATOM     29  C   UNL     1       1.377 -12.068   1.897  0.00  0.00    +0.010 C 
ATOM     30  C   UNL     1       2.370 -12.771   2.845  0.00  0.00    +0.001 C 
ATOM     31  C   UNL     1       3.430 -11.686   3.158  0.00  0.00    +0.001 C 
ATOM     32  C   UNL     1       3.579 -10.953   1.801  0.00  0.00    +0.010 C 
BRANCH  28  36
ATOM     33  C   UNL     1       2.234 -11.451  -3.003  0.00  0.00    +0.000 A 
ATOM     34  C   UNL     1       3.299 -10.849  -2.361  0.00  0.00    +0.000 A 
ATOM     35  C   UNL     1       3.270 -10.674  -0.990  0.00  0.00    +0.004 A 
ATOM     36  C   UNL     1       2.177 -11.102  -0.261  0.00  0.00    -0.043 A 
ATOM     37  C   UNL     1       1.114 -11.710  -0.903  0.00  0.00    +0.004 A 
ATOM     38  C   UNL     1       1.140 -11.880  -2.274  0.00  0.00    +0.000 A 
ENDBRANCH  28  36
ENDBRANCH  27  28
ENDBRANCH  24  27
ENDBRANCH   1  24
TORSDOF 8
