REMARK  Name = ZINC27695987
REMARK  12 active torsions:
REMARK  status: ('A' for Active; 'I' for Inactive)
REMARK    1  A    between atoms: C_1  and  C_2
REMARK    2  A    between atoms: C_2  and  C_4
REMARK    3  A    between atoms: C_2  and  C_16
REMARK    4  A    between atoms: C_9  and  O_14
REMARK    5  A    between atoms: O_14  and  C_15
REMARK    6  A    between atoms: N_24  and  C_25
REMARK    7  A    between atoms: C_25  and  C_26
REMARK    8  A    between atoms: C_26  and  C_28
REMARK    9  A    between atoms: C_26  and  O_42
REMARK   10  A    between atoms: C_28  and  N_29
REMARK   11  A    between atoms: N_29  and  C_30
REMARK   12  A    between atoms: N_29  and  C_36
REMARK                            x       y       z     vdW  Elec       q    Type
REMARK                         _______ _______ _______ _____ _____    ______ ____
ROOT
ATOM      1  C   UNL     1       0.106  -0.648  -4.279  0.00  0.00    +0.118 A 
ATOM      2  N   UNL     1      -0.312  -0.352  -5.474  0.00  0.00    -0.232 NA
ATOM      3  C   UNL     1      -0.047   0.953  -5.742  0.00  0.00    +0.089 A 
ATOM      4  C   UNL     1      -0.270   1.774  -6.850  0.00  0.00    +0.030 A 
ATOM      5  C   UNL     1       0.122   3.082  -6.817  0.00  0.00    +0.002 A 
ATOM      6  C   UNL     1       0.743   3.607  -5.692  0.00  0.00    +0.002 A 
ATOM      7  C   UNL     1       0.974   2.816  -4.588  0.00  0.00    +0.028 A 
ATOM      8  C   UNL     1       0.582   1.484  -4.603  0.00  0.00    +0.069 A 
ATOM      9  N   UNL     1       0.661   0.448  -3.693  0.00  0.00    -0.325 N 
ENDROOT
BRANCH   1  11
ATOM     10  C   UNL     1       0.876  -3.002  -4.384  0.00  0.00    +0.020 C 
ATOM     11  C   UNL     1      -0.009  -2.005  -3.635  0.00  0.00    +0.082 C 
BRANCH  11  12
ATOM     12  C   UNL     1      -1.443  -2.466  -3.688  0.00  0.00    -0.037 A 
ATOM     13  C   UNL     1      -2.053  -2.668  -4.925  0.00  0.00    +0.005 A 
ATOM     14  C   UNL     1      -3.345  -3.085  -5.009  0.00  0.00    +0.009 A 
ATOM     15  C   UNL     1      -4.080  -3.316  -3.833  0.00  0.00    -0.014 A 
ATOM     16  C   UNL     1      -5.415  -3.747  -3.881  0.00  0.00    +0.054 A 
ATOM     17  C   UNL     1      -6.098  -3.961  -2.717  0.00  0.00    +0.121 A 
ATOM     18  C   UNL     1      -5.484  -3.758  -1.477  0.00  0.00    +0.046 A 
ATOM     19  C   UNL     1      -4.192  -3.340  -1.397  0.00  0.00    +0.012 A 
ATOM     20  C   UNL     1      -3.459  -3.110  -2.575  0.00  0.00    -0.017 A 
ATOM     21  C   UNL     1      -2.121  -2.685  -2.529  0.00  0.00    +0.012 A 
BRANCH  17  22
ATOM     22  O   UNL     1      -7.390  -4.378  -2.765  0.00  0.00    -0.495 OA
ATOM     23  C   UNL     1      -8.051  -4.585  -1.515  0.00  0.00    +0.277 C 
ENDBRANCH  17  22
ENDBRANCH  11  12
ENDBRANCH   1  11
BRANCH   9  24
ATOM     24  C   UNL     1       1.242   0.515  -2.350  0.00  0.00    +0.153 C 
BRANCH  24  25
ATOM     25  C   UNL     1       0.195   1.044  -1.368  0.00  0.00    +0.118 C 
BRANCH  25  26
ATOM     26  O   UNL     1      -0.910   0.139  -1.315  0.00  0.00    -0.392 OA
ATOM     27  H   UNL     1      -1.766   0.354  -0.658  0.00  0.00    +0.210 HD
ENDBRANCH  25  26
BRANCH  25  28
ATOM     28  C   UNL     1       0.818   1.171   0.024  0.00  0.00    -0.045 C 
BRANCH  28  29
ATOM     29  N   UNL     1      -0.197   1.643   0.974  0.00  0.00    +0.385 N 
ATOM     30  H   UNL     1      -1.186   1.375   0.574  0.00  0.00    -0.081 HD
BRANCH  29  31
ATOM     31  C   UNL     1      -0.044   0.984   2.278  0.00  0.00    -0.068 C 
ATOM     32  C   UNL     1       1.389   1.172   2.780  0.00  0.00    -0.015 C 
ATOM     33  C   UNL     1       1.548   0.485   4.138  0.00  0.00    -0.002 C 
ATOM     34  C   UNL     1       1.250  -1.008   3.993  0.00  0.00    -0.000 C 
ATOM     35  C   UNL     1      -0.184  -1.196   3.491  0.00  0.00    -0.002 C 
ATOM     36  C   UNL     1      -0.342  -0.509   2.133  0.00  0.00    -0.015 C 
ENDBRANCH  29  31
BRANCH  29  37
ATOM     37  C   UNL     1      -0.147   3.105   1.114  0.00  0.00    -0.068 C 
ATOM     38  C   UNL     1      -1.042   3.536   2.278  0.00  0.00    -0.015 C 
ATOM     39  C   UNL     1      -0.990   5.059   2.423  0.00  0.00    -0.002 C 
ATOM     40  C   UNL     1      -1.485   5.711   1.131  0.00  0.00    -0.000 C 
ATOM     41  C   UNL     1      -0.590   5.280  -0.033  0.00  0.00    -0.002 C 
ATOM     42  C   UNL     1      -0.642   3.757  -0.179  0.00  0.00    -0.015 C 
ENDBRANCH  29  37
ENDBRANCH  28  29
ENDBRANCH  25  28
ENDBRANCH  24  25
ENDBRANCH   9  24
TORSDOF 10
