REMARK  Name = ZINC51542262
REMARK  5 active torsions:
REMARK  status: ('A' for Active; 'I' for Inactive)
REMARK    1  A    between atoms: C_1  and  C_2
REMARK    2  A    between atoms: C_7  and  O_10
REMARK    3  A    between atoms: O_10  and  C_11
REMARK    4  A    between atoms: C_12  and  C_18
REMARK    5  A    between atoms: C_18  and  N_19
REMARK                            x       y       z     vdW  Elec       q    Type
REMARK                         _______ _______ _______ _____ _____    ______ ____
ROOT
ATOM      1  C   UNL     1      -0.788  -3.734   1.843  0.00  0.00    +0.216 A 
ATOM      2  C   UNL     1      -2.069  -4.270   1.880  0.00  0.00    -0.002 A 
ATOM      3  C   UNL     1      -2.270  -5.493   2.495  0.00  0.00    +0.023 A 
ATOM      4  C   UNL     1      -1.176  -6.141   3.055  0.00  0.00    +0.036 A 
ATOM      5  C   UNL     1       0.070  -5.549   2.981  0.00  0.00    +0.130 A 
ATOM      6  N   UNL     1       0.230  -4.383   2.383  0.00  0.00    -0.220 NA
ATOM      7 BR   UNL     1      -1.390  -7.814   3.909  0.00  0.00    -0.049 Br
ENDROOT
BRANCH   1   8
ATOM      8  O   UNL     1      -0.578  -2.535   1.243  0.00  0.00    -0.473 OA
BRANCH   8  14
ATOM      9  C   UNL     1      -0.019   1.526   0.010  0.00  0.00    +0.007 C 
ATOM     10  C   UNL     1       0.002  -0.004   0.002  0.00  0.00    -0.011 C 
ATOM     11  C   UNL     1       0.718  -0.497  -1.257  0.00  0.00    +0.003 C 
ATOM     12  C   UNL     1       0.739  -2.027  -1.265  0.00  0.00    +0.004 C 
ATOM     13  C   UNL     1       1.479  -2.534  -0.026  0.00  0.00    +0.044 C 
ATOM     14  C   UNL     1       0.763  -2.041   1.233  0.00  0.00    +0.175 C 
ATOM     15  C   UNL     1       0.742  -0.511   1.242  0.00  0.00    +0.048 C 
ENDBRANCH   8  14
ENDBRANCH   1   8
BRANCH   2  16
ATOM     16  C   UNL     1      -3.224  -3.529   1.259  0.00  0.00    -0.045 C 
BRANCH  16  17
ATOM     17  N   UNL     1      -3.220  -3.744  -0.194  0.00  0.00    +0.381 N 
ATOM     18  H   UNL     1      -3.994  -3.248  -0.610  0.00  0.00    -0.090 HD
ATOM     19  H   UNL     1      -2.354  -3.402  -0.582  0.00  0.00    -0.090 HD
ATOM     20  H   UNL     1      -3.310  -4.730  -0.388  0.00  0.00    -0.090 HD
ENDBRANCH  16  17
ENDBRANCH   2  16
TORSDOF 4
