REMARK  Name = ZINC01368138
REMARK  5 active torsions:
REMARK  status: ('A' for Active; 'I' for Inactive)
REMARK    1  A    between atoms: C_1  and  C_2
REMARK    2  A    between atoms: C_15  and  S_17
REMARK    3  A    between atoms: S_17  and  C_18
REMARK    4  A    between atoms: C_18  and  C_19
REMARK    5  A    between atoms: N_21  and  C_22
REMARK                            x       y       z     vdW  Elec       q    Type
REMARK                         _______ _______ _______ _____ _____    ______ ____
ROOT
ATOM      1  C   UNL     1       1.172 -10.472   0.140  0.00  0.00    +0.008 C 
ATOM      2  C   UNL     1       0.577  -9.091   0.427  0.00  0.00    -0.009 C 
ATOM      3  C   UNL     1      -0.699  -8.896  -0.397  0.00  0.00    +0.008 C 
ATOM      4  C   UNL     1      -1.428  -7.635   0.066  0.00  0.00    +0.037 C 
ATOM      5  C   UNL     1      -0.448  -6.465   0.050  0.00  0.00    -0.023 A 
ATOM      6  C   UNL     1       0.883  -6.681   0.036  0.00  0.00    -0.004 A 
ATOM      7  S   UNL     1       1.613  -5.066   0.021  0.00  0.00    -0.073 S 
ATOM      8  C   UNL     1       0.123  -4.101   0.035  0.00  0.00    +0.117 A 
ATOM      9  C   UNL     1      -0.894  -5.070   0.049  0.00  0.00    +0.075 A 
ATOM     10  C   UNL     1      -2.234  -4.568   0.062  0.00  0.00    +0.261 A 
ATOM     11  O   UNL     1      -3.181  -5.334   0.075  0.00  0.00    -0.267 OA
ATOM     12  N   UNL     1      -2.433  -3.237   0.060  0.00  0.00    -0.301 N 
ATOM     13  H   UNL     1      -3.368  -2.881   0.069  0.00  0.00    +0.171 HD
ATOM     14  C   UNL     1      -1.384  -2.363   0.046  0.00  0.00    +0.170 A 
ATOM     15  N   UNL     1      -0.141  -2.800   0.028  0.00  0.00    -0.216 NA
ATOM     16  C   UNL     1       1.588  -8.004   0.034  0.00  0.00    +0.046 C 
ENDROOT
BRANCH  14  17
ATOM     17  S   UNL     1      -1.697  -0.629   0.044  0.00  0.00    -0.078 S 
BRANCH  17  18
ATOM     18  C   UNL     1       0.001  -0.004   0.023  0.00  0.00    +0.173 C 
BRANCH  18  19
ATOM     19  C   UNL     1      -0.019   1.503   0.018  0.00  0.00    +0.228 C 
ATOM     20  O   UNL     1      -1.077   2.096   0.023  0.00  0.00    -0.275 OA
ATOM     21  N   UNL     1       1.139   2.192   0.003  0.00  0.00    -0.283 N 
ATOM     22  H   UNL     1       1.985   1.721   0.060  0.00  0.00    +0.155 HD
BRANCH  21  23
ATOM     23  C   UNL     1       1.122   3.589  -0.095  0.00  0.00    +0.069 A 
ATOM     24  C   UNL     1       0.106   4.316   0.509  0.00  0.00    +0.026 A 
ATOM     25  C   UNL     1       0.094   5.695   0.416  0.00  0.00    +0.002 A 
ATOM     26  C   UNL     1       1.086   6.351  -0.289  0.00  0.00    +0.003 A 
ATOM     27  C   UNL     1       2.098   5.631  -0.897  0.00  0.00    +0.040 A 
ATOM     28  C   UNL     1       2.119   4.251  -0.803  0.00  0.00    +0.144 A 
ATOM     29  F   UNL     1       3.107   3.547  -1.398  0.00  0.00    -0.204 F 
ENDBRANCH  21  23
ENDBRANCH  18  19
ENDBRANCH  17  18
ENDBRANCH  14  17
TORSDOF 4
