REMARK  Name = ZINC13644652
REMARK  13 active torsions:
REMARK  status: ('A' for Active; 'I' for Inactive)
REMARK    1  A    between atoms: C_1  and  C_2
REMARK    2  A    between atoms: C_2  and  C_3
REMARK    3  A    between atoms: C_2  and  C_4
REMARK    4  A    between atoms: C_2  and  N_5
REMARK    5  A    between atoms: C_6  and  C_8
REMARK    6  A    between atoms: C_8  and  N_9
REMARK    7  A    between atoms: N_9  and  C_10
REMARK    8  A    between atoms: N_9  and  S_29
REMARK    9  A    between atoms: C_14  and  C_27
REMARK   10  A    between atoms: N_18  and  C_20
REMARK   11  A    between atoms: C_20  and  C_21
REMARK   12  A    between atoms: N_25  and  C_26
REMARK   13  A    between atoms: S_29  and  C_32
REMARK                            x       y       z     vdW  Elec       q    Type
REMARK                         _______ _______ _______ _____ _____    ______ ____
ROOT
ATOM      1  C   UNL     1       5.533  -0.456  -2.383  0.00  0.00    +0.102 C 
ATOM      2  C   UNL     1       5.492  -1.843  -3.025  0.00  0.00    +0.059 C 
ATOM      3  C   UNL     1       6.160  -2.856  -2.133  0.00  0.00    -0.024 A 
ATOM      4  C   UNL     1       6.606  -4.038  -2.687  0.00  0.00    +0.024 A 
ATOM      5  C   UNL     1       7.228  -4.999  -1.887  0.00  0.00    +0.052 A 
ATOM      6  C   UNL     1       7.397  -4.761  -0.519  0.00  0.00    +0.021 A 
ATOM      7  C   UNL     1       6.952  -3.581   0.029  0.00  0.00    +0.024 A 
ATOM      8  C   UNL     1       6.333  -2.624  -0.774  0.00  0.00    +0.033 A 
ATOM      9  N   UNL     1       5.899  -1.433  -0.192  0.00  0.00    -0.322 N 
ATOM     10  C   UNL     1       4.996  -0.558  -0.949  0.00  0.00    +0.126 C 
ENDROOT
BRANCH   5  11
ATOM     11  C   UNL     1       7.691  -6.225  -2.465  0.00  0.00    +0.099 C 
ATOM     12  N   UNL     1       8.058  -7.197  -2.924  0.00  0.00    -0.191 NA
ENDBRANCH   5  11
BRANCH   1  13
ATOM     13  N   UNL     1       4.699   0.468  -3.155  0.00  0.00    -0.162 NA
BRANCH  13  14
ATOM     14  S   UNL     1       5.369   1.825  -3.828  0.00  0.00    +0.079 S 
ATOM     15  O   UNL     1       6.756   1.557  -3.985  0.00  0.00    -0.151 OA
ATOM     16  O   UNL     1       4.536   2.192  -4.918  0.00  0.00    -0.151 OA
BRANCH  14  17
ATOM     17  C   UNL     1       5.238   3.116  -2.636  0.00  0.00    +0.194 A 
ATOM     18  C   UNL     1       4.113   3.919  -2.621  0.00  0.00    +0.049 A 
ATOM     19  C   UNL     1       4.019   4.933  -1.679  0.00  0.00    +0.005 A 
ATOM     20  C   UNL     1       5.065   5.100  -0.784  0.00  0.00    +0.020 A 
ATOM     21  C   UNL     1       6.158   4.258  -0.860  0.00  0.00    +0.113 A 
ATOM     22  N   UNL     1       6.211   3.301  -1.766  0.00  0.00    -0.236 NA
ENDBRANCH  14  17
ENDBRANCH  13  14
BRANCH  13  23
ATOM     23  C   UNL     1       3.271   0.191  -3.333  0.00  0.00    +0.205 C 
BRANCH  23  25
ATOM     24  N   UNL     1       1.166   0.578  -2.093  0.00  0.00    -0.309 N 
ATOM     25  C   UNL     1       2.505   0.720  -2.148  0.00  0.00    +0.229 C 
ATOM     26  O   UNL     1       3.094   1.273  -1.243  0.00  0.00    -0.274 OA
ATOM     27  H   UNL     1       0.695   0.135  -2.816  0.00  0.00    +0.149 HD
BRANCH  24  29
ATOM     28  C   UNL     1       0.638   2.601  -0.826  0.00  0.00    +0.031 C 
ATOM     29  C   UNL     1       0.422   1.091  -0.940  0.00  0.00    +0.026 C 
ATOM     30  C   UNL     1       0.919   0.406   0.334  0.00  0.00    +0.031 C 
ATOM     31  C   UNL     1      -1.069   0.802  -1.126  0.00  0.00    +0.031 C 
ENDBRANCH  24  29
ENDBRANCH  23  25
ENDBRANCH  13  23
ENDBRANCH   1  13
BRANCH   9  32
ATOM     32  C   UNL     1       6.338  -1.061   1.156  0.00  0.00    +0.160 C 
BRANCH  32  33
ATOM     33  C   UNL     1       7.549  -0.168   1.061  0.00  0.00    +0.053 A 
ATOM     34  C   UNL     1       7.557   1.178   1.075  0.00  0.00    +0.106 A 
ATOM     35  N   UNL     1       8.830   1.587   0.970  0.00  0.00    -0.352 N 
ATOM     36  C   UNL     1       9.611   0.545   0.891  0.00  0.00    +0.173 A 
ATOM     37  N   UNL     1       8.853  -0.571   0.950  0.00  0.00    -0.337 N 
ATOM     38  C   UNL     1       9.335  -1.953   0.902  0.00  0.00    +0.150 C 
ATOM     39  H   UNL     1       9.123   2.511   0.955  0.00  0.00    +0.166 HD
ENDBRANCH  32  33
ENDBRANCH   9  32
TORSDOF 9
