REMARK  Name = ZINC58278145
REMARK  11 active torsions:
REMARK  status: ('A' for Active; 'I' for Inactive)
REMARK    1  A    between atoms: C_1  and  C_2
REMARK    2  A    between atoms: C_2  and  C_3
REMARK    3  A    between atoms: C_2  and  C_4
REMARK    4  A    between atoms: C_7  and  C_10
REMARK    5  A    between atoms: C_10  and  C_12
REMARK    6  A    between atoms: C_10  and  N_27
REMARK    7  A    between atoms: C_12  and  N_13
REMARK    8  A    between atoms: N_16  and  N_17
REMARK    9  A    between atoms: C_18  and  C_20
REMARK   10  A    between atoms: C_20  and  C_21
REMARK   11  A    between atoms: C_21  and  C_22
REMARK                            x       y       z     vdW  Elec       q    Type
REMARK                         _______ _______ _______ _____ _____    ______ ____
ROOT
ATOM      1  C   UNL     1      -5.430  -1.951  -0.053  0.00  0.00    +0.104 C 
ENDROOT
BRANCH   1   2
ATOM      2  N   UNL     1      -5.261  -3.240  -0.737  0.00  0.00    -0.289 NA
ATOM      3  C   UNL     1      -6.560  -3.797  -1.139  0.00  0.00    +0.090 C 
ATOM      4  C   UNL     1      -6.323  -4.899  -2.187  0.00  0.00    +0.058 C 
ATOM      5  C   UNL     1      -5.222  -5.775  -1.685  0.00  0.00    -0.005 A 
ATOM      6  C   UNL     1      -4.367  -5.500  -0.660  0.00  0.00    -0.023 A 
ATOM      7  C   UNL     1      -3.416  -6.474  -0.366  0.00  0.00    +0.013 A 
ATOM      8  C   UNL     1      -3.375  -7.620  -1.086  0.00  0.00    +0.046 A 
ATOM      9  S   UNL     1      -4.712  -7.375  -2.245  0.00  0.00    -0.101 S 
ATOM     10  C   UNL     1      -4.490  -4.177   0.089  0.00  0.00    +0.121 C 
ENDBRANCH   1   2
BRANCH   1  14
ATOM     11  C   UNL     1      -1.597  -0.371   0.975  0.00  0.00    -0.045 A 
ATOM     12  C   UNL     1      -2.652  -0.256   1.861  0.00  0.00    +0.004 A 
ATOM     13  C   UNL     1      -3.892  -0.767   1.528  0.00  0.00    +0.005 A 
ATOM     14  C   UNL     1      -4.078  -1.393   0.309  0.00  0.00    -0.029 A 
ATOM     15  C   UNL     1      -3.023  -1.506  -0.577  0.00  0.00    +0.005 A 
ATOM     16  C   UNL     1      -1.784  -0.991  -0.246  0.00  0.00    +0.004 A 
BRANCH  11  18
ATOM     17  C   UNL     1      -0.363   1.692   1.586  0.00  0.00    +0.012 C 
ATOM     18  C   UNL     1      -0.244   0.187   1.337  0.00  0.00    +0.013 C 
ATOM     19  C   UNL     1       0.268  -0.501   2.604  0.00  0.00    +0.012 C 
ENDBRANCH  11  18
ENDBRANCH   1  14
BRANCH   1  20
ATOM     20  C   UNL     1      -6.154  -0.973  -0.980  0.00  0.00    +0.129 C 
BRANCH  20  21
ATOM     21  N   UNL     1      -5.443  -0.893  -2.257  0.00  0.00    -0.296 N 
ATOM     22  C   UNL     1      -5.834  -0.005  -3.193  0.00  0.00    +0.316 C 
ATOM     23  O   UNL     1      -6.778   0.730  -2.975  0.00  0.00    -0.251 OA
ATOM     24  N   UNL     1      -5.179   0.069  -4.368  0.00  0.00    -0.218 N 
ATOM     25  H   UNL     1      -4.690  -1.479  -2.431  0.00  0.00    +0.150 HD
ATOM     26  H   UNL     1      -5.461   0.708  -5.041  0.00  0.00    +0.174 HD
BRANCH  24  27
ATOM     27  N   UNL     1      -4.092  -0.778  -4.619  0.00  0.00    -0.233 N 
ATOM     28  C   UNL     1      -3.437  -0.705  -5.794  0.00  0.00    +0.230 C 
ATOM     29  O   UNL     1      -3.789   0.094  -6.636  0.00  0.00    -0.274 OA
ATOM     30  H   UNL     1      -3.810  -1.418  -3.946  0.00  0.00    +0.173 HD
BRANCH  28  31
ATOM     31  C   UNL     1      -2.267  -1.616  -6.063  0.00  0.00    +0.105 C 
BRANCH  31  32
ATOM     32  C   UNL     1      -1.708  -1.331  -7.459  0.00  0.00    +0.083 C 
BRANCH  32  33
ATOM     33  C   UNL     1      -0.539  -2.242  -7.728  0.00  0.00    +0.105 A 
ATOM     34  C   UNL     1      -0.604  -3.459  -8.296  0.00  0.00    +0.044 A 
ATOM     35  C   UNL     1       0.718  -3.955  -8.355  0.00  0.00    +0.041 A 
ATOM     36  C   UNL     1       1.513  -3.012  -7.819  0.00  0.00    +0.195 A 
ATOM     37  O   UNL     1       0.747  -1.974  -7.446  0.00  0.00    -0.468 OA
ENDBRANCH  32  33
ENDBRANCH  31  32
ENDBRANCH  28  31
ENDBRANCH  24  27
ENDBRANCH  20  21
ENDBRANCH   1  20
TORSDOF 9
