REMARK  Name = ZINC15985697
REMARK  11 active torsions:
REMARK  status: ('A' for Active; 'I' for Inactive)
REMARK    1  A    between atoms: C_1  and  C_2
REMARK    2  A    between atoms: C_5  and  C_27
REMARK    3  A    between atoms: C_6  and  S_8
REMARK    4  A    between atoms: S_8  and  C_9
REMARK    5  A    between atoms: C_12  and  N_15
REMARK    6  A    between atoms: C_16  and  C_18
REMARK    7  A    between atoms: C_18  and  C_20
REMARK    8  A    between atoms: C_18  and  N_23
REMARK    9  A    between atoms: C_20  and  C_21
REMARK   10  A    between atoms: C_20  and  C_22
REMARK   11  A    between atoms: C_24  and  C_26
REMARK                            x       y       z     vdW  Elec       q    Type
REMARK                         _______ _______ _______ _____ _____    ______ ____
ROOT
ATOM      1  C   UNL     1      -1.858   4.351   0.832  0.00  0.00    +0.013 A 
ATOM      2  C   UNL     1      -0.594   4.594   0.308  0.00  0.00    +0.017 A 
ATOM      3  C   UNL     1      -0.068   5.869   0.339  0.00  0.00    +0.024 A 
ATOM      4  C   UNL     1      -0.796   6.907   0.906  0.00  0.00    +0.034 A 
ATOM      5  C   UNL     1      -2.056   6.664   1.436  0.00  0.00    +0.024 A 
ATOM      6  C   UNL     1      -2.586   5.390   1.399  0.00  0.00    +0.017 A 
ENDROOT
BRANCH   4   7
ATOM      7  N   UNL     1      -0.259   8.201   0.943  0.00  0.00    -0.284 N 
ATOM      8  C   UNL     1       1.066   8.376   1.118  0.00  0.00    +0.238 C 
ATOM      9  O   UNL     1       1.783   7.418   1.319  0.00  0.00    -0.273 OA
ATOM     10  H   UNL     1      -0.840   8.971   0.842  0.00  0.00    +0.155 HD
BRANCH   8  11
ATOM     11  C   UNL     1       1.657   9.761   1.065  0.00  0.00    +0.162 C 
BRANCH  11  12
ATOM     12  N   UNL     1       3.070   9.704   1.449  0.00  0.00    -0.304 N 
ATOM     13  C   UNL     1       3.674  10.796   1.959  0.00  0.00    +0.211 C 
ATOM     14  O   UNL     1       3.047  11.825   2.101  0.00  0.00    -0.276 OA
ATOM     15  C   UNL     1       5.127  10.738   2.354  0.00  0.00    +0.109 C 
ATOM     16  H   UNL     1       3.571   8.881   1.336  0.00  0.00    +0.149 HD
ENDBRANCH  11  12
BRANCH  11  17
ATOM     17  C   UNL     1       1.537  10.312  -0.357  0.00  0.00    +0.012 C 
ATOM     18  C   UNL     1       0.064  10.345  -0.769  0.00  0.00    +0.009 C 
ATOM     19  C   UNL     1       2.111  11.730  -0.405  0.00  0.00    +0.009 C 
ENDBRANCH  11  17
ENDBRANCH   8  11
ENDBRANCH   4   7
BRANCH   1  20
ATOM     20  S   UNL     1      -2.534   2.724   0.784  0.00  0.00    -0.089 S 
BRANCH  20  26
ATOM     21  C   UNL     1       1.402  -0.700   1.184  0.00  0.00    +0.044 C 
ATOM     22  C   UNL     1       0.545   0.181   0.312  0.00  0.00    -0.049 A 
ATOM     23  C   UNL     1       0.770   0.230  -1.052  0.00  0.00    +0.004 A 
ATOM     24  C   UNL     1      -0.013   1.037  -1.857  0.00  0.00    +0.005 A 
ATOM     25  C   UNL     1      -1.023   1.797  -1.301  0.00  0.00    -0.037 A 
ATOM     26  C   UNL     1      -1.252   1.750   0.069  0.00  0.00    +0.016 A 
ATOM     27  C   UNL     1      -0.462   0.938   0.875  0.00  0.00    +0.018 A 
ATOM     28  C   UNL     1      -1.876   2.677  -2.178  0.00  0.00    +0.045 C 
ENDBRANCH  20  26
ENDBRANCH   1  20
TORSDOF 6
