REMARK  Name = ZINC15981037
REMARK  7 active torsions:
REMARK  status: ('A' for Active; 'I' for Inactive)
REMARK    1  A    between atoms: C_9  and  C_12
REMARK    2  A    between atoms: C_12  and  N_13
REMARK    3  A    between atoms: N_13  and  C_14
REMARK    4  A    between atoms: C_17  and  S_23
REMARK    5  A    between atoms: C_19  and  N_20
REMARK    6  A    between atoms: S_23  and  N_26
REMARK    7  A    between atoms: N_26  and  C_27
REMARK                            x       y       z     vdW  Elec       q    Type
REMARK                         _______ _______ _______ _____ _____    ______ ____
ROOT
ATOM      1  C   UNL     1       3.614   1.424   1.430  0.00  0.00    +0.058 A 
ATOM      2  C   UNL     1       4.162   2.302   0.503  0.00  0.00    +0.027 A 
ATOM      3  C   UNL     1       5.491   2.664   0.599  0.00  0.00    +0.031 A 
ATOM      4  C   UNL     1       6.280   2.145   1.610  0.00  0.00    +0.111 A 
ATOM      5  C   UNL     1       5.739   1.267   2.531  0.00  0.00    +0.063 A 
ATOM      6  C   UNL     1       4.409   0.905   2.444  0.00  0.00    +0.149 A 
ENDROOT
BRANCH   6   7
ATOM      7  N   UNL     1       3.830  -0.034   3.431  0.00  0.00    +0.058 N 
ATOM      8  O   UNL     1       4.180   0.015   4.597  0.00  0.00    -0.126 OA
ATOM      9  O   UNL     1       3.005  -0.857   3.077  0.00  0.00    -0.126 OA
ENDBRANCH   6   7
BRANCH   4  10
ATOM     10  S   UNL     1       7.977   2.603   1.724  0.00  0.00    +0.072 S 
ATOM     11  O   UNL     1       8.086   3.902   1.159  0.00  0.00    -0.150 OA
ATOM     12  O   UNL     1       8.388   2.313   3.054  0.00  0.00    -0.150 OA
BRANCH  10  13
ATOM     13  N   UNL     1       8.827   1.584   0.734  0.00  0.00    -0.216 N 
ATOM     14  H   UNL     1       9.480   0.974   1.111  0.00  0.00    +0.174 HD
BRANCH  13  15
ATOM     15  C   UNL     1       8.603   1.602  -0.646  0.00  0.00    +0.048 A 
ATOM     16  C   UNL     1       7.891   0.574  -1.249  0.00  0.00    +0.026 A 
ATOM     17  C   UNL     1       7.666   0.598  -2.611  0.00  0.00    +0.022 A 
ATOM     18  C   UNL     1       8.160   1.639  -3.377  0.00  0.00    +0.041 A 
ATOM     19  C   UNL     1       8.875   2.662  -2.780  0.00  0.00    +0.022 A 
ATOM     20  C   UNL     1       9.098   2.646  -1.417  0.00  0.00    +0.026 A 
ATOM     21 CL   UNL     1       7.882   1.662  -5.090  0.00  0.00    -0.084 Cl
ENDBRANCH  13  15
ENDBRANCH  10  13
ENDBRANCH   4  10
BRANCH   1  22
ATOM     22  N   UNL     1       2.269   1.061   1.340  0.00  0.00    -0.338 N 
ATOM     23  H   UNL     1       1.900   0.407   1.954  0.00  0.00    +0.146 HD
BRANCH  22  24
ATOM     24  C   UNL     1       1.414   1.667   0.316  0.00  0.00    +0.149 C 
BRANCH  24  33
ATOM     25  C   UNL     1      -4.662   1.000   2.110  0.00  0.00    +0.004 A 
ATOM     26  C   UNL     1      -3.861   1.192   3.221  0.00  0.00    +0.004 A 
ATOM     27  C   UNL     1      -2.498   1.359   3.072  0.00  0.00    +0.049 A 
ATOM     28  C   UNL     1      -1.928   1.334   1.808  0.00  0.00    +0.163 A 
ATOM     29  C   UNL     1      -2.732   1.139   0.691  0.00  0.00    +0.162 A 
ATOM     30  C   UNL     1      -4.100   0.973   0.847  0.00  0.00    +0.049 A 
ATOM     31  O   UNL     1      -2.193   1.107  -0.558  0.00  0.00    -0.485 OA
ATOM     32  C   UNL     1      -0.875   1.647  -0.705  0.00  0.00    +0.275 C 
ATOM     33  C   UNL     1      -0.003   1.099   0.433  0.00  0.00    +0.228 C 
ATOM     34  O   UNL     1      -0.583   1.504   1.678  0.00  0.00    -0.480 OA
ENDBRANCH  24  33
ENDBRANCH  22  24
ENDBRANCH   1  22
TORSDOF 7
