REMARK  Name = ZINC16185092
REMARK  4 active torsions:
REMARK  status: ('A' for Active; 'I' for Inactive)
REMARK    1  A    between atoms: C_1  and  C_2
REMARK    2  A    between atoms: C_2  and  O_3
REMARK    3  A    between atoms: O_3  and  C_4
REMARK    4  A    between atoms: C_17  and  C_20
REMARK                            x       y       z     vdW  Elec       q    Type
REMARK                         _______ _______ _______ _____ _____    ______ ____
ROOT
ATOM      1  C   UNL     1      -0.016   1.344   0.009  0.00  0.00    +0.403 C 
ATOM      2  O   UNL     1      -1.077   1.937   0.018  0.00  0.00    -0.226 OA
ATOM      3  N   UNL     1       0.002  -0.004   0.002  0.00  0.00    -0.262 N 
ATOM      4  C   UNL     1      -1.244  -0.785   0.010  0.00  0.00    +0.116 C 
ATOM      5  C   UNL     1      -1.360  -1.578  -1.293  0.00  0.00    +0.056 C 
ATOM      6  C   UNL     1      -0.042  -2.293  -1.564  0.00  0.00    -0.020 A 
ATOM      7  C   UNL     1       1.107  -1.890  -0.976  0.00  0.00    +0.013 A 
ATOM      8  S   UNL     1       2.350  -2.997  -1.585  0.00  0.00    -0.076 S 
ATOM      9  C   UNL     1       1.369  -3.974  -2.592  0.00  0.00    +0.080 A 
ATOM     10  C   UNL     1       0.080  -3.435  -2.458  0.00  0.00    +0.068 A 
ATOM     11  C   UNL     1      -1.010  -4.070  -3.233  0.00  0.00    +0.248 C 
ATOM     12  O   UNL     1      -2.114  -3.564  -3.308  0.00  0.00    -0.270 OA
ATOM     13  N   UNL     1      -0.727  -5.235  -3.855  0.00  0.00    -0.289 N 
ATOM     14  C   UNL     1       0.521  -5.968  -3.670  0.00  0.00    +0.191 C 
ATOM     15  N   UNL     1       1.643  -5.054  -3.389  0.00  0.00    -0.316 N 
ATOM     16  C   UNL     1       1.274  -0.753  -0.020  0.00  0.00    +0.153 C 
ATOM     17  H   UNL     1      -1.391  -5.606  -4.457  0.00  0.00    +0.151 HD
ATOM     18  H   UNL     1       2.530  -5.210  -3.749  0.00  0.00    +0.149 HD
ENDROOT
BRANCH  14  19
ATOM     19  C   UNL     1       0.364  -6.926  -2.518  0.00  0.00    +0.009 A 
ATOM     20  C   UNL     1       1.437  -7.190  -1.688  0.00  0.00    +0.010 A 
ATOM     21  C   UNL     1       1.293  -8.065  -0.627  0.00  0.00    +0.020 A 
ATOM     22  C   UNL     1       0.076  -8.685  -0.402  0.00  0.00    +0.042 A 
ATOM     23  C   UNL     1      -0.996  -8.425  -1.235  0.00  0.00    +0.040 A 
ATOM     24  C   UNL     1      -0.853  -7.545  -2.293  0.00  0.00    +0.049 A 
ATOM     25 CL   UNL     1      -2.199  -7.220  -3.340  0.00  0.00    -0.083 Cl
ATOM     26 CL   UNL     1      -0.103  -9.788   0.926  0.00  0.00    -0.083 Cl
ENDBRANCH  14  19
BRANCH   1  27
ATOM     27  O   UNL     1       1.141   2.033   0.002  0.00  0.00    -0.451 OA
BRANCH  27  29
ATOM     28  C   UNL     1       2.451   4.085   0.001  0.00  0.00    +0.048 C 
ATOM     29  C   UNL     1       1.045   3.481   0.011  0.00  0.00    +0.230 C 
ENDBRANCH  27  29
ENDBRANCH   1  27
TORSDOF 3
