REMARK  Name = ZINC36182560
REMARK  3 active torsions:
REMARK  status: ('A' for Active; 'I' for Inactive)
REMARK    1  A    between atoms: C_1  and  C_2
REMARK    2  A    between atoms: C_2  and  C_4
REMARK    3  A    between atoms: C_4  and  C_6
REMARK                            x       y       z     vdW  Elec       q    Type
REMARK                         _______ _______ _______ _____ _____    ______ ____
ROOT
ATOM      1  C   UNL     1       2.190  -0.630   1.317  0.00  0.00    +0.041 A 
ATOM      2  C   UNL     1       3.001  -0.238   0.244  0.00  0.00    +0.062 A 
ATOM      3  C   UNL     1       4.373  -0.358   0.338  0.00  0.00    +0.163 A 
ATOM      4  C   UNL     1       4.952  -0.868   1.499  0.00  0.00    +0.163 A 
ATOM      5  C   UNL     1       4.149  -1.260   2.564  0.00  0.00    +0.070 A 
ATOM      6  C   UNL     1       2.778  -1.139   2.482  0.00  0.00    +0.055 A 
ATOM      7 CL   UNL     1       1.782  -1.624   3.819  0.00  0.00    -0.083 Cl
ATOM      8  O   UNL     1       6.302  -0.984   1.609  0.00  0.00    -0.485 OA
ATOM      9  C   UNL     1       7.053  -0.935   0.391  0.00  0.00    +0.270 C 
ATOM     10  C   UNL     1       6.537   0.242  -0.446  0.00  0.00    +0.270 C 
ATOM     11  O   UNL     1       5.147   0.025  -0.715  0.00  0.00    -0.485 OA
ENDROOT
BRANCH   1  12
ATOM     12  C   UNL     1       0.731  -0.503   1.223  0.00  0.00    +0.182 C 
ATOM     13  O   UNL     1       0.206   0.580   1.369  0.00  0.00    -0.290 OA
BRANCH  12  15
ATOM     14  C   UNL     1      -0.252  -1.909  -0.568  0.00  0.00    +0.033 C 
ATOM     15  C   UNL     1      -0.115  -1.719   0.944  0.00  0.00    +0.148 C 
ATOM     16 CL   UNL     1       0.669  -3.174   1.664  0.00  0.00    -0.114 Cl
ENDBRANCH  12  15
ENDBRANCH   1  12
TORSDOF 2
