REMARK  Name = ZINC09849686
REMARK  7 active torsions:
REMARK  status: ('A' for Active; 'I' for Inactive)
REMARK    1  A    between atoms: C_1  and  C_2
REMARK    2  A    between atoms: C_5  and  C_8
REMARK    3  A    between atoms: C_19  and  S_24
REMARK    4  A    between atoms: S_24  and  N_27
REMARK    5  A    between atoms: N_27  and  C_28
REMARK    6  A    between atoms: C_31  and  C_35
REMARK    7  A    between atoms: C_33  and  C_34
REMARK                            x       y       z     vdW  Elec       q    Type
REMARK                         _______ _______ _______ _____ _____    ______ ____
ROOT
ATOM      1  C   UNL     1      -0.446  -4.654   6.154  0.00  0.00    +0.105 C 
ATOM      2  C   UNL     1      -1.816  -3.973   6.213  0.00  0.00    +0.029 C 
ATOM      3  C   UNL     1      -2.449  -4.321   7.593  0.00  0.00    +0.033 C 
ATOM      4  C   UNL     1      -1.817  -3.314   8.534  0.00  0.00    -0.030 C 
ATOM      5  C   UNL     1      -1.372  -2.277   7.866  0.00  0.00    -0.023 C 
ATOM      6  C   UNL     1      -1.640  -2.452   6.390  0.00  0.00    +0.049 C 
ATOM      7  C   UNL     1      -0.527  -1.893   5.562  0.00  0.00    -0.018 A 
ATOM      8  C   UNL     1      -0.415  -0.514   5.441  0.00  0.00    +0.034 A 
ATOM      9  C   UNL     1       0.592   0.043   4.679  0.00  0.00    +0.109 A 
ATOM     10  C   UNL     1       1.510  -0.767   4.035  0.00  0.00    +0.030 A 
ATOM     11  C   UNL     1       1.413  -2.139   4.154  0.00  0.00    +0.025 A 
ATOM     12  C   UNL     1       0.397  -2.701   4.918  0.00  0.00    +0.031 A 
ATOM     13  N   UNL     1       0.315  -4.093   5.033  0.00  0.00    -0.336 N 
ATOM     14  H   UNL     1       0.749  -4.672   4.387  0.00  0.00    +0.147 HD
ENDROOT
BRANCH   1  19
ATOM     15  C   UNL     1       2.403  -3.705  11.091  0.00  0.00    +0.044 C 
ATOM     16  C   UNL     1       1.660  -3.952   9.804  0.00  0.00    -0.050 A 
ATOM     17  C   UNL     1       0.862  -5.073   9.671  0.00  0.00    +0.004 A 
ATOM     18  C   UNL     1       0.181  -5.300   8.490  0.00  0.00    +0.006 A 
ATOM     19  C   UNL     1       0.297  -4.406   7.442  0.00  0.00    -0.027 A 
ATOM     20  C   UNL     1       1.099  -3.288   7.573  0.00  0.00    +0.006 A 
ATOM     21  C   UNL     1       1.776  -3.058   8.756  0.00  0.00    +0.004 A 
ENDBRANCH   1  19
BRANCH   9  22
ATOM     22  S   UNL     1       0.714   1.794   4.532  0.00  0.00    +0.072 S 
ATOM     23  O   UNL     1       2.068   2.082   4.215  0.00  0.00    -0.150 OA
ATOM     24  O   UNL     1       0.065   2.343   5.671  0.00  0.00    -0.150 OA
BRANCH  22  25
ATOM     25  N   UNL     1      -0.186   2.239   3.215  0.00  0.00    -0.216 N 
ATOM     26  H   UNL     1       0.237   2.695   2.471  0.00  0.00    +0.174 HD
BRANCH  25  27
ATOM     27  C   UNL     1      -1.553   1.957   3.175  0.00  0.00    +0.051 A 
ATOM     28  C   UNL     1      -2.311   2.017   4.339  0.00  0.00    +0.025 A 
ATOM     29  C   UNL     1      -3.662   1.738   4.296  0.00  0.00    +0.005 A 
ATOM     30  C   UNL     1      -4.262   1.399   3.097  0.00  0.00    -0.050 A 
ATOM     31  C   UNL     1      -3.513   1.343   1.936  0.00  0.00    +0.008 A 
ATOM     32  C   UNL     1      -2.159   1.616   1.973  0.00  0.00    -0.028 A 
ATOM     33  C   UNL     1      -1.342   1.549   0.709  0.00  0.00    +0.046 C 
ATOM     34  C   UNL     1      -5.738   1.096   3.054  0.00  0.00    +0.044 C 
ENDBRANCH  25  27
ENDBRANCH  22  25
ENDBRANCH   9  22
TORSDOF 4
