REMARK  Name = ZINC16741828
REMARK  4 active torsions:
REMARK  status: ('A' for Active; 'I' for Inactive)
REMARK    1  A    between atoms: C_3  and  O_31
REMARK    2  A    between atoms: C_6  and  C_7
REMARK    3  A    between atoms: N_22  and  C_23
REMARK    4  A    between atoms: C_23  and  C_24
REMARK                            x       y       z     vdW  Elec       q    Type
REMARK                         _______ _______ _______ _____ _____    ______ ____
ROOT
ATOM      1  C   UNL     1      -3.967  -0.225   0.039  0.00  0.00    +0.145 C 
ATOM      2  C   UNL     1      -2.499   0.112   0.027  0.00  0.00    +0.072 A 
ATOM      3  C   UNL     1      -1.290  -0.717   0.011  0.00  0.00    +0.199 A 
ATOM      4  O   UNL     1      -1.349  -1.934   0.004  0.00  0.00    -0.287 OA
ATOM      5  C   UNL     1       0.002  -0.004   0.002  0.00  0.00    +0.066 A 
ATOM      6  C   UNL     1       1.213  -0.695  -0.013  0.00  0.00    +0.035 A 
ATOM      7  C   UNL     1       2.397   0.011  -0.020  0.00  0.00    +0.042 A 
ATOM      8  C   UNL     1       2.382   1.400  -0.013  0.00  0.00    +0.023 A 
ATOM      9  C   UNL     1       1.191   2.093   0.002  0.00  0.00    +0.048 A 
ATOM     10  C   UNL     1      -0.017   1.401   0.010  0.00  0.00    +0.140 A 
ATOM     11  O   UNL     1      -1.186   2.067   0.030  0.00  0.00    -0.450 OA
ATOM     12  C   UNL     1      -2.390   1.463   0.033  0.00  0.00    +0.199 A 
ATOM     13  C   UNL     1      -3.758   2.041   0.050  0.00  0.00    +0.283 C 
ATOM     14  O   UNL     1      -4.009   3.229   0.059  0.00  0.00    -0.267 OA
ATOM     15  N   UNL     1      -4.677   1.060   0.053  0.00  0.00    -0.281 N 
ATOM     16 CL   UNL     1       3.911  -0.838  -0.038  0.00  0.00    -0.084 Cl
ENDROOT
BRANCH   1  22
ATOM     17  C   UNL     1      -4.454  -0.376   2.490  0.00  0.00    +0.009 A 
ATOM     18  C   UNL     1      -4.771  -1.101   3.622  0.00  0.00    +0.046 A 
ATOM     19  C   UNL     1      -4.931  -2.477   3.541  0.00  0.00    +0.117 A 
ATOM     20  C   UNL     1      -4.778  -3.120   2.322  0.00  0.00    +0.046 A 
ATOM     21  C   UNL     1      -4.467  -2.390   1.191  0.00  0.00    +0.009 A 
ATOM     22  C   UNL     1      -4.307  -1.019   1.274  0.00  0.00    -0.022 A 
BRANCH  19  23
ATOM     23  O   UNL     1      -5.237  -3.193   4.655  0.00  0.00    -0.507 OA
ATOM     24  H   UNL     1      -4.464  -3.510   5.143  0.00  0.00    +0.292 HD
ENDBRANCH  19  23
ENDBRANCH   1  22
BRANCH  15  25
ATOM     25  C   UNL     1      -6.130   1.242   0.069  0.00  0.00    +0.140 C 
BRANCH  25  26
ATOM     26  C   UNL     1      -6.651   1.312  -1.368  0.00  0.00    +0.136 C 
ATOM     27  C   UNL     1      -8.164   1.618  -1.363  0.00  0.00    +0.035 C 
ATOM     28  C   UNL     1      -8.687   0.719  -2.516  0.00  0.00    +0.031 C 
ATOM     29  C   UNL     1      -7.741  -0.502  -2.388  0.00  0.00    +0.160 C 
ATOM     30  O   UNL     1      -6.468   0.047  -2.014  0.00  0.00    -0.375 OA
ENDBRANCH  25  26
ENDBRANCH  15  25
TORSDOF 4
