REMARK  Name = ZINC12943310
REMARK  10 active torsions:
REMARK  status: ('A' for Active; 'I' for Inactive)
REMARK    1  A    between atoms: C_1  and  C_2
REMARK    2  A    between atoms: C_2  and  C_3
REMARK    3  A    between atoms: C_5  and  C_27
REMARK    4  A    between atoms: C_6  and  C_11
REMARK    5  A    between atoms: C_11  and  O_12
REMARK    6  A    between atoms: O_12  and  C_13
REMARK    7  A    between atoms: C_13  and  C_15
REMARK    8  A    between atoms: C_27  and  O_29
REMARK    9  A    between atoms: O_29  and  C_30
REMARK   10  A    between atoms: C_30  and  C_31
REMARK                            x       y       z     vdW  Elec       q    Type
REMARK                         _______ _______ _______ _____ _____    ______ ____
ROOT
ATOM      1  C   UNL     1       4.025   8.954  -3.109  0.00  0.00    +0.113 C 
ATOM      2  C   UNL     1       4.147   7.838  -2.092  0.00  0.00    +0.077 C 
ATOM      3  C   UNL     1       4.281   6.577  -2.555  0.00  0.00    +0.061 C 
ATOM      4  N   UNL     1       4.309   6.318  -3.895  0.00  0.00    -0.269 N 
ATOM      5  C   UNL     1       4.200   7.263  -4.837  0.00  0.00    +0.304 C 
ATOM      6  O   UNL     1       4.231   6.935  -6.007  0.00  0.00    -0.252 OA
ATOM      7  N   UNL     1       4.061   8.568  -4.530  0.00  0.00    -0.292 N 
ATOM      8  H   UNL     1       4.411   5.396  -4.181  0.00  0.00    +0.156 HD
ATOM      9  H   UNL     1       3.988   9.238  -5.228  0.00  0.00    +0.151 HD
ENDROOT
BRANCH   1  11
ATOM     10  C   UNL     1       2.602  10.895  -3.782  0.00  0.00    +0.006 C 
ATOM     11  C   UNL     1       2.704   9.683  -2.853  0.00  0.00    +0.024 C 
ENDBRANCH   1  11
BRANCH   2  12
ATOM     12  C   UNL     1       4.123   8.109  -0.703  0.00  0.00    +0.339 C 
ATOM     13  O   UNL     1       4.147   7.191   0.096  0.00  0.00    -0.245 OA
BRANCH  12  14
ATOM     14  O   UNL     1       4.074   9.384  -0.265  0.00  0.00    -0.462 OA
BRANCH  14  15
ATOM     15  C   UNL     1       4.053   9.584   1.150  0.00  0.00    +0.229 C 
ATOM     16  C   UNL     1       3.998  11.082   1.452  0.00  0.00    +0.048 C 
ENDBRANCH  14  15
ENDBRANCH  12  14
ENDBRANCH   2  12
BRANCH   3  17
ATOM     17  C   UNL     1       4.407   5.437  -1.577  0.00  0.00    +0.283 C 
BRANCH  17  18
ATOM     18  O   UNL     1       4.675   4.207  -2.299  0.00  0.00    -0.456 OA
BRANCH  18  19
ATOM     19  C   UNL     1       4.815   3.089  -1.569  0.00  0.00    +0.349 C 
ATOM     20  O   UNL     1       4.717   3.138  -0.365  0.00  0.00    -0.247 OA
BRANCH  19  21
ATOM     21  C   UNL     1       5.096   1.774  -2.249  0.00  0.00    +0.289 C 
ATOM     22  C   UNL     1       3.897   1.381  -3.114  0.00  0.00    +0.092 C 
ATOM     23  C   UNL     1       4.049  -0.035  -3.604  0.00  0.00    -0.029 A 
ATOM     24  C   UNL     1       3.350  -0.457  -4.718  0.00  0.00    +0.004 A 
ATOM     25  C   UNL     1       3.484  -1.757  -5.170  0.00  0.00    +0.000 A 
ATOM     26  C   UNL     1       4.316  -2.647  -4.513  0.00  0.00    +0.001 A 
ATOM     27  C   UNL     1       5.022  -2.239  -3.399  0.00  0.00    +0.015 A 
ATOM     28  C   UNL     1       4.895  -0.927  -2.945  0.00  0.00    +0.062 A 
ATOM     29  C   UNL     1       5.643  -0.474  -1.749  0.00  0.00    +0.340 C 
ATOM     30  O   UNL     1       6.510  -1.160  -1.246  0.00  0.00    -0.245 OA
ATOM     31  O   UNL     1       5.322   0.745  -1.243  0.00  0.00    -0.446 OA
ENDBRANCH  19  21
ENDBRANCH  18  19
ENDBRANCH  17  18
ENDBRANCH   3  17
TORSDOF 8
