REMARK  Name = ZINC05296942
REMARK  5 active torsions:
REMARK  status: ('A' for Active; 'I' for Inactive)
REMARK    1  A    between atoms: C_1  and  C_2
REMARK    2  A    between atoms: C_2  and  C_10
REMARK    3  A    between atoms: C_3  and  C_4
REMARK    4  A    between atoms: N_11  and  N_12
REMARK    5  A    between atoms: C_13  and  C_15
REMARK                            x       y       z     vdW  Elec       q    Type
REMARK                         _______ _______ _______ _____ _____    ______ ____
ROOT
ATOM      1  N   UNL     1       0.063   0.839  -0.118  0.00  0.00    -0.202 N 
ATOM      2  C   UNL     1       1.244   1.488  -0.139  0.00  0.00    +0.284 C 
ATOM      3  O   UNL     1       1.271   2.704  -0.113  0.00  0.00    -0.267 OA
ATOM      4  H   UNL     1       0.041  -0.130  -0.139  0.00  0.00    +0.178 HD
ENDROOT
BRANCH   2   5
ATOM      5  C   UNL     1       2.506   0.723  -0.194  0.00  0.00    +0.152 A 
ATOM      6  C   UNL     1       3.797   1.252  -0.221  0.00  0.00    +0.010 A 
ATOM      7  C   UNL     1       4.643   0.168  -0.259  0.00  0.00    +0.070 A 
ATOM      8  N   UNL     1       3.871  -0.936  -0.271  0.00  0.00    -0.276 N 
ATOM      9  H   UNL     1       4.210  -1.876  -0.311  0.00  0.00    +0.189 HD
ATOM     10  N   UNL     1       2.626  -0.596  -0.221  0.00  0.00    -0.168 NA
ATOM     11  C   UNL     1       6.106   0.362  -0.273  0.00  0.00    +0.003 A 
ATOM     12  C   UNL     1       6.980  -0.659  -0.623  0.00  0.00    +0.010 A 
ATOM     13  C   UNL     1       8.335  -0.401  -0.700  0.00  0.00    +0.001 A 
ATOM     14  C   UNL     1       8.811   0.870  -0.427  0.00  0.00    +0.000 A 
ATOM     15  C   UNL     1       7.945   1.883  -0.060  0.00  0.00    +0.004 A 
ATOM     16  C   UNL     1       6.588   1.639   0.034  0.00  0.00    -0.038 A 
ATOM     17  C   UNL     1       5.657   2.737   0.469  0.00  0.00    +0.040 C 
ATOM     18  C   UNL     1       4.299   2.667  -0.230  0.00  0.00    +0.044 C 
ENDBRANCH   2   5
BRANCH   1  20
ATOM     19  C   UNL     1      -2.276   0.939  -0.057  0.00  0.00    +0.133 C 
ATOM     20  N   UNL     1      -1.135   1.565  -0.072  0.00  0.00    -0.188 NA
BRANCH  19  22
ATOM     21  C   UNL     1      -3.455   3.180   0.022  0.00  0.00    +0.045 C 
ATOM     22  C   UNL     1      -3.488   1.674  -0.010  0.00  0.00    -0.030 C 
ATOM     23  C   UNL     1      -4.670   1.024   0.005  0.00  0.00    +0.012 C 
BRANCH  23  24
ATOM     24  C   UNL     1      -5.927   1.781  -0.115  0.00  0.00    -0.025 A 
ATOM     25  C   UNL     1      -7.080   1.337   0.539  0.00  0.00    +0.008 A 
ATOM     26  C   UNL     1      -8.252   2.055   0.426  0.00  0.00    +0.001 A 
ATOM     27  C   UNL     1      -8.292   3.205  -0.343  0.00  0.00    +0.000 A 
ATOM     28  C   UNL     1      -7.156   3.648  -0.998  0.00  0.00    +0.001 A 
ATOM     29  C   UNL     1      -5.975   2.945  -0.889  0.00  0.00    +0.008 A 
ENDBRANCH  23  24
ENDBRANCH  19  22
ENDBRANCH   1  20
TORSDOF 4
