REMARK  Name = ZINC38966556
REMARK  8 active torsions:
REMARK  status: ('A' for Active; 'I' for Inactive)
REMARK    1  A    between atoms: C_4  and  C_7
REMARK    2  A    between atoms: C_7  and  O_8
REMARK    3  A    between atoms: O_8  and  C_9
REMARK    4  A    between atoms: C_13  and  C_15
REMARK    5  A    between atoms: N_16  and  N_17
REMARK    6  A    between atoms: C_18  and  C_25
REMARK    7  A    between atoms: C_22  and  S_24
REMARK    8  A    between atoms: C_28  and  C_31
REMARK                            x       y       z     vdW  Elec       q    Type
REMARK                         _______ _______ _______ _____ _____    ______ ____
ROOT
ATOM      1  N   UNL     1       9.065  -3.840   5.685  0.00  0.00    -0.207 N 
ATOM      2  C   UNL     1      10.310  -4.548   6.029  0.00  0.00    +0.206 C 
ATOM      3  N   UNL     1      10.314  -4.706   7.501  0.00  0.00    -0.231 NA
ATOM      4  N   UNL     1       8.894  -4.627   7.881  0.00  0.00    -0.225 NA
ATOM      5  C   UNL     1       8.361  -3.587   6.959  0.00  0.00    +0.231 C 
ATOM      6  H   UNL     1      10.847  -3.971   7.942  0.00  0.00    +0.143 HD
ATOM      7  H   UNL     1       8.432  -5.513   7.738  0.00  0.00    +0.143 HD
ENDROOT
BRANCH   2   8
ATOM      8  C   UNL     1      11.521  -3.726   5.585  0.00  0.00    +0.190 C 
ATOM      9  C   UNL     1      12.811  -4.473   5.873  0.00  0.00    +0.034 C 
ATOM     10  C   UNL     1      13.462  -3.671   6.738  0.00  0.00    +0.091 C 
ATOM     11  N   UNL     1      12.729  -2.556   6.995  0.00  0.00    -0.154 NA
ATOM     12  N   UNL     1      11.647  -2.505   6.399  0.00  0.00    -0.176 NA
BRANCH  10  13
ATOM     13  C   UNL     1      14.792  -3.963   7.327  0.00  0.00    +0.002 A 
ATOM     14  C   UNL     1      15.463  -5.138   6.991  0.00  0.00    +0.010 A 
ATOM     15  C   UNL     1      16.700  -5.405   7.541  0.00  0.00    +0.001 A 
ATOM     16  C   UNL     1      17.274  -4.509   8.425  0.00  0.00    +0.000 A 
ATOM     17  C   UNL     1      16.613  -3.342   8.762  0.00  0.00    +0.001 A 
ATOM     18  C   UNL     1      15.378  -3.062   8.214  0.00  0.00    +0.010 A 
ENDBRANCH  10  13
ENDBRANCH   2   8
BRANCH   1  20
ATOM     19  C   UNL     1       9.307  -3.853   3.360  0.00  0.00    +0.138 C 
ATOM     20  N   UNL     1       8.635  -3.472   4.403  0.00  0.00    -0.188 NA
BRANCH  19  25
ATOM     21  C   UNL     1       9.288  -3.310  -0.357  0.00  0.00    +0.122 A 
ATOM     22  C   UNL     1       8.211  -2.445  -0.495  0.00  0.00    +0.046 A 
ATOM     23  C   UNL     1       7.495  -2.040   0.617  0.00  0.00    +0.004 A 
ATOM     24  C   UNL     1       7.846  -2.494   1.871  0.00  0.00    +0.010 A 
ATOM     25  C   UNL     1       8.928  -3.365   2.020  0.00  0.00    -0.002 A 
ATOM     26  C   UNL     1       9.646  -3.777   0.896  0.00  0.00    +0.055 A 
BRANCH  21  27
ATOM     27  O   UNL     1       9.987  -3.704  -1.454  0.00  0.00    -0.487 OA
BRANCH  27  28
ATOM     28  C   UNL     1       9.563  -3.184  -2.715  0.00  0.00    +0.264 C 
BRANCH  28  32
ATOM     29  C   UNL     1      12.075  -4.721  -5.810  0.00  0.00    +0.000 A 
ATOM     30  C   UNL     1      10.930  -5.405  -5.445  0.00  0.00    +0.000 A 
ATOM     31  C   UNL     1      10.118  -4.908  -4.443  0.00  0.00    +0.007 A 
ATOM     32  C   UNL     1      10.450  -3.727  -3.806  0.00  0.00    -0.010 A 
ATOM     33  C   UNL     1      11.594  -3.043  -4.171  0.00  0.00    +0.007 A 
ATOM     34  C   UNL     1      12.406  -3.540  -5.173  0.00  0.00    +0.000 A 
ENDBRANCH  28  32
ENDBRANCH  27  28
ENDBRANCH  21  27
ENDBRANCH  19  25
ENDBRANCH   1  20
BRANCH   5  35
ATOM     35  S   UNL     1       6.571  -3.786   6.746  0.00  0.00    -0.138 S 
ATOM     36  H   UNL     1       6.067  -3.530   7.966  0.00  0.00    +0.105 HD
ENDBRANCH   5  35
TORSDOF 8
