REMARK  Name = ZINC59852255
REMARK  7 active torsions:
REMARK  status: ('A' for Active; 'I' for Inactive)
REMARK    1  A    between atoms: C_1  and  C_2
REMARK    2  A    between atoms: C_2  and  C_3
REMARK    3  A    between atoms: N_11  and  C_15
REMARK    4  A    between atoms: C_15  and  C_16
REMARK    5  A    between atoms: N_18  and  C_19
REMARK    6  A    between atoms: C_19  and  C_21
REMARK    7  A    between atoms: C_19  and  C_31
REMARK                            x       y       z     vdW  Elec       q    Type
REMARK                         _______ _______ _______ _____ _____    ______ ____
ROOT
ATOM      1  C   UNL     1      -2.610  -3.550  -6.148  0.00  0.00    +0.231 C 
ATOM      2  O   UNL     1      -2.350  -2.391  -6.394  0.00  0.00    -0.274 OA
ATOM      3  N   UNL     1      -3.721  -4.115  -6.659  0.00  0.00    -0.307 N 
ATOM      4  H   UNL     1      -3.929  -5.042  -6.462  0.00  0.00    +0.149 HD
ENDROOT
BRANCH   1   5
ATOM      5  C   UNL     1      -1.689  -4.357  -5.270  0.00  0.00    +0.213 C 
BRANCH   5  14
ATOM      6  C   UNL     1       0.718  -0.497  -1.257  0.00  0.00    -0.011 C 
ATOM      7  C   UNL     1      -0.089  -0.096  -2.493  0.00  0.00    +0.006 C 
ATOM      8  C   UNL     1       0.635  -0.580  -3.752  0.00  0.00    +0.035 C 
ATOM      9  C   UNL     1       0.795  -2.095  -3.700  0.00  0.00    +0.113 C 
ATOM     10  C   UNL     1       1.577  -2.512  -2.459  0.00  0.00    +0.035 C 
ATOM     11  C   UNL     1       0.849  -2.021  -1.205  0.00  0.00    +0.006 C 
ATOM     12  C   UNL     1      -0.556  -2.771  -3.725  0.00  0.00    +0.247 C 
ATOM     13  O   UNL     1      -1.447  -2.660  -2.910  0.00  0.00    -0.273 OA
ATOM     14  N   UNL     1      -0.562  -3.523  -4.845  0.00  0.00    -0.215 N 
ATOM     15  C   UNL     1       0.589  -3.413  -5.519  0.00  0.00    +0.310 C 
ATOM     16  O   UNL     1       0.821  -3.996  -6.559  0.00  0.00    -0.252 OA
ATOM     17  N   UNL     1       1.461  -2.583  -4.914  0.00  0.00    -0.285 N 
ATOM     18  H   UNL     1       2.352  -2.354  -5.221  0.00  0.00    +0.151 HD
BRANCH   6  20
ATOM     19  C   UNL     1      -0.019   1.526   0.010  0.00  0.00    +0.004 C 
ATOM     20  C   UNL     1       0.002  -0.004   0.002  0.00  0.00    -0.000 C 
ENDBRANCH   6  20
ENDBRANCH   5  14
ENDBRANCH   1   5
BRANCH   3  21
ATOM     21  C   UNL     1      -4.616  -3.329  -7.512  0.00  0.00    +0.106 C 
BRANCH  21  22
ATOM     22  C   UNL     1      -6.005  -3.910  -7.452  0.00  0.00    -0.023 A 
ATOM     23  C   UNL     1      -6.180  -5.281  -7.434  0.00  0.00    +0.009 A 
ATOM     24  C   UNL     1      -7.453  -5.817  -7.380  0.00  0.00    +0.050 A 
ATOM     25  C   UNL     1      -8.558  -4.980  -7.343  0.00  0.00    +0.162 A 
ATOM     26  C   UNL     1      -8.383  -3.602  -7.358  0.00  0.00    +0.162 A 
ATOM     27  C   UNL     1      -7.102  -3.070  -7.408  0.00  0.00    +0.055 A 
ATOM     28  O   UNL     1      -9.453  -2.762  -7.315  0.00  0.00    -0.485 OA
ATOM     29  C   UNL     1     -10.728  -3.329  -7.635  0.00  0.00    +0.270 C 
ATOM     30  C   UNL     1     -10.868  -4.657  -6.879  0.00  0.00    +0.270 C 
ATOM     31  O   UNL     1      -9.806  -5.522  -7.294  0.00  0.00    -0.485 OA
ENDBRANCH  21  22
BRANCH  21  32
ATOM     32  C   UNL     1      -4.109  -3.369  -8.956  0.00  0.00    +0.014 C 
ATOM     33  C   UNL     1      -2.961  -4.328  -9.275  0.00  0.00    +0.006 C 
ATOM     34  C   UNL     1      -2.707  -2.820  -9.227  0.00  0.00    +0.006 C 
ENDBRANCH  21  32
ENDBRANCH   3  21
TORSDOF 6
