REMARK  Name = ZINC12162687
REMARK  8 active torsions:
REMARK  status: ('A' for Active; 'I' for Inactive)
REMARK    1  A    between atoms: C_1  and  O_2
REMARK    2  A    between atoms: O_2  and  C_3
REMARK    3  A    between atoms: C_5  and  C_11
REMARK    4  A    between atoms: C_7  and  O_9
REMARK    5  A    between atoms: O_9  and  C_10
REMARK    6  A    between atoms: C_11  and  N_53
REMARK    7  A    between atoms: C_18  and  C_22
REMARK    8  A    between atoms: C_20  and  O_21
REMARK                            x       y       z     vdW  Elec       q    Type
REMARK                         _______ _______ _______ _____ _____    ______ ____
ROOT
ATOM      1  C   UNL     1      -1.821   0.697   1.593  0.00  0.00    -0.036 C 
ATOM      2  C   UNL     1      -2.981   0.737   0.622  0.00  0.00    +0.211 C 
ATOM      3  O   UNL     1      -2.596   0.206  -0.652  0.00  0.00    -0.490 OA
ATOM      4  C   UNL     1      -2.009   1.094  -1.501  0.00  0.00    +0.163 A 
ATOM      5  C   UNL     1      -0.752   1.591  -1.216  0.00  0.00    -0.018 A 
ATOM      6  C   UNL     1      -0.168   2.533  -2.035  0.00  0.00    +0.014 A 
ATOM      7  C   UNL     1      -0.847   2.979  -3.169  0.00  0.00    -0.013 A 
ATOM      8  C   UNL     1      -2.108   2.468  -3.469  0.00  0.00    +0.057 A 
ATOM      9  C   UNL     1      -2.690   1.527  -2.637  0.00  0.00    +0.159 A 
ATOM     10  C   UNL     1      -0.013   1.086   0.008  0.00  0.00    -0.039 C 
ATOM     11  N   UNL     1      -0.714   1.601   1.207  0.00  0.00    +0.387 N 
ATOM     12  H   UNL     1      -1.104   2.525   0.989  0.00  0.00    -0.081 HD
ENDROOT
BRANCH   7  13
ATOM     13  C   UNL     1      -0.227   3.994  -4.056  0.00  0.00    +0.000 A 
ATOM     14  C   UNL     1      -0.899   4.448  -5.195  0.00  0.00    +0.011 A 
ATOM     15  C   UNL     1      -0.278   5.396  -5.989  0.00  0.00    +0.020 A 
ATOM     16  C   UNL     1       0.976   5.861  -5.633  0.00  0.00    +0.111 A 
ATOM     17  N   UNL     1       1.585   5.414  -4.552  0.00  0.00    -0.263 NA
ATOM     18  C   UNL     1       1.031   4.516  -3.763  0.00  0.00    +0.119 A 
ENDBRANCH   7  13
BRANCH   9  19
ATOM     19  O   UNL     1      -3.920   1.026  -2.927  0.00  0.00    -0.503 OA
ATOM     20  H   UNL     1      -3.902   0.234  -3.482  0.00  0.00    +0.292 HD
ENDBRANCH   9  19
BRANCH  11  21
ATOM     21  C   UNL     1       0.237   1.737   2.325  0.00  0.00    -0.042 C 
BRANCH  21  24
ATOM     22  C   UNL     1      -1.749   2.384   5.476  0.00  0.00    +0.124 A 
ATOM     23  C   UNL     1      -1.112   1.727   4.432  0.00  0.00    +0.047 A 
ATOM     24  C   UNL     1      -0.453   2.453   3.458  0.00  0.00    -0.057 A 
ATOM     25  C   UNL     1      -0.422   3.833   3.523  0.00  0.00    +0.047 A 
ATOM     26  C   UNL     1      -1.061   4.494   4.562  0.00  0.00    +0.124 A 
ATOM     27  C   UNL     1      -1.723   3.768   5.541  0.00  0.00    +0.091 A 
BRANCH  22  29
ATOM     28  C   UNL     1      -3.030   2.411   7.478  0.00  0.00    +0.277 C 
ATOM     29  O   UNL     1      -2.397   1.670   6.433  0.00  0.00    -0.495 OA
ENDBRANCH  22  29
BRANCH  26  30
ATOM     30  O   UNL     1      -1.035   5.851   4.623  0.00  0.00    -0.495 OA
ATOM     31  C   UNL     1      -1.710   6.465   5.723  0.00  0.00    +0.277 C 
ENDBRANCH  26  30
ENDBRANCH  21  24
ENDBRANCH  11  21
TORSDOF 6
