REMARK  Name = ZINC40041785
REMARK  5 active torsions:
REMARK  status: ('A' for Active; 'I' for Inactive)
REMARK    1  A    between atoms: C_1  and  C_2
REMARK    2  A    between atoms: C_2  and  C_3
REMARK    3  A    between atoms: N_16  and  C_26
REMARK    4  A    between atoms: C_17  and  C_19
REMARK    5  A    between atoms: C_26  and  C_27
REMARK                            x       y       z     vdW  Elec       q    Type
REMARK                         _______ _______ _______ _____ _____    ______ ____
ROOT
ATOM      1  C   UNL     1       0.707  -0.490  -1.238  0.00  0.00    -0.047 A 
ATOM      2  C   UNL     1      -0.016  -0.719  -2.400  0.00  0.00    +0.007 A 
ATOM      3  C   UNL     1       0.609  -1.166  -3.543  0.00  0.00    +0.047 A 
ATOM      4  C   UNL     1       1.985  -1.393  -3.544  0.00  0.00    +0.139 A 
ATOM      5  C   UNL     1       2.707  -1.153  -2.364  0.00  0.00    +0.065 A 
ATOM      6  C   UNL     1       2.058  -0.699  -1.216  0.00  0.00    +0.019 A 
ATOM      7  C   UNL     1       4.175  -1.377  -2.359  0.00  0.00    +0.199 A 
ATOM      8  O   UNL     1       4.850  -1.357  -1.345  0.00  0.00    -0.287 OA
ATOM      9  C   UNL     1       4.734  -1.627  -3.692  0.00  0.00    +0.072 A 
ATOM     10  C   UNL     1       3.921  -1.838  -4.769  0.00  0.00    +0.199 A 
ATOM     11  O   UNL     1       2.576  -1.839  -4.675  0.00  0.00    -0.450 OA
ATOM     12  C   UNL     1       4.769  -2.048  -5.955  0.00  0.00    +0.283 C 
ATOM     13  O   UNL     1       4.356  -2.259  -7.078  0.00  0.00    -0.267 OA
ATOM     14  N   UNL     1       6.072  -1.972  -5.613  0.00  0.00    -0.281 N 
ATOM     15  C   UNL     1       6.148  -1.704  -4.167  0.00  0.00    +0.145 C 
ENDROOT
BRANCH  15  16
ATOM     16  C   UNL     1       6.871  -2.826  -3.468  0.00  0.00    -0.022 A 
ATOM     17  C   UNL     1       6.683  -4.132  -3.880  0.00  0.00    +0.007 A 
ATOM     18  C   UNL     1       7.346  -5.162  -3.239  0.00  0.00    +0.020 A 
ATOM     19  C   UNL     1       8.197  -4.885  -2.185  0.00  0.00    +0.041 A 
ATOM     20  C   UNL     1       8.385  -3.578  -1.772  0.00  0.00    +0.020 A 
ATOM     21  C   UNL     1       7.726  -2.548  -2.418  0.00  0.00    +0.007 A 
ATOM     22 CL   UNL     1       9.030  -6.178  -1.379  0.00  0.00    -0.084 Cl
ENDBRANCH  15  16
BRANCH   1  24
ATOM     23  C   UNL     1      -0.019   1.526   0.010  0.00  0.00    +0.009 C 
ATOM     24  C   UNL     1       0.002  -0.004   0.002  0.00  0.00    +0.032 C 
ENDBRANCH   1  24
BRANCH  14  25
ATOM     25  C   UNL     1       7.211  -2.129  -6.520  0.00  0.00    +0.140 C 
BRANCH  25  26
ATOM     26  C   UNL     1       7.594  -0.765  -7.099  0.00  0.00    +0.136 C 
ATOM     27  C   UNL     1       8.714  -0.937  -8.147  0.00  0.00    +0.035 C 
ATOM     28  C   UNL     1       9.618   0.295  -7.869  0.00  0.00    +0.031 C 
ATOM     29  C   UNL     1       9.466   0.430  -6.333  0.00  0.00    +0.160 C 
ATOM     30  O   UNL     1       8.099   0.080  -6.058  0.00  0.00    -0.375 OA
ENDBRANCH  25  26
ENDBRANCH  14  25
TORSDOF 4
