REMARK  Name = ZINC27386846
REMARK  8 active torsions:
REMARK  status: ('A' for Active; 'I' for Inactive)
REMARK    1  A    between atoms: C_1  and  C_2
REMARK    2  A    between atoms: C_2  and  C_4
REMARK    3  A    between atoms: C_2  and  N_14
REMARK    4  A    between atoms: C_7  and  S_10
REMARK    5  A    between atoms: S_10  and  N_13
REMARK    6  A    between atoms: N_14  and  C_15
REMARK    7  A    between atoms: C_16  and  C_18
REMARK    8  A    between atoms: C_19  and  C_20
REMARK                            x       y       z     vdW  Elec       q    Type
REMARK                         _______ _______ _______ _____ _____    ______ ____
ROOT
ATOM      1  C   UNL     1      -0.018   1.523   0.038  0.00  0.00    +0.033 C 
ATOM      2  C   UNL     1       0.067  -0.005   0.036  0.00  0.00    +0.103 C 
ENDROOT
BRANCH   2   3
ATOM      3  C   UNL     1       0.919  -0.459  -1.121  0.00  0.00    -0.027 A 
ATOM      4  C   UNL     1       1.643  -1.633  -1.028  0.00  0.00    +0.007 A 
ATOM      5  C   UNL     1       2.425  -2.050  -2.089  0.00  0.00    +0.029 A 
ATOM      6  C   UNL     1       2.482  -1.292  -3.244  0.00  0.00    +0.105 A 
ATOM      7  C   UNL     1       1.758  -0.118  -3.338  0.00  0.00    +0.029 A 
ATOM      8  C   UNL     1       0.973   0.296  -2.278  0.00  0.00    +0.007 A 
BRANCH   6   9
ATOM      9  S   UNL     1       3.480  -1.823  -4.596  0.00  0.00    +0.056 S 
ATOM     10  O   UNL     1       3.790  -0.660  -5.352  0.00  0.00    -0.153 OA
ATOM     11  O   UNL     1       4.484  -2.669  -4.053  0.00  0.00    -0.153 OA
BRANCH   9  12
ATOM     12  N   UNL     1       2.530  -2.775  -5.561  0.00  0.00    -0.204 NA
ATOM     13  H   UNL     1       2.695  -2.815  -6.516  0.00  0.00    +0.144 HD
ATOM     14  H   UNL     1       1.808  -3.293  -5.172  0.00  0.00    +0.144 HD
ENDBRANCH   9  12
ENDBRANCH   6   9
ENDBRANCH   2   3
BRANCH   2  15
ATOM     15  N   UNL     1       0.665  -0.463   1.292  0.00  0.00    -0.294 N 
ATOM     16  C   UNL     1       1.970   0.053   1.712  0.00  0.00    +0.133 C 
ATOM     17  C   UNL     1       0.014  -1.358   2.061  0.00  0.00    +0.240 C 
ATOM     18  O   UNL     1      -1.070  -1.786   1.712  0.00  0.00    -0.271 OA
BRANCH  17  19
ATOM     19  C   UNL     1       0.612  -1.815   3.317  0.00  0.00    +0.068 C 
ATOM     20  C   UNL     1      -0.038  -2.711   4.087  0.00  0.00    +0.013 C 
BRANCH  20  21
ATOM     21  C   UNL     1       0.562  -3.171   5.349  0.00  0.00    -0.023 A 
ATOM     22  C   UNL     1       1.806  -2.677   5.757  0.00  0.00    +0.008 A 
ATOM     23  C   UNL     1       2.363  -3.111   6.941  0.00  0.00    +0.002 A 
ATOM     24  C   UNL     1       1.695  -4.035   7.726  0.00  0.00    +0.020 A 
ATOM     25  C   UNL     1       0.464  -4.530   7.330  0.00  0.00    +0.042 A 
ATOM     26  C   UNL     1      -0.109  -4.099   6.150  0.00  0.00    +0.028 A 
ATOM     27 CL   UNL     1      -0.364  -5.689   8.322  0.00  0.00    -0.084 Cl
ENDBRANCH  20  21
ENDBRANCH  17  19
ENDBRANCH   2  15
TORSDOF 6
