REMARK  Name = ZINC39350879
REMARK  9 active torsions:
REMARK  status: ('A' for Active; 'I' for Inactive)
REMARK    1  A    between atoms: C_1  and  C_2
REMARK    2  A    between atoms: C_5  and  C_18
REMARK    3  A    between atoms: C_7  and  C_17
REMARK    4  A    between atoms: N_9  and  C_10
REMARK    5  A    between atoms: C_19  and  C_20
REMARK    6  A    between atoms: C_19  and  C_22
REMARK    7  A    between atoms: N_24  and  C_25
REMARK    8  A    between atoms: C_25  and  C_26
REMARK    9  A    between atoms: C_26  and  C_27
REMARK                            x       y       z     vdW  Elec       q    Type
REMARK                         _______ _______ _______ _____ _____    ______ ____
ROOT
ATOM      1  C   UNL     1      -2.616  -2.080   1.677  0.00  0.00    +0.002 C 
ATOM      2  C   UNL     1      -3.208  -3.279   1.516  0.00  0.00    +0.110 C 
ENDROOT
BRANCH   1   6
ATOM      3  C   UNL     1      -0.019   1.526   0.010  0.00  0.00    +0.028 C 
ATOM      4  C   UNL     1       0.002  -0.004   0.002  0.00  0.00    +0.071 C 
ATOM      5  C   UNL     1      -1.441  -0.549   0.056  0.00  0.00    +0.031 C 
ATOM      6  C   UNL     1      -1.311  -1.785   0.985  0.00  0.00    +0.035 C 
ATOM      7  C   UNL     1      -0.241  -1.303   1.997  0.00  0.00    +0.078 C 
ATOM      8  N   UNL     1       0.705  -0.501   1.194  0.00  0.00    -0.324 N 
ATOM      9  C   UNL     1      -0.887  -0.441   3.084  0.00  0.00    +0.028 C 
BRANCH   8  10
ATOM     10  C   UNL     1       2.043  -0.255   1.512  0.00  0.00    +0.032 A 
ATOM     11  C   UNL     1       2.592  -0.790   2.670  0.00  0.00    +0.023 A 
ATOM     12  C   UNL     1       3.915  -0.546   2.982  0.00  0.00    +0.003 A 
ATOM     13  C   UNL     1       4.693   0.230   2.143  0.00  0.00    +0.020 A 
ATOM     14  C   UNL     1       4.149   0.765   0.988  0.00  0.00    +0.043 A 
ATOM     15  C   UNL     1       2.827   0.519   0.667  0.00  0.00    +0.043 A 
ATOM     16 CL   UNL     1       5.130   1.739  -0.062  0.00  0.00    -0.083 Cl
ENDBRANCH   8  10
ENDBRANCH   1   6
BRANCH   2  17
ATOM     17  C   UNL     1      -4.488  -3.569   2.195  0.00  0.00    +0.254 C 
ATOM     18  O   UNL     1      -5.007  -2.725   2.899  0.00  0.00    -0.269 OA
ATOM     19  N   UNL     1      -5.080  -4.769   2.034  0.00  0.00    -0.310 N 
ATOM     20  H   UNL     1      -4.665  -5.443   1.472  0.00  0.00    +0.149 HD
BRANCH  19  21
ATOM     21  C   UNL     1      -6.349  -5.056   2.707  0.00  0.00    +0.109 C 
BRANCH  21  22
ATOM     22  C   UNL     1      -6.801  -6.476   2.359  0.00  0.00    +0.056 C 
BRANCH  22  23
ATOM     23  C   UNL     1      -8.106  -6.771   3.052  0.00  0.00    -0.021 A 
ATOM     24  C   UNL     1      -9.446  -6.434   2.565  0.00  0.00    +0.003 A 
ATOM     25  C   UNL     1      -9.932  -5.796   1.422  0.00  0.00    +0.010 A 
ATOM     26  C   UNL     1     -11.278  -5.631   1.258  0.00  0.00    +0.001 A 
ATOM     27  C   UNL     1     -12.168  -6.093   2.218  0.00  0.00    +0.002 A 
ATOM     28  C   UNL     1     -11.710  -6.726   3.353  0.00  0.00    +0.026 A 
ATOM     29  C   UNL     1     -10.344  -6.905   3.541  0.00  0.00    +0.047 A 
ATOM     30  N   UNL     1      -9.592  -7.481   4.540  0.00  0.00    -0.360 N 
ATOM     31  C   UNL     1      -8.262  -7.398   4.229  0.00  0.00    +0.087 A 
ATOM     32  H   UNL     1      -9.951  -7.890   5.343  0.00  0.00    +0.165 HD
ENDBRANCH  22  23
ENDBRANCH  21  22
ENDBRANCH  19  21
ENDBRANCH   2  17
BRANCH   2  33
ATOM     33  C   UNL     1      -2.596  -4.274   0.687  0.00  0.00    +0.104 C 
ATOM     34  N   UNL     1      -2.111  -5.063   0.029  0.00  0.00    -0.191 NA
ENDBRANCH   2  33
TORSDOF 7
