REMARK  Name = ZINC11851385
REMARK  5 active torsions:
REMARK  status: ('A' for Active; 'I' for Inactive)
REMARK    1  A    between atoms: C_1  and  N_2
REMARK    2  A    between atoms: C_10  and  C_11
REMARK    3  A    between atoms: N_14  and  S_17
REMARK    4  A    between atoms: S_17  and  C_20
REMARK    5  A    between atoms: C_23  and  N_26
REMARK                            x       y       z     vdW  Elec       q    Type
REMARK                         _______ _______ _______ _____ _____    ______ ____
ROOT
ATOM      1  C   UNL     1       4.743   2.656  -0.028  0.00  0.00    +0.058 C 
ATOM      2  C   UNL     1       5.229   3.394   1.222  0.00  0.00    +0.028 C 
ATOM      3  C   UNL     1       6.761   3.434   1.223  0.00  0.00    +0.110 C 
ATOM      4  N   UNL     1       7.218   4.024  -0.043  0.00  0.00    -0.177 NA
ATOM      5  C   UNL     1       6.738   3.448  -1.306  0.00  0.00    +0.110 C 
ATOM      6  C   UNL     1       5.207   3.407  -1.278  0.00  0.00    +0.028 C 
ENDROOT
BRANCH   1  16
ATOM      7  C   UNL     1       3.047   0.070  -0.026  0.00  0.00    +0.150 C 
ATOM      8  N   UNL     1       2.512   1.434  -0.014  0.00  0.00    -0.330 N 
ATOM      9  C   UNL     1       1.178   1.790   0.000  0.00  0.00    +0.069 A 
ATOM     10  C   UNL     1      -0.013   1.076   0.008  0.00  0.00    +0.028 A 
ATOM     11  C   UNL     1      -1.214   1.752   0.017  0.00  0.00    +0.002 A 
ATOM     12  C   UNL     1      -1.240   3.139   0.031  0.00  0.00    +0.002 A 
ATOM     13  C   UNL     1      -0.078   3.858   0.024  0.00  0.00    +0.030 A 
ATOM     14  C   UNL     1       1.151   3.194   0.008  0.00  0.00    +0.089 A 
ATOM     15  N   UNL     1       2.443   3.615  -0.002  0.00  0.00    -0.232 NA
ATOM     16  C   UNL     1       3.238   2.585  -0.015  0.00  0.00    +0.114 A 
ENDBRANCH   1  16
BRANCH   4  17
ATOM     17  S   UNL     1       8.256   5.315  -0.044  0.00  0.00    +0.061 S 
ATOM     18  O   UNL     1       8.951   5.279   1.194  0.00  0.00    -0.153 OA
ATOM     19  O   UNL     1       8.929   5.293  -1.296  0.00  0.00    -0.153 OA
BRANCH  17  20
ATOM     20  C   UNL     1       7.271   6.775  -0.027  0.00  0.00    +0.106 A 
ATOM     21  C   UNL     1       6.880   7.357  -1.219  0.00  0.00    +0.030 A 
ATOM     22  C   UNL     1       6.103   8.499  -1.209  0.00  0.00    +0.024 A 
ATOM     23  C   UNL     1       5.724   9.069  -0.000  0.00  0.00    +0.025 A 
ATOM     24  C   UNL     1       6.124   8.485   1.195  0.00  0.00    +0.024 A 
ATOM     25  C   UNL     1       6.896   7.340   1.178  0.00  0.00    +0.030 A 
BRANCH  23  26
ATOM     26  N   UNL     1       4.943  10.227   0.014  0.00  0.00    -0.358 N 
ATOM     27  H   UNL     1       4.679  10.624   0.858  0.00  0.00    +0.142 HD
ATOM     28  H   UNL     1       4.664  10.634  -0.822  0.00  0.00    +0.142 HD
ENDBRANCH  23  26
ENDBRANCH  17  20
ENDBRANCH   4  17
TORSDOF 4
