REMARK  Name = ZINC39707660
REMARK  7 active torsions:
REMARK  status: ('A' for Active; 'I' for Inactive)
REMARK    1  A    between atoms: C_1  and  C_2
REMARK    2  A    between atoms: C_6  and  C_8
REMARK    3  A    between atoms: C_10  and  S_14
REMARK    4  A    between atoms: S_14  and  C_15
REMARK    5  A    between atoms: C_15  and  C_16
REMARK    6  A    between atoms: N_18  and  C_19
REMARK    7  A    between atoms: C_21  and  C_30
REMARK                            x       y       z     vdW  Elec       q    Type
REMARK                         _______ _______ _______ _____ _____    ______ ____
ROOT
ATOM      1  C   UNL     1       0.113  -7.203   3.018  0.00  0.00    +0.173 C 
ENDROOT
BRANCH   1   2
ATOM      2  C   UNL     1       0.134  -8.652   3.432  0.00  0.00    +0.224 C 
ATOM      3  O   UNL     1       0.143  -8.947   4.608  0.00  0.00    -0.275 OA
ATOM      4  N   UNL     1       0.142  -9.621   2.494  0.00  0.00    -0.301 N 
ATOM      5  H   UNL     1       0.134  -9.385   1.553  0.00  0.00    +0.150 HD
BRANCH   4   6
ATOM      6  C   UNL     1       0.162 -11.029   2.896  0.00  0.00    +0.156 C 
ATOM      7  C   UNL     1      -0.764 -11.888   2.002  0.00  0.00    +0.149 C 
ATOM      8  C   UNL     1      -0.016 -12.485   0.837  0.00  0.00    -0.041 C 
ATOM      9  C   UNL     1       1.308 -12.543   0.921  0.00  0.00    -0.012 C 
ATOM     10  S   UNL     1       1.770 -11.827   2.483  0.00  0.00    -0.106 S 
ATOM     11  C   UNL     1       2.255 -13.103  -0.103  0.00  0.00    +0.042 C 
ATOM     12  C   UNL     1       1.456 -13.935  -1.113  0.00  0.00    +0.005 C 
ATOM     13  C   UNL     1       0.237 -13.119  -1.557  0.00  0.00    +0.005 C 
ATOM     14  C   UNL     1      -0.750 -13.006  -0.397  0.00  0.00    +0.033 C 
BRANCH   7  15
ATOM     15  C   UNL     1      -1.337 -12.977   2.811  0.00  0.00    +0.073 C 
ATOM     16  N   UNL     1      -1.779 -13.817   3.435  0.00  0.00    -0.196 NA
ENDBRANCH   7  15
ENDBRANCH   4   6
ENDBRANCH   1   2
BRANCH   1  17
ATOM     17  S   UNL     1       0.107  -6.153   4.497  0.00  0.00    -0.077 S 
BRANCH  17  20
ATOM     18  C   UNL     1       0.053  -2.846   2.463  0.00  0.00    +0.182 A 
ATOM     19  N   UNL     1       0.071  -4.181   2.582  0.00  0.00    -0.201 NA
ATOM     20  C   UNL     1       0.082  -4.512   3.854  0.00  0.00    +0.185 A 
ATOM     21  H   UNL     1       0.076  -3.304   5.550  0.00  0.00    +0.191 HD
ATOM     22  N   UNL     1       0.071  -3.374   4.583  0.00  0.00    -0.253 N 
ATOM     23  N   UNL     1       0.058  -2.312   3.664  0.00  0.00    -0.152 NA
BRANCH  18  29
ATOM     24  C   UNL     1      -0.018   1.503   0.010  0.00  0.00    +0.044 C 
ATOM     25  C   UNL     1       0.002  -0.004   0.002  0.00  0.00    -0.050 A 
ATOM     26  C   UNL     1       0.006  -0.688  -1.201  0.00  0.00    +0.003 A 
ATOM     27  C   UNL     1       0.025  -2.071  -1.216  0.00  0.00    +0.001 A 
ATOM     28  C   UNL     1       0.040  -2.776  -0.029  0.00  0.00    +0.011 A 
ATOM     29  C   UNL     1       0.037  -2.093   1.185  0.00  0.00    +0.021 A 
ATOM     30  C   UNL     1       0.023  -0.699   1.194  0.00  0.00    +0.015 A 
ENDBRANCH  18  29
ENDBRANCH  17  20
ENDBRANCH   1  17
TORSDOF 6
