REMARK  Name = ZINC18200630
REMARK  3 active torsions:
REMARK  status: ('A' for Active; 'I' for Inactive)
REMARK    1  A    between atoms: C_1  and  C_2
REMARK    2  A    between atoms: C_5  and  C_7
REMARK    3  A    between atoms: C_12  and  C_17
REMARK                            x       y       z     vdW  Elec       q    Type
REMARK                         _______ _______ _______ _____ _____    ______ ____
ROOT
ATOM      1  C   UNL     1      -3.973   5.569   0.048  0.00  0.00    +0.182 C 
ATOM      2  C   UNL     1      -2.819   4.593  -0.017  0.00  0.00    +0.041 C 
ATOM      3  C   UNL     1      -2.329   4.138  -1.190  0.00  0.00    +0.020 C 
ATOM      4  C   UNL     1      -1.165   3.176  -1.222  0.00  0.00    +0.060 C 
ATOM      5  C   UNL     1      -1.200   2.284   0.020  0.00  0.00    +0.039 C 
ATOM      6  C   UNL     1      -1.137   3.183   1.260  0.00  0.00    +0.088 C 
ATOM      7  C   UNL     1      -2.271   4.168   1.207  0.00  0.00    +0.164 C 
ATOM      8  O   UNL     1      -2.725   4.608   2.245  0.00  0.00    -0.292 OA
ATOM      9  N   UNL     1      -2.864   4.521  -2.396  0.00  0.00    -0.287 N 
ATOM     10  C   UNL     1      -4.098   5.152  -2.391  0.00  0.00    +0.220 A 
ATOM     11  N   UNL     1      -4.635   5.646  -1.248  0.00  0.00    -0.219 N 
ATOM     12  N   UNL     1      -5.868   6.197  -1.593  0.00  0.00    -0.132 NA
ATOM     13  C   UNL     1      -6.012   6.021  -2.889  0.00  0.00    +0.233 A 
ATOM     14  N   UNL     1      -4.933   5.385  -3.366  0.00  0.00    -0.180 NA
ATOM     15  N   UNL     1      -7.113   6.428  -3.644  0.00  0.00    -0.326 N 
ATOM     16  H   UNL     1      -2.393   4.354  -3.227  0.00  0.00    +0.155 HD
ATOM     17  H   UNL     1      -7.136   6.257  -4.599  0.00  0.00    +0.145 HD
ATOM     18  H   UNL     1      -7.854   6.884  -3.215  0.00  0.00    +0.145 HD
ENDROOT
BRANCH   1  23
ATOM     19  C   UNL     1      -1.482  10.623   0.640  0.00  0.00    +0.051 C 
ATOM     20  C   UNL     1      -2.268   9.339   0.707  0.00  0.00    -0.013 A 
ATOM     21  C   UNL     1      -3.160   8.932   1.643  0.00  0.00    +0.011 A 
ATOM     22  C   UNL     1      -3.772   7.701   1.496  0.00  0.00    +0.014 A 
ATOM     23  C   UNL     1      -3.454   6.933   0.425  0.00  0.00    +0.019 A 
ATOM     24  S   UNL     1      -2.266   7.958  -0.425  0.00  0.00    -0.096 S 
ENDBRANCH   1  23
BRANCH   5  25
ATOM     25  C   UNL     1      -0.016   1.351   0.009  0.00  0.00    -0.006 A 
ATOM     26  C   UNL     1       0.002  -0.004   0.002  0.00  0.00    +0.011 A 
ATOM     27  C   UNL     1       1.220  -0.658  -0.013  0.00  0.00    +0.008 A 
ATOM     28  C   UNL     1       2.360   0.076  -0.020  0.00  0.00    +0.045 A 
ATOM     29  S   UNL     1       1.725   1.744  -0.005  0.00  0.00    -0.101 S 
ENDBRANCH   5  25
TORSDOF 2
