REMARK  Name = ZINC09211421
REMARK  7 active torsions:
REMARK  status: ('A' for Active; 'I' for Inactive)
REMARK    1  A    between atoms: C_1  and  C_2
REMARK    2  A    between atoms: C_13  and  C_15
REMARK    3  A    between atoms: N_17  and  C_18
REMARK    4  A    between atoms: C_18  and  C_19
REMARK    5  A    between atoms: C_19  and  C_20
REMARK    6  A    between atoms: C_23  and  S_26
REMARK    7  A    between atoms: S_26  and  N_29
REMARK                            x       y       z     vdW  Elec       q    Type
REMARK                         _______ _______ _______ _____ _____    ______ ____
ROOT
ATOM      1  C   UNL     1       3.295   0.225  -7.880  0.00  0.00    +0.250 C 
ATOM      2  O   UNL     1       2.607   0.738  -8.744  0.00  0.00    -0.270 OA
ATOM      3  N   UNL     1       4.443  -0.396  -8.214  0.00  0.00    -0.311 N 
ATOM      4  H   UNL     1       4.991  -0.805  -7.526  0.00  0.00    +0.149 HD
ENDROOT
BRANCH   1  16
ATOM      5  C   UNL     1      -0.735   1.582   1.262  0.00  0.00    +0.008 C 
ATOM      6  C   UNL     1      -0.013   1.086   0.008  0.00  0.00    -0.009 C 
ATOM      7  C   UNL     1       1.423   1.619  -0.003  0.00  0.00    +0.008 C 
ATOM      8  C   UNL     1       2.230   0.928  -1.102  0.00  0.00    +0.036 C 
ATOM      9  C   UNL     1       1.476   1.062  -2.423  0.00  0.00    -0.033 A 
ATOM     10  C   UNL     1       0.147   1.365  -2.428  0.00  0.00    -0.006 A 
ATOM     11  S   UNL     1      -0.280   1.413  -4.148  0.00  0.00    -0.093 S 
ATOM     12  C   UNL     1       1.325   1.025  -4.800  0.00  0.00    +0.018 A 
ATOM     13  C   UNL     1       2.108   0.891  -3.658  0.00  0.00    -0.020 A 
ATOM     14  C   UNL     1       3.603   0.594  -3.771  0.00  0.00    +0.111 C 
ATOM     15  S   UNL     1       3.869  -0.459  -5.225  0.00  0.00    -0.115 S 
ATOM     16  C   UNL     1       2.874   0.283  -6.478  0.00  0.00    +0.071 C 
ATOM     17  C   UNL     1       1.715   0.909  -6.139  0.00  0.00    +0.035 C 
ATOM     18  C   UNL     1      -0.739   1.598  -1.245  0.00  0.00    +0.046 C 
ENDBRANCH   1  16
BRANCH   3  19
ATOM     19  C   UNL     1       4.864  -0.454  -9.616  0.00  0.00    +0.109 C 
BRANCH  19  20
ATOM     20  C   UNL     1       6.190  -1.209  -9.720  0.00  0.00    +0.054 C 
BRANCH  20  21
ATOM     21  C   UNL     1       6.623  -1.269 -11.162  0.00  0.00    -0.046 A 
ATOM     22  C   UNL     1       6.230  -2.329 -11.958  0.00  0.00    +0.005 A 
ATOM     23  C   UNL     1       6.623  -2.381 -13.283  0.00  0.00    +0.029 A 
ATOM     24  C   UNL     1       7.417  -1.379 -13.808  0.00  0.00    +0.105 A 
ATOM     25  C   UNL     1       7.814  -0.323 -13.011  0.00  0.00    +0.029 A 
ATOM     26  C   UNL     1       7.418  -0.268 -11.688  0.00  0.00    +0.005 A 
BRANCH  24  27
ATOM     27  S   UNL     1       7.922  -1.449 -15.495  0.00  0.00    +0.056 S 
ATOM     28  O   UNL     1       6.968  -2.256 -16.172  0.00  0.00    -0.153 OA
ATOM     29  O   UNL     1       8.207  -0.114 -15.889  0.00  0.00    -0.153 OA
BRANCH  27  30
ATOM     30  N   UNL     1       9.357  -2.273 -15.543  0.00  0.00    -0.204 NA
ATOM     31  H   UNL     1       9.592  -2.793 -16.327  0.00  0.00    +0.144 HD
ATOM     32  H   UNL     1       9.964  -2.235 -14.787  0.00  0.00    +0.144 HD
ENDBRANCH  27  30
ENDBRANCH  24  27
ENDBRANCH  20  21
ENDBRANCH  19  20
ENDBRANCH   3  19
TORSDOF 6
