REMARK  Name = ZINC06616001
REMARK  3 active torsions:
REMARK  status: ('A' for Active; 'I' for Inactive)
REMARK    1  A    between atoms: C_4  and  N_7
REMARK    2  A    between atoms: N_9  and  C_10
REMARK    3  A    between atoms: N_20  and  C_21
REMARK                            x       y       z     vdW  Elec       q    Type
REMARK                         _______ _______ _______ _____ _____    ______ ____
ROOT
ATOM      1  N   UNL     1       0.780   1.269  -0.530  0.00  0.00    -0.326 N 
ATOM      2  C   UNL     1      -0.053   1.997  -1.327  0.00  0.00    +0.206 C 
ATOM      3  N   UNL     1       0.223   3.272  -1.589  0.00  0.00    -0.221 NA
ATOM      4  N   UNL     1      -1.169   1.419  -1.855  0.00  0.00    -0.326 N 
ATOM      5  H   UNL     1       1.497   1.710  -0.048  0.00  0.00    +0.169 HD
ATOM      6  H   UNL     1      -1.328   0.470  -1.732  0.00  0.00    +0.169 HD
ENDROOT
BRANCH   3   7
ATOM      7  C   UNL     1       1.454   3.733  -1.414  0.00  0.00    +0.132 C 
ATOM      8  C   UNL     1       1.773   5.037  -1.801  0.00  0.00    +0.117 C 
ATOM      9  C   UNL     1       0.740   5.971  -2.272  0.00  0.00    +0.258 C 
ATOM     10  O   UNL     1      -0.427   5.630  -2.337  0.00  0.00    -0.270 OA
ATOM     11  N   UNL     1       1.118   7.216  -2.624  0.00  0.00    -0.236 N 
ATOM     12  C   UNL     1       2.400   7.603  -2.563  0.00  0.00    +0.313 C 
ATOM     13  O   UNL     1       2.678   8.737  -2.900  0.00  0.00    -0.252 OA
ATOM     14  N   UNL     1       3.392   6.801  -2.149  0.00  0.00    -0.236 N 
ATOM     15  C   UNL     1       3.156   5.531  -1.761  0.00  0.00    +0.258 C 
ATOM     16  O   UNL     1       4.065   4.813  -1.387  0.00  0.00    -0.270 OA
ATOM     17  H   UNL     1       0.447   7.846  -2.933  0.00  0.00    +0.159 HD
ATOM     18  H   UNL     1       4.300   7.143  -2.128  0.00  0.00    +0.159 HD
ENDBRANCH   3   7
BRANCH   1  22
ATOM     19  C   UNL     1       0.235  -2.843  -0.153  0.00  0.00    +0.000 A 
ATOM     20  C   UNL     1       1.512  -2.322  -0.252  0.00  0.00    +0.002 A 
ATOM     21  C   UNL     1       1.697  -0.960  -0.377  0.00  0.00    +0.026 A 
ATOM     22  C   UNL     1       0.597  -0.111  -0.404  0.00  0.00    +0.042 A 
ATOM     23  C   UNL     1      -0.684  -0.637  -0.299  0.00  0.00    +0.026 A 
ATOM     24  C   UNL     1      -0.862  -2.001  -0.180  0.00  0.00    +0.002 A 
ENDBRANCH   1  22
BRANCH   4  25
ATOM     25  C   UNL     1      -2.086   2.194  -2.572  0.00  0.00    +0.042 A 
ATOM     26  C   UNL     1      -2.143   3.567  -2.373  0.00  0.00    +0.026 A 
ATOM     27  C   UNL     1      -3.045   4.331  -3.087  0.00  0.00    +0.002 A 
ATOM     28  C   UNL     1      -3.899   3.728  -3.993  0.00  0.00    +0.000 A 
ATOM     29  C   UNL     1      -3.849   2.360  -4.190  0.00  0.00    +0.002 A 
ATOM     30  C   UNL     1      -2.945   1.592  -3.483  0.00  0.00    +0.026 A 
ENDBRANCH   4  25
TORSDOF 3
