REMARK  Name = ZINC21172890
REMARK  12 active torsions:
REMARK  status: ('A' for Active; 'I' for Inactive)
REMARK    1  A    between atoms: C_1  and  C_2
REMARK    2  A    between atoms: C_2  and  C_4
REMARK    3  A    between atoms: C_2  and  S_14
REMARK    4  A    between atoms: N_6  and  C_7
REMARK    5  A    between atoms: C_7  and  C_8
REMARK    6  A    between atoms: C_7  and  C_9
REMARK    7  A    between atoms: C_7  and  C_11
REMARK    8  A    between atoms: C_11  and  C_12
REMARK    9  A    between atoms: C_11  and  C_13
REMARK   10  A    between atoms: S_14  and  C_15
REMARK   11  A    between atoms: N_25  and  C_26
REMARK   12  A    between atoms: C_26  and  C_27
REMARK                            x       y       z     vdW  Elec       q    Type
REMARK                         _______ _______ _______ _____ _____    ______ ____
ROOT
ATOM      1  C   UNL     1      -0.189  -0.057  -2.809  0.00  0.00    +0.173 A 
ATOM      2  N   UNL     1      -1.281   0.606  -2.515  0.00  0.00    -0.223 NA
ATOM      3  C   UNL     1      -2.124   1.044  -3.479  0.00  0.00    +0.080 A 
ATOM      4  C   UNL     1      -3.288   1.752  -3.168  0.00  0.00    +0.048 A 
ATOM      5  C   UNL     1      -4.115   2.179  -4.183  0.00  0.00    +0.043 A 
ATOM      6  C   UNL     1      -3.806   1.914  -5.513  0.00  0.00    +0.021 A 
ATOM      7  C   UNL     1      -2.673   1.224  -5.842  0.00  0.00    +0.017 A 
ATOM      8  C   UNL     1      -1.818   0.780  -4.834  0.00  0.00    +0.065 A 
ATOM      9  C   UNL     1      -0.588   0.035  -5.134  0.00  0.00    +0.263 A 
ATOM     10  O   UNL     1      -0.271  -0.223  -6.281  0.00  0.00    -0.267 OA
ATOM     11  N   UNL     1       0.182  -0.349  -4.090  0.00  0.00    -0.280 N 
ATOM     12 CL   UNL     1      -5.562   3.058  -3.798  0.00  0.00    -0.083 Cl
ENDROOT
BRANCH   1  13
ATOM     13  S   UNL     1       0.851  -0.589  -1.490  0.00  0.00    -0.075 S 
BRANCH  13  15
ATOM     14  C   UNL     1      -0.019   1.526   0.010  0.00  0.00    +0.029 C 
ATOM     15  C   UNL     1       0.002  -0.004   0.002  0.00  0.00    +0.137 C 
BRANCH  15  16
ATOM     16  C   UNL     1       0.731  -0.503   1.223  0.00  0.00    +0.227 C 
ATOM     17  O   UNL     1       1.911  -0.775   1.156  0.00  0.00    -0.275 OA
ATOM     18  N   UNL     1       0.071  -0.647   2.389  0.00  0.00    -0.296 N 
ATOM     19  H   UNL     1      -0.872  -0.430   2.443  0.00  0.00    +0.150 HD
BRANCH  18  20
ATOM     20  C   UNL     1       0.780  -1.133   3.576  0.00  0.00    +0.121 C 
ATOM     21  C   UNL     1       1.347  -2.526   3.298  0.00  0.00    +0.048 C 
BRANCH  20  22
ATOM     22  C   UNL     1      -0.191  -1.204   4.756  0.00  0.00    +0.020 C 
ATOM     23  C   UNL     1      -1.266  -2.254   4.470  0.00  0.00    +0.010 C 
ATOM     24  C   UNL     1       0.574  -1.591   6.024  0.00  0.00    +0.010 C 
ENDBRANCH  20  22
BRANCH  20  25
ATOM     25  C   UNL     1       1.881  -0.211   3.902  0.00  0.00    +0.088 C 
ATOM     26  N   UNL     1       2.731   0.500   4.153  0.00  0.00    -0.194 NA
ENDBRANCH  20  25
ENDBRANCH  18  20
ENDBRANCH  15  16
ENDBRANCH  13  15
ENDBRANCH   1  13
BRANCH  11  27
ATOM     27  C   UNL     1       1.422  -1.090  -4.336  0.00  0.00    +0.201 C 
BRANCH  27  28
ATOM     28  C   UNL     1       1.130  -2.569  -4.348  0.00  0.00    +0.125 A 
ATOM     29  C   UNL     1       0.797  -3.296  -5.430  0.00  0.00    +0.046 A 
ATOM     30  C   UNL     1       0.613  -4.626  -4.989  0.00  0.00    +0.041 A 
ATOM     31  C   UNL     1       0.845  -4.633  -3.664  0.00  0.00    +0.195 A 
ATOM     32  O   UNL     1       1.163  -3.385  -3.283  0.00  0.00    -0.466 OA
ENDBRANCH  27  28
ENDBRANCH  11  27
TORSDOF 8
