REMARK  Name = ZINC27645664
REMARK  3 active torsions:
REMARK  status: ('A' for Active; 'I' for Inactive)
REMARK    1  A    between atoms: C_4  and  N_7
REMARK    2  A    between atoms: C_12  and  N_14
REMARK    3  A    between atoms: N_14  and  C_15
REMARK                            x       y       z     vdW  Elec       q    Type
REMARK                         _______ _______ _______ _____ _____    ______ ____
ROOT
ATOM      1  N   UNL     1      -2.394   5.008   0.002  0.00  0.00    -0.284 N 
ATOM      2  C   UNL     1      -2.419   3.634   0.189  0.00  0.00    +0.223 A 
ATOM      3  N   UNL     1      -3.581   3.040   0.395  0.00  0.00    -0.195 NA
ATOM      4  C   UNL     1      -3.644   1.715   0.565  0.00  0.00    +0.165 A 
ATOM      5  C   UNL     1      -2.452   0.974   0.543  0.00  0.00    +0.147 A 
ATOM      6  C   UNL     1      -1.246   1.647   0.340  0.00  0.00    +0.152 A 
ATOM      7  N   UNL     1      -1.273   2.965   0.166  0.00  0.00    -0.197 NA
ATOM      8  N   UNL     1      -2.817  -0.343   0.746  0.00  0.00    -0.231 NA
ATOM      9  H   UNL     1      -5.685   1.194   0.822  0.00  0.00    +0.168 HD
ATOM     10  C   UNL     1      -4.162  -0.368   0.878  0.00  0.00    +0.198 A 
ATOM     11  N   UNL     1      -4.646   0.839   0.770  0.00  0.00    -0.329 N 
ATOM     12  H   UNL     1      -1.432   5.537  -0.070  0.00  0.00    +0.155 HD
ENDROOT
BRANCH   1  16
ATOM     13  C   UNL     1      -5.963   7.135  -0.284  0.00  0.00    +0.000 A 
ATOM     14  C   UNL     1      -4.858   7.720   0.306  0.00  0.00    +0.002 A 
ATOM     15  C   UNL     1      -3.673   7.017   0.403  0.00  0.00    +0.023 A 
ATOM     16  C   UNL     1      -3.592   5.722  -0.094  0.00  0.00    +0.034 A 
ATOM     17  C   UNL     1      -4.703   5.141  -0.692  0.00  0.00    +0.023 A 
ATOM     18  C   UNL     1      -5.886   5.847  -0.780  0.00  0.00    +0.002 A 
ENDBRANCH   1  16
BRANCH   6  19
ATOM     19  N   UNL     1      -0.045   0.956   0.321  0.00  0.00    -0.324 N 
ATOM     20  H   UNL     1      -0.035  -0.134   0.470  0.00  0.00    +0.148 HD
BRANCH  19  21
ATOM     21  C   UNL     1       1.211   1.676   0.100  0.00  0.00    +0.075 C 
ATOM     22  C   UNL     1       1.811   2.138   1.448  0.00  0.00    +0.026 C 
ATOM     23  C   UNL     1       3.192   1.419   1.531  0.00  0.00    -0.009 C 
ATOM     24  C   UNL     1       4.065   2.124   0.449  0.00  0.00    +0.004 C 
ATOM     25  C   UNL     1       3.465   1.663  -0.899  0.00  0.00    +0.005 C 
ATOM     26  C   UNL     1       2.286   0.722  -0.504  0.00  0.00    +0.010 C 
ATOM     27  C   UNL     1       2.861   0.069   0.802  0.00  0.00    +0.009 C 
ENDBRANCH  19  21
ENDBRANCH   6  19
TORSDOF 3
