REMARK  Name = ZINC38659741
REMARK  13 active torsions:
REMARK  status: ('A' for Active; 'I' for Inactive)
REMARK    1  A    between atoms: C_1  and  C_2
REMARK    2  A    between atoms: C_5  and  O_8
REMARK    3  A    between atoms: O_8  and  C_9
REMARK    4  A    between atoms: C_9  and  C_10
REMARK    5  A    between atoms: C_10  and  O_12
REMARK    6  A    between atoms: O_12  and  C_13
REMARK    7  A    between atoms: C_20  and  N_36
REMARK    8  A    between atoms: C_21  and  C_34
REMARK    9  A    between atoms: C_22  and  C_24
REMARK   10  A    between atoms: C_26  and  O_32
REMARK   11  A    between atoms: C_29  and  O_30
REMARK   12  A    between atoms: O_30  and  C_31
REMARK   13  A    between atoms: O_32  and  C_33
REMARK                            x       y       z     vdW  Elec       q    Type
REMARK                         _______ _______ _______ _____ _____    ______ ____
ROOT
ATOM      1  C   UNL     1       0.089  -8.454   1.970  0.00  0.00    +0.135 A 
ATOM      2  C   UNL     1       0.133  -9.027   0.707  0.00  0.00    +0.047 A 
ATOM      3  C   UNL     1       0.116 -10.402   0.572  0.00  0.00    +0.012 A 
ATOM      4  C   UNL     1       0.054 -11.211   1.693  0.00  0.00    +0.008 A 
ATOM      5  C   UNL     1       0.010 -10.643   2.956  0.00  0.00    +0.138 A 
ATOM      6  C   UNL     1       0.034  -9.261   3.094  0.00  0.00    +0.093 A 
ATOM      7  O   UNL     1      -0.050 -11.420   4.066  0.00  0.00    -0.441 OA
ATOM      8  C   UNL     1      -0.451 -12.699   3.969  0.00  0.00    +0.199 C 
ATOM      9  C   UNL     1      -0.434 -13.367   2.791  0.00  0.00    +0.098 C 
ATOM     10  C   UNL     1       0.036 -12.707   1.525  0.00  0.00    +0.102 C 
ENDROOT
BRANCH  10  11
ATOM     11  C   UNL     1       1.426 -13.190   1.198  0.00  0.00    +0.010 A 
ATOM     12  C   UNL     1       2.461 -12.969   2.086  0.00  0.00    +0.053 A 
ATOM     13  C   UNL     1       3.740 -13.413   1.785  0.00  0.00    +0.121 A 
ATOM     14  C   UNL     1       3.980 -14.079   0.592  0.00  0.00    +0.049 A 
ATOM     15  C   UNL     1       2.945 -14.300  -0.296  0.00  0.00    +0.049 A 
ATOM     16  C   UNL     1       1.665 -13.860   0.008  0.00  0.00    +0.124 A 
BRANCH  16  17
ATOM     17  O   UNL     1       0.645 -14.083  -0.864  0.00  0.00    -0.495 OA
ATOM     18  C   UNL     1       0.963 -14.780  -2.070  0.00  0.00    +0.277 C 
ENDBRANCH  16  17
BRANCH  13  19
ATOM     19  O   UNL     1       4.758 -13.195   2.659  0.00  0.00    -0.495 OA
ATOM     20  C   UNL     1       6.049 -13.680   2.284  0.00  0.00    +0.277 C 
ENDBRANCH  13  19
ENDBRANCH  10  11
BRANCH   8  21
ATOM     21  N   UNL     1      -0.889 -13.347   5.096  0.00  0.00    -0.328 N 
ATOM     22  H   UNL     1      -0.906 -12.882   5.947  0.00  0.00    +0.145 HD
ATOM     23  H   UNL     1      -1.181 -14.271   5.042  0.00  0.00    +0.145 HD
ENDBRANCH   8  21
BRANCH   9  24
ATOM     24  C   UNL     1      -0.874 -14.729   2.751  0.00  0.00    +0.101 C 
ATOM     25  N   UNL     1      -1.222 -15.810   2.719  0.00  0.00    -0.191 NA
ENDBRANCH   9  24
BRANCH   1  26
ATOM     26  O   UNL     1       0.106  -7.101   2.104  0.00  0.00    -0.423 OA
BRANCH  26  27
ATOM     27  C   UNL     1      -1.030  -6.429   1.856  0.00  0.00    +0.350 C 
ATOM     28  O   UNL     1      -2.000  -7.015   1.439  0.00  0.00    -0.247 OA
BRANCH  27  29
ATOM     29  C   UNL     1      -1.093  -4.943   2.097  0.00  0.00    +0.349 C 
BRANCH  29  30
ATOM     30  O   UNL     1      -2.396  -4.461   1.761  0.00  0.00    -0.481 OA
BRANCH  30  35
ATOM     31  C   UNL     1      -3.336   1.052   2.433  0.00  0.00    +0.044 C 
ATOM     32  C   UNL     1      -3.084  -0.423   2.253  0.00  0.00    -0.050 A 
ATOM     33  C   UNL     1      -4.093  -1.243   1.782  0.00  0.00    +0.007 A 
ATOM     34  C   UNL     1      -3.865  -2.595   1.616  0.00  0.00    +0.046 A 
ATOM     35  C   UNL     1      -2.623  -3.131   1.923  0.00  0.00    +0.121 A 
ATOM     36  C   UNL     1      -1.612  -2.306   2.395  0.00  0.00    +0.046 A 
ATOM     37  C   UNL     1      -1.843  -0.953   2.554  0.00  0.00    +0.007 A 
ENDBRANCH  30  35
ENDBRANCH  29  30
ENDBRANCH  27  29
ENDBRANCH  26  27
ENDBRANCH   1  26
TORSDOF 10
