REMARK  Name = ZINC36145839
REMARK  16 active torsions:
REMARK  status: ('A' for Active; 'I' for Inactive)
REMARK    1  A    between atoms: C_1  and  C_2
REMARK    2  A    between atoms: C_2  and  C_3
REMARK    3  A    between atoms: C_2  and  C_4
REMARK    4  A    between atoms: C_2  and  O_5
REMARK    5  A    between atoms: O_5  and  C_6
REMARK    6  A    between atoms: C_6  and  C_7
REMARK    7  A    between atoms: C_7  and  C_9
REMARK    8  A    between atoms: C_7  and  O_34
REMARK    9  A    between atoms: C_9  and  N_10
REMARK   10  A    between atoms: N_10  and  C_11
REMARK   11  A    between atoms: N_10  and  C_19
REMARK   12  A    between atoms: C_11  and  C_12
REMARK   13  A    between atoms: C_19  and  C_20
REMARK   14  A    between atoms: C_23  and  C_26
REMARK   15  A    between atoms: C_29  and  O_32
REMARK   16  A    between atoms: O_32  and  C_33
REMARK                            x       y       z     vdW  Elec       q    Type
REMARK                         _______ _______ _______ _____ _____    ______ ____
ROOT
ATOM      1  N   UNL     1       4.405  -0.710  -4.081  0.00  0.00    +0.387 N 
ATOM      2  H   UNL     1       4.165  -1.516  -4.638  0.00  0.00    -0.081 HD
ENDROOT
BRANCH   1   3
ATOM      3  C   UNL     1       3.196  -0.188  -3.429  0.00  0.00    -0.044 C 
BRANCH   3   4
ATOM      4  C   UNL     1       1.968  -0.553  -4.266  0.00  0.00    +0.124 C 
BRANCH   4   5
ATOM      5  O   UNL     1       2.050   0.091  -5.539  0.00  0.00    -0.391 OA
ATOM      6  H   UNL     1       2.013   1.057  -5.494  0.00  0.00    +0.210 HD
ENDBRANCH   4   5
BRANCH   4   7
ATOM      7  C   UNL     1       0.702  -0.091  -3.541  0.00  0.00    +0.189 C 
BRANCH   7   8
ATOM      8  O   UNL     1      -0.449  -0.533  -4.264  0.00  0.00    -0.372 OA
BRANCH   8  10
ATOM      9  C   UNL     1      -1.769   1.374  -3.585  0.00  0.00    +0.041 C 
ATOM     10  C   UNL     1      -1.691  -0.152  -3.669  0.00  0.00    +0.061 C 
ATOM     11  C   UNL     1      -1.785  -0.745  -2.262  0.00  0.00    +0.041 C 
ATOM     12  C   UNL     1      -2.847  -0.676  -4.522  0.00  0.00    +0.041 C 
ENDBRANCH   8  10
ENDBRANCH   7   8
ENDBRANCH   4   7
ENDBRANCH   3   4
ENDBRANCH   1   3
BRANCH   1  13
ATOM     13  C   UNL     1       4.982   0.328  -4.945  0.00  0.00    -0.041 C 
BRANCH  13  14
ATOM     14  C   UNL     1       5.480   1.469  -4.096  0.00  0.00    -0.046 A 
ATOM     15  C   UNL     1       4.580   2.346  -3.520  0.00  0.00    +0.003 A 
ATOM     16  C   UNL     1       5.037   3.393  -2.741  0.00  0.00    +0.000 A 
ATOM     17  C   UNL     1       6.394   3.563  -2.538  0.00  0.00    +0.001 A 
ATOM     18  C   UNL     1       7.295   2.687  -3.114  0.00  0.00    +0.020 A 
ATOM     19  C   UNL     1       6.838   1.636  -3.889  0.00  0.00    +0.042 A 
ATOM     20 CL   UNL     1       7.968   0.531  -4.607  0.00  0.00    -0.083 Cl
ENDBRANCH  13  14
ENDBRANCH   1  13
BRANCH   1  21
ATOM     21  C   UNL     1       5.385  -1.096  -3.058  0.00  0.00    -0.030 C 
BRANCH  21  22
ATOM     22  C   UNL     1       6.372  -2.103  -3.651  0.00  0.00    +0.194 C 
ATOM     23  C   UNL     1       7.632  -2.235  -2.761  0.00  0.00    +0.104 C 
ATOM     24  C   UNL     1       8.742  -2.386  -3.783  0.00  0.00    +0.091 C 
ATOM     25  N   UNL     1       8.284  -2.027  -4.936  0.00  0.00    -0.089 NA
ATOM     26  O   UNL     1       6.933  -1.611  -4.885  0.00  0.00    -0.392 OA
BRANCH  24  27
ATOM     27  C   UNL     1      10.111  -2.862  -3.507  0.00  0.00    -0.000 A 
ATOM     28  C   UNL     1      10.479  -3.226  -2.209  0.00  0.00    +0.013 A 
ATOM     29  C   UNL     1      11.758  -3.670  -1.956  0.00  0.00    +0.046 A 
ATOM     30  C   UNL     1      12.683  -3.756  -2.989  0.00  0.00    +0.120 A 
ATOM     31  C   UNL     1      12.322  -3.395  -4.281  0.00  0.00    +0.046 A 
ATOM     32  C   UNL     1      11.043  -2.956  -4.544  0.00  0.00    +0.013 A 
BRANCH  30  33
ATOM     33  O   UNL     1      13.943  -4.194  -2.735  0.00  0.00    -0.495 OA
ATOM     34  C   UNL     1      14.843  -4.258  -3.843  0.00  0.00    +0.277 C 
ENDBRANCH  30  33
ENDBRANCH  24  27
ENDBRANCH  21  22
ENDBRANCH   1  21
TORSDOF 12
