REMARK  Name = ZINC39359160
REMARK  5 active torsions:
REMARK  status: ('A' for Active; 'I' for Inactive)
REMARK    1  A    between atoms: C_4  and  O_7
REMARK    2  A    between atoms: O_7  and  C_8
REMARK    3  A    between atoms: C_12  and  C_14
REMARK    4  A    between atoms: C_17  and  O_36
REMARK    5  A    between atoms: C_28  and  C_31
REMARK                            x       y       z     vdW  Elec       q    Type
REMARK                         _______ _______ _______ _____ _____    ______ ____
ROOT
ATOM      1  C   UNL     1       6.303  -4.682   0.145  0.00  0.00    +0.089 C 
ATOM      2  C   UNL     1       6.477  -5.585  -1.039  0.00  0.00    +0.048 C 
ATOM      3  C   UNL     1       7.128  -5.496  -2.178  0.00  0.00    +0.235 C 
ATOM      4  N   UNL     1       7.059  -6.677  -2.852  0.00  0.00    -0.114 NA
ATOM      5  N   UNL     1       6.378  -7.546  -2.292  0.00  0.00    -0.157 NA
ATOM      6  C   UNL     1       5.817  -6.966  -1.071  0.00  0.00    +0.245 C 
ATOM      7  N   UNL     1       6.303  -7.619   0.146  0.00  0.00    -0.321 N 
ATOM      8  C   UNL     1       6.355  -6.907   1.318  0.00  0.00    +0.014 C 
ATOM      9  C   UNL     1       6.377  -5.557   1.387  0.00  0.00    +0.023 C 
ATOM     10  C   UNL     1       6.472  -4.887   2.619  0.00  0.00    +0.162 C 
ATOM     11  O   UNL     1       6.483  -3.672   2.633  0.00  0.00    -0.292 OA
ATOM     12  C   UNL     1       6.558  -5.636   3.919  0.00  0.00    +0.088 C 
ATOM     13  C   UNL     1       7.205  -7.001   3.659  0.00  0.00    +0.039 C 
ATOM     14  C   UNL     1       6.381  -7.731   2.590  0.00  0.00    +0.060 C 
ATOM     15  H   UNL     1       6.586  -8.547   0.125  0.00  0.00    +0.148 HD
ENDROOT
BRANCH   1  20
ATOM     16  C   UNL     1       3.657  -1.988  -0.010  0.00  0.00    +0.129 A 
ATOM     17  C   UNL     1       2.495  -2.747  -0.046  0.00  0.00    +0.046 A 
ATOM     18  C   UNL     1       2.571  -4.125  -0.020  0.00  0.00    +0.004 A 
ATOM     19  C   UNL     1       3.803  -4.750   0.042  0.00  0.00    +0.005 A 
ATOM     20  C   UNL     1       4.962  -3.997   0.077  0.00  0.00    -0.032 A 
ATOM     21  C   UNL     1       4.892  -2.618   0.046  0.00  0.00    +0.050 A 
BRANCH  16  22
ATOM     22  O   UNL     1       3.586  -0.632  -0.036  0.00  0.00    -0.456 OA
BRANCH  22  26
ATOM     23  C   UNL     1       3.331   1.363   3.566  0.00  0.00    +0.000 A 
ATOM     24  C   UNL     1       3.413  -0.017   3.546  0.00  0.00    +0.004 A 
ATOM     25  C   UNL     1       3.498  -0.688   2.341  0.00  0.00    +0.046 A 
ATOM     26  C   UNL     1       3.501   0.025   1.150  0.00  0.00    +0.128 A 
ATOM     27  C   UNL     1       3.419   1.410   1.174  0.00  0.00    +0.046 A 
ATOM     28  C   UNL     1       3.334   2.076   2.381  0.00  0.00    +0.004 A 
ENDBRANCH  22  26
ENDBRANCH  16  22
ENDBRANCH   1  20
BRANCH  13  29
ATOM     29  C   UNL     1       7.215  -7.808   4.932  0.00  0.00    -0.006 A 
ATOM     30  C   UNL     1       8.272  -8.312   5.615  0.00  0.00    +0.011 A 
ATOM     31  C   UNL     1       8.041  -9.030   6.773  0.00  0.00    +0.008 A 
ATOM     32  C   UNL     1       6.764  -9.209   7.192  0.00  0.00    +0.045 A 
ATOM     33  S   UNL     1       5.838  -8.343   5.935  0.00  0.00    -0.101 S 
ENDBRANCH  13  29
BRANCH   3  34
ATOM     34  O   UNL     1       7.777  -4.386  -2.619  0.00  0.00    -0.491 OA
ATOM     35  H   UNL     1       8.204  -4.496  -3.479  0.00  0.00    +0.294 HD
ENDBRANCH   3  34
TORSDOF 5
