REMARK  Name = ZINC01096467
REMARK  9 active torsions:
REMARK  status: ('A' for Active; 'I' for Inactive)
REMARK    1  A    between atoms: C_1  and  C_2
REMARK    2  A    between atoms: C_2  and  C_3
REMARK    3  A    between atoms: C_2  and  C_4
REMARK    4  A    between atoms: C_2  and  C_5
REMARK    5  A    between atoms: C_8  and  O_11
REMARK    6  A    between atoms: O_11  and  C_12
REMARK    7  A    between atoms: C_12  and  C_13
REMARK    8  A    between atoms: C_16  and  C_26
REMARK    9  A    between atoms: C_16  and  O_30
REMARK                            x       y       z     vdW  Elec       q    Type
REMARK                         _______ _______ _______ _____ _____    ______ ____
ROOT
ATOM      1  C   UNL     1       2.291  -2.924  -6.862  0.00  0.00    +0.275 C 
ATOM      2  O   UNL     1       3.391  -2.420  -6.782  0.00  0.00    -0.270 OA
ATOM      3  N   UNL     1       2.026  -3.812  -7.841  0.00  0.00    -0.149 N 
ATOM      4  C   UNL     1       2.971  -4.255  -8.878  0.00  0.00    +0.259 C 
ATOM      5  C   UNL     1       2.092  -5.147  -9.788  0.00  0.00    +0.096 C 
ATOM      6  C   UNL     1       1.964  -4.421 -11.126  0.00  0.00    +0.014 C 
ATOM      7  C   UNL     1       1.150  -5.209 -12.115  0.00  0.00    +0.001 C 
ATOM      8  C   UNL     1      -0.302  -5.309 -11.741  0.00  0.00    +0.000 C 
ATOM      9  C   UNL     1      -0.636  -6.425 -10.807  0.00  0.00    +0.006 C 
ATOM     10  C   UNL     1      -0.397  -6.126  -9.351  0.00  0.00    +0.053 C 
ATOM     11  C   UNL     1       0.781  -5.240  -9.065  0.00  0.00    +0.045 C 
ATOM     12  N   UNL     1       0.814  -4.460  -8.043  0.00  0.00    -0.183 NA
ENDROOT
BRANCH   4  13
ATOM     13  C   UNL     1       3.520  -3.058  -9.656  0.00  0.00    +0.438 C 
ATOM     14  F   UNL     1       4.308  -2.272  -8.809  0.00  0.00    -0.166 F 
ATOM     15  F   UNL     1       4.298  -3.515 -10.726  0.00  0.00    -0.166 F 
ATOM     16  F   UNL     1       2.456  -2.293 -10.147  0.00  0.00    -0.166 F 
ENDBRANCH   4  13
BRANCH   4  17
ATOM     17  O   UNL     1       4.034  -5.017  -8.302  0.00  0.00    -0.363 OA
ATOM     18  H   UNL     1       4.568  -4.526  -7.663  0.00  0.00    +0.212 HD
ENDBRANCH   4  17
BRANCH   1  19
ATOM     19  C   UNL     1       1.220  -2.558  -5.867  0.00  0.00    +0.326 C 
BRANCH  19  20
ATOM     20  O   UNL     1       1.740  -1.606  -4.937  0.00  0.00    -0.483 OA
BRANCH  20  24
ATOM     21  C   UNL     1      -0.822  -0.277  -1.989  0.00  0.00    -0.042 A 
ATOM     22  C   UNL     1      -1.260  -1.203  -2.918  0.00  0.00    +0.008 A 
ATOM     23  C   UNL     1      -0.406  -1.645  -3.909  0.00  0.00    +0.046 A 
ATOM     24  C   UNL     1       0.896  -1.168  -3.966  0.00  0.00    +0.121 A 
ATOM     25  C   UNL     1       1.334  -0.243  -3.029  0.00  0.00    +0.046 A 
ATOM     26  C   UNL     1       0.474   0.200  -2.043  0.00  0.00    +0.008 A 
BRANCH  21  28
ATOM     27  C   UNL     1      -1.925   1.725  -1.028  0.00  0.00    +0.015 C 
ATOM     28  C   UNL     1      -1.758   0.209  -0.912  0.00  0.00    -0.013 C 
ATOM     29  C   UNL     1      -1.179  -0.137   0.461  0.00  0.00    +0.015 C 
ATOM     30  C   UNL     1      -3.120  -0.469  -1.077  0.00  0.00    +0.015 C 
ENDBRANCH  21  28
ENDBRANCH  20  24
ENDBRANCH  19  20
ENDBRANCH   1  19
TORSDOF 6
