REMARK  Name = ZINC11640032
REMARK  2 active torsions:
REMARK  status: ('A' for Active; 'I' for Inactive)
REMARK    1  A    between atoms: C_4  and  N_7
REMARK    2  A    between atoms: C_13  and  C_14
REMARK                            x       y       z     vdW  Elec       q    Type
REMARK                         _______ _______ _______ _____ _____    ______ ____
ROOT
ATOM      1  N   UNL     1       3.141  -1.466  -0.790  0.00  0.00    -0.226 NA
ATOM      2  C   UNL     1       3.453  -2.264   0.207  0.00  0.00    +0.166 C 
ATOM      3  N   UNL     1       4.680  -2.808   0.517  0.00  0.00    -0.260 N 
ATOM      4  C   UNL     1       4.821  -3.599   1.568  0.00  0.00    +0.256 C 
ATOM      5  O   UNL     1       5.897  -4.088   1.856  0.00  0.00    -0.269 OA
ATOM      6  C   UNL     1       3.613  -3.859   2.376  0.00  0.00    +0.078 C 
ATOM      7  C   UNL     1       3.470  -4.620   3.490  0.00  0.00    +0.029 C 
ATOM      8  S   UNL     1       2.391  -2.898   1.495  0.00  0.00    -0.049 S 
ATOM      9  H   UNL     1       5.448  -2.610  -0.042  0.00  0.00    +0.157 HD
ENDROOT
BRANCH   1  13
ATOM     10  C   UNL     1      -0.746  -0.113  -1.220  0.00  0.00    +0.000 A 
ATOM     11  C   UNL     1       0.310   0.770  -1.358  0.00  0.00    +0.002 A 
ATOM     12  C   UNL     1       1.608   0.326  -1.216  0.00  0.00    +0.028 A 
ATOM     13  C   UNL     1       1.856  -1.019  -0.931  0.00  0.00    +0.067 A 
ATOM     14  C   UNL     1       0.785  -1.905  -0.793  0.00  0.00    +0.028 A 
ATOM     15  C   UNL     1      -0.508  -1.447  -0.938  0.00  0.00    +0.002 A 
ENDBRANCH   1  13
BRANCH   7  16
ATOM     16  C   UNL     1       2.206  -4.593   4.240  0.00  0.00    -0.006 A 
ATOM     17  C   UNL     1       1.204  -3.666   3.919  0.00  0.00    +0.011 A 
ATOM     18  C   UNL     1       0.034  -3.683   4.657  0.00  0.00    +0.020 A 
ATOM     19  C   UNL     1      -0.109  -4.606   5.678  0.00  0.00    +0.111 A 
ATOM     20  N   UNL     1       0.850  -5.468   5.960  0.00  0.00    -0.263 NA
ATOM     21  C   UNL     1       1.980  -5.497   5.285  0.00  0.00    +0.118 A 
ENDBRANCH   7  16
TORSDOF 2
