REMARK  Name = ZINC52569826
REMARK  7 active torsions:
REMARK  status: ('A' for Active; 'I' for Inactive)
REMARK    1  A    between atoms: C_3  and  N_31
REMARK    2  A    between atoms: C_7  and  C_11
REMARK    3  A    between atoms: C_11  and  O_12
REMARK    4  A    between atoms: O_12  and  C_13
REMARK    5  A    between atoms: C_15  and  O_21
REMARK    6  A    between atoms: O_21  and  C_22
REMARK    7  A    between atoms: C_24  and  C_29
REMARK                            x       y       z     vdW  Elec       q    Type
REMARK                         _______ _______ _______ _____ _____    ______ ____
ROOT
ATOM      1  C   UNL     1      -4.545  -1.354   1.921  0.00  0.00    +0.127 A 
ATOM      2  C   UNL     1      -5.366  -2.467   2.010  0.00  0.00    +0.093 A 
ATOM      3  C   UNL     1      -5.957  -2.797   3.221  0.00  0.00    +0.153 A 
ATOM      4  C   UNL     1      -5.726  -2.011   4.342  0.00  0.00    +0.118 A 
ATOM      5  C   UNL     1      -4.905  -0.899   4.251  0.00  0.00    +0.149 A 
ATOM      6  C   UNL     1      -4.310  -0.574   3.044  0.00  0.00    +0.085 A 
ATOM      7  F   UNL     1      -4.681  -0.135   5.342  0.00  0.00    -0.204 F 
ATOM      8 CL   UNL     1      -6.465  -2.422   5.857  0.00  0.00    -0.077 Cl
ENDROOT
BRANCH   1   9
ATOM      9  O   UNL     1      -3.965  -1.030   0.736  0.00  0.00    -0.489 OA
BRANCH   9  10
ATOM     10  C   UNL     1      -3.126   0.126   0.718  0.00  0.00    +0.260 C 
BRANCH  10  17
ATOM     11  C   UNL     1      -2.060   2.946  -0.594  0.00  0.00    +0.013 A 
ATOM     12  C   UNL     1      -1.033   3.864  -0.759  0.00  0.00    +0.044 A 
ATOM     13  C   UNL     1       0.237   3.399  -1.097  0.00  0.00    +0.119 A 
ATOM     14  N   UNL     1       0.475   2.111  -1.260  0.00  0.00    -0.212 NA
ATOM     15  C   UNL     1      -0.484   1.198  -1.110  0.00  0.00    +0.179 A 
ATOM     16  C   UNL     1      -1.775   1.613  -0.771  0.00  0.00    +0.025 A 
ATOM     17  C   UNL     1      -2.567   0.330  -0.692  0.00  0.00    +0.170 C 
ATOM     18  N   UNL     1      -1.567  -0.703  -1.013  0.00  0.00    -0.296 N 
ATOM     19  N   UNL     1      -0.480  -0.164  -1.224  0.00  0.00    -0.158 NA
ATOM     20  H   UNL     1      -1.738  -1.657  -1.052  0.00  0.00    +0.183 HD
BRANCH  13  21
ATOM     21  N   UNL     1       1.274   4.310  -1.265  0.00  0.00    -0.343 N 
ATOM     22  H   UNL     1       1.109   5.259  -1.147  0.00  0.00    +0.144 HD
ATOM     23  H   UNL     1       2.161   3.997  -1.499  0.00  0.00    +0.144 HD
ENDBRANCH  13  21
ENDBRANCH  10  17
ENDBRANCH   9  10
ENDBRANCH   1   9
BRANCH   3  24
ATOM     24  O   UNL     1      -6.763  -3.887   3.309  0.00  0.00    -0.454 OA
BRANCH  24  25
ATOM     25  C   UNL     1      -6.955  -4.632   2.189  0.00  0.00    +0.131 A 
ATOM     26  C   UNL     1      -6.105  -5.689   1.907  0.00  0.00    +0.065 A 
ATOM     27  C   UNL     1      -6.305  -6.451   0.755  0.00  0.00    +0.057 A 
ATOM     28  C   UNL     1      -7.361  -6.143  -0.105  0.00  0.00    +0.039 A 
ATOM     29  C   UNL     1      -8.202  -5.087   0.185  0.00  0.00    +0.046 A 
ATOM     30  C   UNL     1      -8.005  -4.336   1.331  0.00  0.00    +0.066 A 
ATOM     31 CL   UNL     1      -9.514  -4.705  -0.885  0.00  0.00    -0.083 Cl
BRANCH  27  32
ATOM     32  C   UNL     1      -5.431  -7.545   0.457  0.00  0.00    +0.099 C 
ATOM     33  N   UNL     1      -4.737  -8.413   0.220  0.00  0.00    -0.191 NA
ENDBRANCH  27  32
ENDBRANCH  24  25
ENDBRANCH   3  24
TORSDOF 7
