REMARK  Name = ZINC58022226
REMARK  8 active torsions:
REMARK  status: ('A' for Active; 'I' for Inactive)
REMARK    1  A    between atoms: C_1  and  C_2
REMARK    2  A    between atoms: C_2  and  C_4
REMARK    3  A    between atoms: C_2  and  N_6
REMARK    4  A    between atoms: C_4  and  N_5
REMARK    5  A    between atoms: C_14  and  C_17
REMARK    6  A    between atoms: C_17  and  C_18
REMARK    7  A    between atoms: C_17  and  C_19
REMARK    8  A    between atoms: C_17  and  C_20
REMARK                            x       y       z     vdW  Elec       q    Type
REMARK                         _______ _______ _______ _____ _____    ______ ____
ROOT
ATOM      1  N   UNL     1       0.436  -0.614  -1.045  0.00  0.00    -0.298 NA
ATOM      2  C   UNL     1       0.099  -2.040  -1.150  0.00  0.00    +0.103 C 
ATOM      3  C   UNL     1       0.671  -2.602  -2.457  0.00  0.00    +0.122 C 
ATOM      4  N   UNL     1       2.109  -2.296  -2.506  0.00  0.00    -0.307 N 
ATOM      5  C   UNL     1       2.534  -0.908  -2.273  0.00  0.00    +0.122 C 
ATOM      6  C   UNL     1       1.889  -0.413  -0.974  0.00  0.00    +0.103 C 
ATOM      7  C   UNL     1       3.039  -3.291  -2.766  0.00  0.00    +0.161 A 
ATOM      8  N   UNL     1       4.349  -3.187  -2.840  0.00  0.00    -0.229 NA
ATOM      9  C   UNL     1       5.103  -4.241  -3.098  0.00  0.00    +0.056 A 
ATOM     10  C   UNL     1       4.468  -5.423  -3.282  0.00  0.00    +0.072 A 
ATOM     11  S   UNL     1       2.767  -4.926  -3.058  0.00  0.00    -0.060 S 
ENDROOT
BRANCH   9  12
ATOM     12  C   UNL     1       6.604  -4.132  -3.184  0.00  0.00    +0.005 C 
ATOM     13  C   UNL     1       7.188  -5.479  -3.616  0.00  0.00    +0.017 C 
ATOM     14  C   UNL     1       6.979  -3.061  -4.210  0.00  0.00    +0.017 C 
ATOM     15  C   UNL     1       7.167  -3.747  -1.815  0.00  0.00    +0.017 C 
ENDBRANCH   9  12
BRANCH   1  17
ATOM     16  C   UNL     1       0.420  -0.480   1.400  0.00  0.00    +0.022 C 
ATOM     17  C   UNL     1      -0.238   0.002   0.106  0.00  0.00    +0.036 C 
BRANCH  17  18
ATOM     18  C   UNL     1      -0.120   1.525   0.010  0.00  0.00    -0.068 C 
BRANCH  18  19
ATOM     19  N   UNL     1      -0.678   1.980  -1.270  0.00  0.00    +0.379 N 
ATOM     20  H   UNL     1      -0.113   1.626  -2.028  0.00  0.00    -0.090 HD
ATOM     21  H   UNL     1      -1.622   1.637  -1.366  0.00  0.00    -0.090 HD
ATOM     22  H   UNL     1      -0.682   2.989  -1.296  0.00  0.00    -0.090 HD
ENDBRANCH  18  19
ENDBRANCH  17  18
ENDBRANCH   1  17
TORSDOF 4
