REMARK  Name = ZINC06136876
REMARK  14 active torsions:
REMARK  status: ('A' for Active; 'I' for Inactive)
REMARK    1  A    between atoms: C_1  and  C_2
REMARK    2  A    between atoms: C_3  and  C_32
REMARK    3  A    between atoms: C_4  and  C_25
REMARK    4  A    between atoms: C_10  and  C_15
REMARK    5  A    between atoms: C_18  and  O_23
REMARK    6  A    between atoms: C_19  and  O_21
REMARK    7  A    between atoms: O_21  and  C_22
REMARK    8  A    between atoms: O_23  and  C_24
REMARK    9  A    between atoms: C_28  and  O_31
REMARK   10  A    between atoms: C_32  and  O_34
REMARK   11  A    between atoms: O_34  and  C_35
REMARK   12  A    between atoms: C_35  and  C_36
REMARK   13  A    between atoms: C_36  and  C_37
REMARK   14  A    between atoms: C_36  and  C_38
REMARK                            x       y       z     vdW  Elec       q    Type
REMARK                         _______ _______ _______ _____ _____    ______ ____
ROOT
ATOM      1  C   UNL     1       6.001   2.408  -1.628  0.00  0.00    +0.061 C 
ATOM      2  C   UNL     1       5.421   1.371  -2.555  0.00  0.00    +0.031 C 
ATOM      3  C   UNL     1       4.175   0.913  -2.349  0.00  0.00    +0.154 C 
ATOM      4  C   UNL     1       3.562  -0.113  -3.254  0.00  0.00    +0.073 C 
ATOM      5  C   UNL     1       4.315  -0.204  -4.558  0.00  0.00    +0.025 C 
ATOM      6  C   UNL     1       5.566   0.288  -4.665  0.00  0.00    +0.049 C 
ATOM      7  N   UNL     1       6.168   0.901  -3.599  0.00  0.00    -0.260 NA
ATOM      8  C   UNL     1       6.330   0.194  -5.965  0.00  0.00    +0.064 C 
ATOM      9  C   UNL     1       5.353   0.225  -7.141  0.00  0.00    +0.032 C 
ATOM     10  C   UNL     1       4.365  -0.936  -6.985  0.00  0.00    +0.088 C 
ATOM     11  C   UNL     1       3.680  -0.820  -5.651  0.00  0.00    +0.162 C 
ATOM     12  O   UNL     1       2.559  -1.267  -5.515  0.00  0.00    -0.292 OA
ENDROOT
BRANCH   9  13
ATOM     13  C   UNL     1       6.112   0.073  -8.434  0.00  0.00    -0.040 A 
ATOM     14  C   UNL     1       6.873  -1.059  -8.659  0.00  0.00    +0.008 A 
ATOM     15  C   UNL     1       7.566  -1.205  -9.845  0.00  0.00    +0.049 A 
ATOM     16  C   UNL     1       7.509  -0.211 -10.809  0.00  0.00    +0.161 A 
ATOM     17  C   UNL     1       6.748   0.931 -10.581  0.00  0.00    +0.162 A 
ATOM     18  C   UNL     1       6.050   1.069  -9.391  0.00  0.00    +0.053 A 
BRANCH  17  19
ATOM     19  O   UNL     1       6.688   1.910 -11.523  0.00  0.00    -0.491 OA
ATOM     20  C   UNL     1       5.887   3.054 -11.221  0.00  0.00    +0.277 C 
ENDBRANCH  17  19
BRANCH  16  21
ATOM     21  O   UNL     1       8.196  -0.351 -11.974  0.00  0.00    -0.491 OA
ATOM     22  C   UNL     1       8.956  -1.549 -12.139  0.00  0.00    +0.277 C 
ENDBRANCH  16  21
ENDBRANCH   9  13
BRANCH   4  23
ATOM     23  C   UNL     1       3.597  -1.454  -2.568  0.00  0.00    -0.038 A 
ATOM     24  C   UNL     1       4.808  -2.009  -2.197  0.00  0.00    +0.008 A 
ATOM     25  C   UNL     1       4.843  -3.235  -1.563  0.00  0.00    +0.045 A 
ATOM     26  C   UNL     1       3.661  -3.917  -1.308  0.00  0.00    +0.117 A 
ATOM     27  C   UNL     1       2.447  -3.361  -1.687  0.00  0.00    +0.045 A 
ATOM     28  C   UNL     1       2.418  -2.131  -2.315  0.00  0.00    +0.008 A 
BRANCH  26  29
ATOM     29  O   UNL     1       3.693  -5.127  -0.691  0.00  0.00    -0.507 OA
ATOM     30  H   UNL     1       3.763  -5.876  -1.297  0.00  0.00    +0.292 HD
ENDBRANCH  26  29
ENDBRANCH   4  23
BRANCH   3  31
ATOM     31  C   UNL     1       3.422   1.416  -1.262  0.00  0.00    +0.317 C 
ATOM     32  O   UNL     1       3.939   2.174  -0.462  0.00  0.00    -0.250 OA
BRANCH  31  33
ATOM     33  O   UNL     1       2.130   1.056  -1.111  0.00  0.00    -0.464 OA
BRANCH  33  34
ATOM     34  C   UNL     1       1.431   1.601   0.009  0.00  0.00    +0.235 C 
BRANCH  34  35
ATOM     35  C   UNL     1      -0.009   1.083   0.013  0.00  0.00    +0.020 C 
ATOM     36  C   UNL     1      -0.745   1.611  -1.220  0.00  0.00    +0.010 C 
ATOM     37  C   UNL     1      -0.722   1.566   1.278  0.00  0.00    +0.010 C 
ENDBRANCH  34  35
ENDBRANCH  33  34
ENDBRANCH  31  33
ENDBRANCH   3  31
TORSDOF 9
