REMARK  Name = ZINC35541889
REMARK  5 active torsions:
REMARK  status: ('A' for Active; 'I' for Inactive)
REMARK    1  A    between atoms: C_1  and  C_2
REMARK    2  A    between atoms: C_2  and  N_3
REMARK    3  A    between atoms: N_3  and  C_4
REMARK    4  A    between atoms: C_4  and  C_6
REMARK    5  A    between atoms: C_4  and  C_15
REMARK                            x       y       z     vdW  Elec       q    Type
REMARK                         _______ _______ _______ _____ _____    ______ ____
ROOT
ATOM      1  C   UNL     1      -1.356  -1.981   0.004  0.00  0.00    -0.009 C 
ENDROOT
BRANCH   1   2
ATOM      2  C   UNL     1      -0.737  -2.482   1.284  0.00  0.00    -0.053 A 
ATOM      3  C   UNL     1      -1.032  -1.861   2.483  0.00  0.00    +0.006 A 
ATOM      4  C   UNL     1      -0.467  -2.317   3.659  0.00  0.00    +0.050 A 
ATOM      5  C   UNL     1       0.399  -3.399   3.638  0.00  0.00    +0.166 A 
ATOM      6  C   UNL     1       0.696  -4.025   2.430  0.00  0.00    +0.166 A 
ATOM      7  C   UNL     1       0.121  -3.566   1.256  0.00  0.00    +0.052 A 
ATOM      8  O   UNL     1       1.562  -5.052   2.673  0.00  0.00    -0.453 OA
ATOM      9  C   UNL     1       2.109  -4.793   3.979  0.00  0.00    +0.466 C 
ATOM     10  O   UNL     1       1.078  -4.034   4.638  0.00  0.00    -0.453 OA
ENDBRANCH   1   2
BRANCH   1  11
ATOM     11  C   UNL     1      -2.766  -2.502  -0.109  0.00  0.00    -0.042 A 
ATOM     12  C   UNL     1      -3.832  -1.686   0.219  0.00  0.00    +0.018 A 
ATOM     13  C   UNL     1      -5.126  -2.164   0.115  0.00  0.00    +0.018 A 
ATOM     14  C   UNL     1      -5.353  -3.459  -0.317  0.00  0.00    +0.016 A 
ATOM     15  C   UNL     1      -4.286  -4.275  -0.645  0.00  0.00    +0.016 A 
ATOM     16  C   UNL     1      -2.992  -3.795  -0.546  0.00  0.00    +0.020 A 
ATOM     17 BR   UNL     1      -1.534  -4.908  -1.002  0.00  0.00    -0.050 Br
ATOM     18 BR   UNL     1      -6.585  -1.049   0.564  0.00  0.00    -0.050 Br
ENDBRANCH   1  11
BRANCH   1  19
ATOM     19  N   UNL     1      -1.376  -0.512   0.012  0.00  0.00    +0.386 N 
ATOM     20  H   UNL     1      -1.848  -0.187   0.843  0.00  0.00    -0.085 HD
ATOM     21  H   UNL     1      -1.864  -0.178  -0.805  0.00  0.00    -0.085 HD
BRANCH  19  23
ATOM     22  C   UNL     1      -0.019   1.526   0.010  0.00  0.00    -0.017 C 
ATOM     23  C   UNL     1       0.002  -0.004   0.002  0.00  0.00    -0.085 C 
ENDBRANCH  19  23
ENDBRANCH   1  19
TORSDOF 4
