REMARK  Name = ZINC05720357
REMARK  8 active torsions:
REMARK  status: ('A' for Active; 'I' for Inactive)
REMARK    1  A    between atoms: C_1  and  O_2
REMARK    2  A    between atoms: O_2  and  C_3
REMARK    3  A    between atoms: C_6  and  O_28
REMARK    4  A    between atoms: C_7  and  C_9
REMARK    5  A    between atoms: C_12  and  C_21
REMARK    6  A    between atoms: N_13  and  C_15
REMARK    7  A    between atoms: C_24  and  O_27
REMARK    8  A    between atoms: O_28  and  C_29
REMARK                            x       y       z     vdW  Elec       q    Type
REMARK                         _______ _______ _______ _____ _____    ______ ____
ROOT
ATOM      1  C   UNL     1      -3.472  -1.343   0.161  0.00  0.00    +0.131 C 
ATOM      2  C   UNL     1      -2.483  -0.205   0.034  0.00  0.00    +0.023 C 
ATOM      3  C   UNL     1      -1.280  -0.759  -0.117  0.00  0.00    +0.055 C 
ATOM      4  N   UNL     1      -1.357  -2.144  -0.096  0.00  0.00    -0.235 N 
ATOM      5  N   UNL     1      -2.646  -2.563   0.068  0.00  0.00    -0.224 NA
ATOM      6  H   UNL     1      -2.939  -3.141  -0.705  0.00  0.00    +0.146 HD
ENDROOT
BRANCH   1  11
ATOM      7  C   UNL     1      -4.295  -1.908   3.806  0.00  0.00    +0.121 A 
ATOM      8  C   UNL     1      -5.457  -1.165   3.947  0.00  0.00    +0.049 A 
ATOM      9  C   UNL     1      -5.975  -0.481   2.864  0.00  0.00    +0.049 A 
ATOM     10  C   UNL     1      -5.333  -0.538   1.636  0.00  0.00    +0.125 A 
ATOM     11  C   UNL     1      -4.170  -1.282   1.495  0.00  0.00    +0.020 A 
ATOM     12  C   UNL     1      -3.655  -1.970   2.577  0.00  0.00    +0.054 A 
BRANCH   7  14
ATOM     13  C   UNL     1      -4.498  -2.478   6.106  0.00  0.00    +0.277 C 
ATOM     14  O   UNL     1      -3.785  -2.581   4.872  0.00  0.00    -0.495 OA
ENDBRANCH   7  14
BRANCH  10  15
ATOM     15  O   UNL     1      -5.842   0.135   0.570  0.00  0.00    -0.495 OA
ATOM     16  C   UNL     1      -7.042   0.880   0.787  0.00  0.00    +0.277 C 
ENDBRANCH  10  15
ENDBRANCH   1  11
BRANCH   4  17
ATOM     17  C   UNL     1      -0.259  -2.999  -0.225  0.00  0.00    +0.050 A 
ATOM     18  C   UNL     1       0.656  -2.806  -1.253  0.00  0.00    +0.025 A 
ATOM     19  C   UNL     1       1.743  -3.649  -1.374  0.00  0.00    +0.002 A 
ATOM     20  C   UNL     1       1.915  -4.691  -0.482  0.00  0.00    +0.000 A 
ATOM     21  C   UNL     1       1.004  -4.889   0.539  0.00  0.00    +0.002 A 
ATOM     22  C   UNL     1      -0.083  -4.046   0.670  0.00  0.00    +0.025 A 
ENDBRANCH   4  17
BRANCH   3  23
ATOM     23  C   UNL     1      -0.023   0.006  -0.279  0.00  0.00    -0.002 A 
ATOM     24  C   UNL     1       1.100  -0.326   0.479  0.00  0.00    +0.013 A 
ATOM     25  C   UNL     1       2.269   0.388   0.325  0.00  0.00    +0.046 A 
ATOM     26  C   UNL     1       2.330   1.437  -0.583  0.00  0.00    +0.117 A 
ATOM     27  C   UNL     1       1.214   1.770  -1.339  0.00  0.00    +0.046 A 
ATOM     28  C   UNL     1       0.041   1.060  -1.190  0.00  0.00    +0.013 A 
BRANCH  26  29
ATOM     29  O   UNL     1       3.484   2.139  -0.732  0.00  0.00    -0.507 OA
ATOM     30  H   UNL     1       3.558   2.903  -0.144  0.00  0.00    +0.292 HD
ENDBRANCH  26  29
ENDBRANCH   3  23
TORSDOF 6
