REMARK  Name = ZINC15938516
REMARK  9 active torsions:
REMARK  status: ('A' for Active; 'I' for Inactive)
REMARK    1  A    between atoms: C_1  and  O_2
REMARK    2  A    between atoms: O_2  and  C_3
REMARK    3  A    between atoms: C_5  and  N_34
REMARK    4  A    between atoms: C_7  and  C_9
REMARK    5  A    between atoms: N_10  and  N_11
REMARK    6  A    between atoms: C_12  and  C_14
REMARK    7  A    between atoms: C_14  and  N_25
REMARK    8  A    between atoms: C_15  and  C_16
REMARK    9  A    between atoms: C_26  and  C_28
REMARK                            x       y       z     vdW  Elec       q    Type
REMARK                         _______ _______ _______ _____ _____    ______ ____
ROOT
ATOM      1  C   UNL     1       8.629   2.460   0.022  0.00  0.00    +0.098 C 
ATOM      2  C   UNL     1       8.597   3.805  -0.131  0.00  0.00    +0.036 C 
ENDROOT
BRANCH   2   3
ATOM      3  C   UNL     1       7.329   4.532   0.023  0.00  0.00    -0.019 A 
ATOM      4  C   UNL     1       6.134   3.964  -0.433  0.00  0.00    +0.012 A 
ATOM      5  C   UNL     1       4.946   4.646  -0.284  0.00  0.00    +0.050 A 
ATOM      6  C   UNL     1       4.930   5.901   0.309  0.00  0.00    +0.166 A 
ATOM      7  C   UNL     1       6.118   6.477   0.762  0.00  0.00    +0.167 A 
ATOM      8  C   UNL     1       7.312   5.798   0.620  0.00  0.00    +0.057 A 
ATOM      9  O   UNL     1       5.833   7.699   1.298  0.00  0.00    -0.453 OA
ATOM     10  C   UNL     1       4.414   7.690   1.541  0.00  0.00    +0.466 C 
ATOM     11  O   UNL     1       3.905   6.764   0.564  0.00  0.00    -0.453 OA
ENDBRANCH   2   3
BRANCH   1  13
ATOM     12  N   UNL     1       7.063   1.822   1.780  0.00  0.00    -0.202 N 
ATOM     13  C   UNL     1       7.434   1.745   0.486  0.00  0.00    +0.277 C 
ATOM     14  O   UNL     1       6.778   1.083  -0.296  0.00  0.00    -0.267 OA
ATOM     15  H   UNL     1       7.542   2.406   2.388  0.00  0.00    +0.178 HD
BRANCH  12  17
ATOM     16  C   UNL     1       5.567   1.203   3.467  0.00  0.00    +0.142 C 
ATOM     17  N   UNL     1       5.986   1.057   2.247  0.00  0.00    -0.187 NA
BRANCH  16  22
ATOM     18  C   UNL     1       2.544  -1.038   3.489  0.00  0.00    +0.169 A 
ATOM     19  C   UNL     1       2.106  -0.876   4.794  0.00  0.00    +0.082 A 
ATOM     20  C   UNL     1       2.789  -0.043   5.662  0.00  0.00    +0.130 A 
ATOM     21  C   UNL     1       3.912   0.635   5.237  0.00  0.00    +0.046 A 
ATOM     22  C   UNL     1       4.366   0.481   3.925  0.00  0.00    +0.047 A 
ATOM     23  C   UNL     1       3.675  -0.362   3.046  0.00  0.00    +0.229 A 
ATOM     24  O   UNL     1       4.107  -0.519   1.767  0.00  0.00    -0.283 OA
BRANCH  20  25
ATOM     25  N   UNL     1       2.307   0.128   7.051  0.00  0.00    +0.057 N 
ATOM     26  O   UNL     1       1.312  -0.465   7.428  0.00  0.00    -0.126 OA
ATOM     27  O   UNL     1       2.906   0.861   7.818  0.00  0.00    -0.126 OA
ENDBRANCH  20  25
BRANCH  18  29
ATOM     28  C   UNL     1       0.714  -2.522   3.163  0.00  0.00    +0.277 C 
ATOM     29  O   UNL     1       1.868  -1.859   2.641  0.00  0.00    -0.491 OA
ENDBRANCH  18  29
ENDBRANCH  16  22
ENDBRANCH  12  17
ENDBRANCH   1  13
BRANCH   1  30
ATOM     30  N   UNL     1       9.801   1.752  -0.263  0.00  0.00    -0.277 N 
ATOM     31  C   UNL     1       9.825   0.410  -0.136  0.00  0.00    +0.248 C 
ATOM     32  O   UNL     1       8.804  -0.194   0.128  0.00  0.00    -0.270 OA
ATOM     33  H   UNL     1      10.596   2.226  -0.553  0.00  0.00    +0.155 HD
BRANCH  31  34
ATOM     34  C   UNL     1      11.094  -0.327  -0.317  0.00  0.00    +0.037 A 
ATOM     35  C   UNL     1      12.267   0.363  -0.626  0.00  0.00    +0.013 A 
ATOM     36  C   UNL     1      13.449  -0.330  -0.788  0.00  0.00    +0.001 A 
ATOM     37  C   UNL     1      13.471  -1.707  -0.656  0.00  0.00    +0.000 A 
ATOM     38  C   UNL     1      12.310  -2.397  -0.357  0.00  0.00    +0.001 A 
ATOM     39  C   UNL     1      11.123  -1.716  -0.186  0.00  0.00    +0.013 A 
ENDBRANCH  31  34
ENDBRANCH   1  30
TORSDOF 8
