REMARK  Name = ZINC02082376
REMARK  6 active torsions:
REMARK  status: ('A' for Active; 'I' for Inactive)
REMARK    1  A    between atoms: C_1  and  C_2
REMARK    2  A    between atoms: C_2  and  C_3
REMARK    3  A    between atoms: C_3  and  C_4
REMARK    4  A    between atoms: C_4  and  C_5
REMARK    5  A    between atoms: C_14  and  C_17
REMARK    6  A    between atoms: N_20  and  N_21
REMARK                            x       y       z     vdW  Elec       q    Type
REMARK                         _______ _______ _______ _____ _____    ______ ____
ROOT
ATOM      1  C   UNL     1       0.002  -0.004   0.002  0.00  0.00    +0.131 A 
ATOM      2  N   UNL     1       1.129  -0.665  -0.013  0.00  0.00    -0.225 NA
ATOM      3  C   UNL     1       2.296  -0.026  -0.020  0.00  0.00    +0.116 A 
ATOM      4  C   UNL     1       2.377   1.375  -0.013  0.00  0.00    +0.077 A 
ATOM      5  C   UNL     1       3.727   1.938  -0.020  0.00  0.00    -0.022 A 
ATOM      6  C   UNL     1       4.755   1.063  -0.034  0.00  0.00    -0.004 A 
ATOM      7  S   UNL     1       3.995  -0.539  -0.039  0.00  0.00    -0.073 S 
ATOM      8  C   UNL     1       6.219   1.382  -0.043  0.00  0.00    +0.043 C 
ATOM      9  C   UNL     1       6.395   2.858   0.341  0.00  0.00    +0.009 C 
ATOM     10  C   UNL     1       5.417   3.700  -0.483  0.00  0.00    -0.009 C 
ATOM     11  C   UNL     1       3.985   3.442  -0.014  0.00  0.00    +0.040 C 
ATOM     12  C   UNL     1       5.750   5.183  -0.308  0.00  0.00    +0.008 C 
ATOM     13  C   UNL     1       1.123   2.070   0.002  0.00  0.00    +0.279 A 
ATOM     14  O   UNL     1       1.090   3.288   0.008  0.00  0.00    -0.265 OA
ATOM     15  N   UNL     1      -0.016   1.354   0.009  0.00  0.00    -0.218 N 
ENDROOT
BRANCH  15  16
ATOM     16  N   UNL     1      -1.216   2.006   0.019  0.00  0.00    -0.294 N 
ATOM     17  H   UNL     1      -1.084   3.007   0.024  0.00  0.00    +0.163 HD
ATOM     18  H   UNL     1      -1.789   1.721  -0.762  0.00  0.00    +0.163 HD
ENDBRANCH  15  16
BRANCH   1  19
ATOM     19  C   UNL     1      -1.300  -0.762   0.010  0.00  0.00    +0.076 C 
BRANCH  19  20
ATOM     20  C   UNL     1      -1.016  -2.265  -0.000  0.00  0.00    +0.007 C 
BRANCH  20  22
ATOM     21  C   UNL     1      -2.054  -4.538  -0.003  0.00  0.00    +0.004 C 
ATOM     22  C   UNL     1      -2.338  -3.035   0.008  0.00  0.00    -0.003 C 
ENDBRANCH  20  22
ENDBRANCH  19  20
ENDBRANCH   1  19
TORSDOF 4
