REMARK  Name = ZINC12360487
REMARK  6 active torsions:
REMARK  status: ('A' for Active; 'I' for Inactive)
REMARK    1  A    between atoms: N_9  and  C_10
REMARK    2  A    between atoms: C_10  and  C_11
REMARK    3  A    between atoms: C_13  and  C_16
REMARK    4  A    between atoms: C_18  and  C_36
REMARK    5  A    between atoms: C_19  and  N_35
REMARK    6  A    between atoms: N_20  and  C_28
REMARK                            x       y       z     vdW  Elec       q    Type
REMARK                         _______ _______ _______ _____ _____    ______ ____
ROOT
ATOM      1  C   UNL     1      -3.618   3.315   0.894  0.00  0.00    +0.104 C 
ATOM      2  C   UNL     1      -3.583   1.926   0.329  0.00  0.00    +0.077 C 
ATOM      3  C   UNL     1      -2.416   1.366  -0.089  0.00  0.00    +0.107 C 
ATOM      4  N   UNL     1      -1.240   2.075   0.005  0.00  0.00    -0.260 N 
ATOM      5  C   UNL     1      -1.258   3.441   0.116  0.00  0.00    +0.024 C 
ATOM      6  C   UNL     1      -2.370   4.082   0.534  0.00  0.00    +0.026 C 
ATOM      7  C   UNL     1      -2.399   5.483   0.650  0.00  0.00    +0.162 C 
ATOM      8  O   UNL     1      -3.422   6.031   1.010  0.00  0.00    -0.292 OA
ATOM      9  C   UNL     1      -1.186   6.316   0.336  0.00  0.00    +0.080 C 
ATOM     10  C   UNL     1       0.072   5.482   0.598  0.00  0.00    +0.014 C 
ATOM     11  C   UNL     1      -0.008   4.206  -0.243  0.00  0.00    +0.052 C 
ENDROOT
BRANCH   4  12
ATOM     12  C   UNL     1      -0.016   1.396  -0.019  0.00  0.00    +0.040 A 
ATOM     13  C   UNL     1       0.616   1.144  -1.230  0.00  0.00    +0.025 A 
ATOM     14  C   UNL     1       1.821   0.470  -1.251  0.00  0.00    +0.022 A 
ATOM     15  C   UNL     1       2.398   0.045  -0.067  0.00  0.00    +0.041 A 
ATOM     16  C   UNL     1       1.771   0.294   1.140  0.00  0.00    +0.022 A 
ATOM     17  C   UNL     1       0.566   0.968   1.167  0.00  0.00    +0.025 A 
ATOM     18 CL   UNL     1       3.914  -0.802  -0.098  0.00  0.00    -0.084 Cl
ENDBRANCH   4  12
BRANCH   1  21
ATOM     19  C   UNL     1      -4.612   3.504   4.566  0.00  0.00    -0.020 A 
ATOM     20  C   UNL     1      -4.717   3.697   3.202  0.00  0.00    +0.017 A 
ATOM     21  C   UNL     1      -3.732   3.234   2.394  0.00  0.00    +0.003 A 
ATOM     22  S   UNL     1      -2.601   2.510   3.570  0.00  0.00    -0.100 S 
ATOM     23  C   UNL     1      -3.521   2.867   5.058  0.00  0.00    +0.051 A 
BRANCH  19  24
ATOM     24  C   UNL     1      -5.690   4.001   5.495  0.00  0.00    +0.159 C 
BRANCH  24  33
ATOM     25  C   UNL     1      -6.022   9.142   4.372  0.00  0.00    +0.002 A 
ATOM     26  C   UNL     1      -6.504   8.092   3.602  0.00  0.00    +0.002 A 
ATOM     27  C   UNL     1      -6.346   6.789   4.021  0.00  0.00    +0.028 A 
ATOM     28  C   UNL     1      -5.699   6.525   5.221  0.00  0.00    +0.069 A 
ATOM     29  C   UNL     1      -5.211   7.588   6.000  0.00  0.00    +0.089 A 
ATOM     30  C   UNL     1      -5.383   8.902   5.555  0.00  0.00    +0.030 A 
ATOM     31  N   UNL     1      -4.635   7.040   7.101  0.00  0.00    -0.236 NA
ATOM     32  C   UNL     1      -4.741   5.744   7.050  0.00  0.00    +0.200 A 
ATOM     33  N   UNL     1      -5.384   5.372   5.910  0.00  0.00    -0.326 N 
ENDBRANCH  24  33
ENDBRANCH  19  24
ENDBRANCH   1  21
BRANCH   3  34
ATOM     34  N   UNL     1      -2.409   0.090  -0.600  0.00  0.00    -0.345 N 
ATOM     35  H   UNL     1      -1.568  -0.341  -0.817  0.00  0.00    +0.144 HD
ATOM     36  H   UNL     1      -3.246  -0.379  -0.745  0.00  0.00    +0.144 HD
ENDBRANCH   3  34
BRANCH   2  37
ATOM     37  C   UNL     1      -4.800   1.179   0.222  0.00  0.00    +0.099 C 
ATOM     38  N   UNL     1      -5.765   0.586   0.137  0.00  0.00    -0.191 NA
ENDBRANCH   2  37
TORSDOF 6
