REMARK  Name = ZINC43286789
REMARK  8 active torsions:
REMARK  status: ('A' for Active; 'I' for Inactive)
REMARK    1  A    between atoms: C_1  and  C_2
REMARK    2  A    between atoms: C_2  and  C_4
REMARK    3  A    between atoms: C_2  and  N_22
REMARK    4  A    between atoms: C_4  and  C_6
REMARK    5  A    between atoms: C_4  and  N_12
REMARK    6  A    between atoms: N_12  and  C_13
REMARK    7  A    between atoms: N_12  and  C_14
REMARK    8  A    between atoms: C_14  and  C_15
REMARK                            x       y       z     vdW  Elec       q    Type
REMARK                         _______ _______ _______ _____ _____    ______ ____
ROOT
ATOM      1  C   UNL     1       0.830  -0.395   1.214  0.00  0.00    +0.079 C 
ENDROOT
BRANCH   1   2
ATOM      2  C   UNL     1       0.675  -1.894   1.201  0.00  0.00    +0.006 A 
ATOM      3  C   UNL     1      -0.031  -2.673   0.346  0.00  0.00    +0.028 A 
ATOM      4  C   UNL     1      -0.029  -4.043   0.529  0.00  0.00    +0.025 A 
ATOM      5  C   UNL     1       0.680  -4.568   1.559  0.00  0.00    +0.060 A 
ATOM      6  S   UNL     1       1.382  -3.106   2.305  0.00  0.00    -0.099 S 
ATOM      7 BR   UNL     1      -1.001  -5.169  -0.639  0.00  0.00    -0.050 Br
ENDBRANCH   1   2
BRANCH   1   9
ATOM      8  C   UNL     1       0.380  -0.275   3.668  0.00  0.00    -0.012 C 
ATOM      9  C   UNL     1      -0.080   0.202   2.289  0.00  0.00    -0.056 C 
BRANCH   9  10
ATOM     10  N   UNL     1      -1.464  -0.232   2.057  0.00  0.00    +0.381 N 
ATOM     11  H   UNL     1      -2.063   0.162   2.767  0.00  0.00    -0.090 HD
ATOM     12  H   UNL     1      -1.767   0.082   1.148  0.00  0.00    -0.090 HD
ATOM     13  H   UNL     1      -1.511  -1.239   2.098  0.00  0.00    -0.090 HD
ENDBRANCH   9  10
ENDBRANCH   1   9
BRANCH   1  14
ATOM     14  N   UNL     1       2.227  -0.049   1.506  0.00  0.00    -0.291 NA
ATOM     15  C   UNL     1       2.400   1.406   1.602  0.00  0.00    +0.106 C 
BRANCH  14  16
ATOM     16  C   UNL     1       3.132  -0.621   0.500  0.00  0.00    +0.180 C 
BRANCH  16  17
ATOM     17  C   UNL     1       4.559  -0.459   0.959  0.00  0.00    +0.230 C 
ATOM     18  O   UNL     1       4.798   0.080   2.019  0.00  0.00    -0.274 OA
ATOM     19  N   UNL     1       5.569  -0.913   0.191  0.00  0.00    -0.300 N 
ATOM     20  C   UNL     1       5.423  -1.577  -1.113  0.00  0.00    +0.108 C 
ATOM     21  C   UNL     1       6.840  -1.941  -1.603  0.00  0.00    +0.020 C 
ATOM     22  C   UNL     1       7.666  -1.969  -0.289  0.00  0.00    +0.020 C 
ATOM     23  C   UNL     1       7.004  -0.821   0.516  0.00  0.00    +0.108 C 
ENDBRANCH  16  17
ENDBRANCH  14  16
ENDBRANCH   1  14
TORSDOF 6
