REMARK  Name = ZINC17096657
REMARK  7 active torsions:
REMARK  status: ('A' for Active; 'I' for Inactive)
REMARK    1  A    between atoms: C_1  and  C_2
REMARK    2  A    between atoms: C_5  and  O_29
REMARK    3  A    between atoms: C_6  and  N_8
REMARK    4  A    between atoms: N_8  and  C_9
REMARK    5  A    between atoms: C_9  and  N_11
REMARK    6  A    between atoms: N_11  and  C_12
REMARK    7  A    between atoms: C_13  and  C_21
REMARK                            x       y       z     vdW  Elec       q    Type
REMARK                         _______ _______ _______ _____ _____    ______ ____
ROOT
ATOM      1  C   UNL     1      -0.096   1.758   0.791  0.00  0.00    +0.084 A 
ATOM      2  C   UNL     1       1.257   2.065   0.844  0.00  0.00    +0.069 A 
ATOM      3  C   UNL     1       2.165   1.020   1.285  0.00  0.00    -0.023 A 
ATOM      4  C   UNL     1       1.580  -0.156   1.600  0.00  0.00    -0.004 A 
ATOM      5  S   UNL     1      -0.148   0.109   1.320  0.00  0.00    -0.077 S 
ATOM      6  C   UNL     1       2.258  -1.402   2.079  0.00  0.00    +0.043 C 
ATOM      7  C   UNL     1       3.763  -1.270   1.805  0.00  0.00    +0.005 C 
ATOM      8  C   UNL     1       4.236   0.100   2.299  0.00  0.00    +0.005 C 
ATOM      9  C   UNL     1       3.674   1.200   1.396  0.00  0.00    +0.037 C 
ENDROOT
BRANCH   2  10
ATOM     10  C   UNL     1       1.751   3.393   0.468  0.00  0.00    +0.249 C 
ATOM     11  O   UNL     1       1.844   4.268   1.309  0.00  0.00    -0.270 OA
ATOM     12  N   UNL     1       2.102   3.645  -0.809  0.00  0.00    -0.297 N 
ATOM     13  C   UNL     1       2.000   2.597  -1.834  0.00  0.00    +0.108 C 
ATOM     14  C   UNL     1       1.165   3.138  -3.004  0.00  0.00    +0.019 C 
ATOM     15  C   UNL     1       1.782   4.446  -3.502  0.00  0.00    +0.003 C 
ATOM     16  C   UNL     1       1.761   5.483  -2.377  0.00  0.00    +0.019 C 
ATOM     17  C   UNL     1       2.599   4.971  -1.201  0.00  0.00    +0.108 C 
ENDBRANCH   2  10
BRANCH   1  18
ATOM     18  N   UNL     1      -1.148   2.572   0.404  0.00  0.00    -0.291 N 
ATOM     19  H   UNL     1      -0.979   3.486   0.127  0.00  0.00    +0.154 HD
BRANCH  18  20
ATOM     20  C   UNL     1      -2.408   2.094   0.412  0.00  0.00    +0.139 C 
ATOM     21  S   UNL     1      -2.708   0.480   0.901  0.00  0.00    -0.018 S 
BRANCH  20  22
ATOM     22  N   UNL     1      -3.432   2.885   0.035  0.00  0.00    -0.294 N 
ATOM     23  H   UNL     1      -3.274   3.821  -0.165  0.00  0.00    +0.154 HD
BRANCH  22  29
ATOM     24  C   UNL     1      -6.424  -0.728  -1.438  0.00  0.00    +0.044 C 
ATOM     25  C   UNL     1      -6.205   0.607  -0.775  0.00  0.00    -0.048 A 
ATOM     26  C   UNL     1      -7.282   1.309  -0.267  0.00  0.00    +0.007 A 
ATOM     27  C   UNL     1      -7.088   2.535   0.343  0.00  0.00    +0.047 A 
ATOM     28  C   UNL     1      -5.811   3.060   0.451  0.00  0.00    +0.138 A 
ATOM     29  C   UNL     1      -4.726   2.356  -0.066  0.00  0.00    +0.075 A 
ATOM     30  C   UNL     1      -4.928   1.127  -0.677  0.00  0.00    +0.030 A 
BRANCH  28  31
ATOM     31  O   UNL     1      -5.617   4.263   1.055  0.00  0.00    -0.505 OA
ATOM     32  H   UNL     1      -5.667   5.018   0.453  0.00  0.00    +0.292 HD
ENDBRANCH  28  31
ENDBRANCH  22  29
ENDBRANCH  20  22
ENDBRANCH  18  20
ENDBRANCH   1  18
TORSDOF 6
