REMARK  Name = ZINC22260759
REMARK  7 active torsions:
REMARK  status: ('A' for Active; 'I' for Inactive)
REMARK    1  A    between atoms: C_1  and  C_2
REMARK    2  A    between atoms: C_3  and  C_30
REMARK    3  A    between atoms: C_11  and  C_13
REMARK    4  A    between atoms: C_13  and  C_15
REMARK    5  A    between atoms: C_13  and  O_16
REMARK    6  A    between atoms: O_16  and  C_17
REMARK    7  A    between atoms: C_17  and  C_19
REMARK                            x       y       z     vdW  Elec       q    Type
REMARK                         _______ _______ _______ _____ _____    ______ ____
ROOT
ATOM      1  C   UNL     1       0.090  -3.432   4.547  0.00  0.00    +0.239 C 
ATOM      2  C   UNL     1       0.478  -4.829   4.058  0.00  0.00    +0.060 C 
ENDROOT
BRANCH   1  13
ATOM      3  C   UNL     1      -0.018   1.503   0.010  0.00  0.00    +0.045 C 
ATOM      4  C   UNL     1       0.002  -0.004   0.002  0.00  0.00    -0.026 A 
ATOM      5  C   UNL     1       0.006  -0.677  -1.160  0.00  0.00    -0.008 A 
ATOM      6  S   UNL     1       0.032  -2.385  -0.648  0.00  0.00    -0.073 S 
ATOM      7  C   UNL     1       0.037  -2.144   1.110  0.00  0.00    +0.116 A 
ATOM      8  C   UNL     1       0.024  -0.745   1.250  0.00  0.00    +0.075 A 
ATOM      9  C   UNL     1       0.029  -0.257   2.597  0.00  0.00    +0.260 A 
ATOM     10  O   UNL     1       0.014   0.942   2.821  0.00  0.00    -0.267 OA
ATOM     11  N   UNL     1       0.051  -1.142   3.611  0.00  0.00    -0.307 N 
ATOM     12  H   UNL     1       0.054  -0.817   4.525  0.00  0.00    +0.170 HD
ATOM     13  C   UNL     1       0.067  -2.480   3.380  0.00  0.00    +0.152 A 
ATOM     14  N   UNL     1       0.053  -2.956   2.163  0.00  0.00    -0.223 NA
ATOM     15  C   UNL     1      -0.009  -0.122  -2.561  0.00  0.00    +0.052 C 
ENDBRANCH   1  13
BRANCH   1  16
ATOM     16  O   UNL     1      -1.206  -3.481   5.148  0.00  0.00    -0.450 OA
BRANCH  16  17
ATOM     17  C   UNL     1      -1.258  -3.735   6.471  0.00  0.00    +0.340 C 
ATOM     18  O   UNL     1      -0.231  -3.910   7.096  0.00  0.00    -0.245 OA
BRANCH  17  19
ATOM     19  C   UNL     1      -2.560  -3.799   7.158  0.00  0.00    +0.063 A 
ATOM     20  C   UNL     1      -3.742  -3.603   6.438  0.00  0.00    +0.017 A 
ATOM     21  C   UNL     1      -4.960  -3.664   7.080  0.00  0.00    +0.028 A 
ATOM     22  C   UNL     1      -5.014  -3.920   8.444  0.00  0.00    +0.076 A 
ATOM     23  C   UNL     1      -3.837  -4.116   9.170  0.00  0.00    +0.143 A 
ATOM     24  C   UNL     1      -2.615  -4.063   8.531  0.00  0.00    +0.062 A 
ATOM     25  O   UNL     1      -3.908  -4.362  10.506  0.00  0.00    -0.481 OA
ATOM     26  C   UNL     1      -4.978  -3.736  11.217  0.00  0.00    +0.325 C 
ATOM     27  C   UNL     1      -6.266  -3.917  10.455  0.00  0.00    +0.255 C 
ATOM     28  O   UNL     1      -7.319  -4.000  11.050  0.00  0.00    -0.272 OA
ATOM     29  N   UNL     1      -6.243  -3.985   9.106  0.00  0.00    -0.280 N 
ATOM     30  H   UNL     1      -7.068  -4.077   8.604  0.00  0.00    +0.155 HD
ENDBRANCH  17  19
ENDBRANCH  16  17
ENDBRANCH   1  16
TORSDOF 4
