REMARK  Name = ZINC09148305
REMARK  3 active torsions:
REMARK  status: ('A' for Active; 'I' for Inactive)
REMARK    1  A    between atoms: C_3  and  C_6
REMARK    2  A    between atoms: N_7  and  N_8
REMARK    3  A    between atoms: C_19  and  C_21
REMARK                            x       y       z     vdW  Elec       q    Type
REMARK                         _______ _______ _______ _____ _____    ______ ____
ROOT
ATOM      1  N   UNL     1       4.764   0.718  -0.013  0.00  0.00    -0.131 N 
ATOM      2  C   UNL     1       6.105   1.000  -0.220  0.00  0.00    +0.189 A 
ATOM      3  N   UNL     1       7.052   0.212  -0.674  0.00  0.00    -0.223 NA
ATOM      4  C   UNL     1       8.328   0.625  -0.826  0.00  0.00    +0.080 A 
ATOM      5  C   UNL     1       9.435  -0.117  -1.302  0.00  0.00    +0.030 A 
ATOM      6  C   UNL     1      10.675   0.458  -1.395  0.00  0.00    +0.022 A 
ATOM      7  C   UNL     1      10.891   1.780  -1.031  0.00  0.00    +0.042 A 
ATOM      8  C   UNL     1       9.831   2.535  -0.562  0.00  0.00    +0.037 A 
ATOM      9  C   UNL     1       8.585   1.967  -0.465  0.00  0.00    +0.042 A 
ATOM     10  S   UNL     1       6.983   2.532   0.057  0.00  0.00    -0.050 S 
ATOM     11 CL   UNL     1      12.475   2.479  -1.163  0.00  0.00    -0.084 Cl
ATOM     12  C   UNL     1       3.821   1.587  -0.428  0.00  0.00    +0.279 C 
ATOM     13  O   UNL     1       2.649   1.383  -0.168  0.00  0.00    -0.267 OA
ENDROOT
BRANCH  12  14
ATOM     14  C   UNL     1       4.205   2.775  -1.192  0.00  0.00    +0.077 A 
ATOM     15  C   UNL     1       3.523   3.973  -1.347  0.00  0.00    +0.022 A 
ATOM     16  C   UNL     1       4.116   4.933  -2.127  0.00  0.00    +0.024 A 
ATOM     17  C   UNL     1       5.322   4.670  -2.701  0.00  0.00    +0.056 A 
ATOM     18  S   UNL     1       5.673   3.059  -2.166  0.00  0.00    -0.077 S 
ATOM     19 BR   UNL     1       6.362   5.792  -3.812  0.00  0.00    -0.043 Br
ENDBRANCH  12  14
BRANCH   1  21
ATOM     20  C   UNL     1       3.133  -0.805   0.695  0.00  0.00    +0.177 C 
ATOM     21  N   UNL     1       4.389  -0.471   0.627  0.00  0.00    -0.175 NA
BRANCH  20  24
ATOM     22  C   UNL     1       1.515  -3.507   2.542  0.00  0.00    +0.042 A 
ATOM     23  C   UNL     1       1.445  -2.402   1.676  0.00  0.00    +0.051 A 
ATOM     24  C   UNL     1       2.722  -1.946   1.517  0.00  0.00    +0.147 A 
ATOM     25  O   UNL     1       3.540  -2.734   2.244  0.00  0.00    -0.462 OA
ATOM     26  C   UNL     1       2.813  -3.675   2.869  0.00  0.00    +0.196 A 
ENDBRANCH  20  24
ENDBRANCH   1  21
TORSDOF 3
