REMARK  Name = ZINC04601304
REMARK  8 active torsions:
REMARK  status: ('A' for Active; 'I' for Inactive)
REMARK    1  A    between atoms: C_1  and  C_2
REMARK    2  A    between atoms: C_7  and  N_12
REMARK    3  A    between atoms: C_9  and  C_11
REMARK    4  A    between atoms: C_13  and  C_15
REMARK    5  A    between atoms: C_15  and  S_16
REMARK    6  A    between atoms: S_16  and  C_17
REMARK    7  A    between atoms: C_20  and  C_23
REMARK    8  A    between atoms: N_21  and  N_22
REMARK                            x       y       z     vdW  Elec       q    Type
REMARK                         _______ _______ _______ _____ _____    ______ ____
ROOT
ATOM      1  S   UNL     1       6.979   0.362   2.835  0.00  0.00    -0.075 S 
ENDROOT
BRANCH   1   2
ATOM      2  C   UNL     1       8.526   1.187   2.658  0.00  0.00    +0.209 A 
ATOM      3  N   UNL     1       8.745   2.297   1.991  0.00  0.00    -0.121 NA
ATOM      4  N   UNL     1       9.986   2.623   2.067  0.00  0.00    -0.126 NA
ATOM      5  C   UNL     1      10.638   1.739   2.790  0.00  0.00    +0.188 A 
ATOM      6  N   UNL     1       9.721   0.795   3.196  0.00  0.00    -0.223 N 
BRANCH   5   7
ATOM      7  C   UNL     1      12.074   1.758   3.111  0.00  0.00    +0.058 A 
ATOM      8  C   UNL     1      12.974   2.787   2.987  0.00  0.00    +0.019 A 
ATOM      9  C   UNL     1      14.283   2.567   3.355  0.00  0.00    +0.008 A 
ATOM     10  C   UNL     1      14.642   1.345   3.826  0.00  0.00    +0.046 A 
ATOM     11  S   UNL     1      13.098   0.452   3.768  0.00  0.00    -0.093 S 
ENDBRANCH   5   7
BRANCH   6  12
ATOM     12  N   UNL     1       9.956  -0.305   3.971  0.00  0.00    -0.295 N 
ATOM     13  H   UNL     1      10.200  -1.102   3.402  0.00  0.00    +0.163 HD
ATOM     14  H   UNL     1      10.671  -0.118   4.657  0.00  0.00    +0.163 HD
ENDBRANCH   6  12
ENDBRANCH   1   2
BRANCH   1  15
ATOM     15  C   UNL     1       5.920   1.470   1.872  0.00  0.00    +0.173 C 
BRANCH  15  17
ATOM     16  N   UNL     1       3.537   1.616   1.226  0.00  0.00    -0.312 N 
ATOM     17  C   UNL     1       4.507   0.948   1.883  0.00  0.00    +0.224 C 
ATOM     18  O   UNL     1       4.241  -0.072   2.482  0.00  0.00    -0.275 OA
ATOM     19  H   UNL     1       3.749   2.432   0.747  0.00  0.00    +0.149 HD
BRANCH  16  25
ATOM     20  C   UNL     1      -0.753   1.593  -1.232  0.00  0.00    +0.008 C 
ATOM     21  C   UNL     1      -0.013   1.086   0.008  0.00  0.00    -0.009 C 
ATOM     22  C   UNL     1      -0.729   1.579   1.267  0.00  0.00    +0.003 C 
ATOM     23  C   UNL     1       0.011   1.072   2.506  0.00  0.00    +0.002 C 
ATOM     24  C   UNL     1       1.446   1.602   2.495  0.00  0.00    +0.022 C 
ATOM     25  C   UNL     1       2.163   1.109   1.237  0.00  0.00    +0.076 C 
ATOM     26  C   UNL     1       1.423   1.615  -0.003  0.00  0.00    +0.009 C 
ATOM     27  C   UNL     1       1.402   3.145   0.006  0.00  0.00    +0.009 C 
ENDBRANCH  16  25
ENDBRANCH  15  17
ENDBRANCH   1  15
TORSDOF 6
