REMARK  Name = ZINC51712541
REMARK  13 active torsions:
REMARK  status: ('A' for Active; 'I' for Inactive)
REMARK    1  A    between atoms: C_1  and  C_2
REMARK    2  A    between atoms: C_2  and  S_3
REMARK    3  A    between atoms: S_3  and  N_6
REMARK    4  A    between atoms: N_6  and  C_7
REMARK    5  A    between atoms: C_7  and  C_8
REMARK    6  A    between atoms: C_8  and  C_9
REMARK    7  A    between atoms: C_9  and  N_10
REMARK    8  A    between atoms: N_13  and  C_14
REMARK    9  A    between atoms: C_14  and  C_16
REMARK   10  A    between atoms: C_14  and  C_17
REMARK   11  A    between atoms: C_17  and  N_18
REMARK   12  A    between atoms: C_20  and  C_27
REMARK   13  A    between atoms: C_23  and  C_26
REMARK                            x       y       z     vdW  Elec       q    Type
REMARK                         _______ _______ _______ _____ _____    ______ ____
ROOT
ATOM      1  N   UNL     1      -1.703  -6.550  -1.517  0.00  0.00    -0.299 N 
ATOM      2  C   UNL     1      -2.667  -7.467  -1.732  0.00  0.00    +0.300 C 
ATOM      3  O   UNL     1      -3.835  -7.174  -1.559  0.00  0.00    -0.253 OA
ATOM      4  N   UNL     1      -2.337  -8.709  -2.138  0.00  0.00    -0.299 N 
ATOM      5  H   UNL     1      -0.772  -6.784  -1.655  0.00  0.00    +0.150 HD
ATOM      6  H   UNL     1      -1.406  -8.943  -2.276  0.00  0.00    +0.150 HD
ENDROOT
BRANCH   4   7
ATOM      7  C   UNL     1      -3.385  -9.706  -2.371  0.00  0.00    +0.055 C 
ATOM      8  C   UNL     1      -3.908  -9.571  -3.803  0.00  0.00    +0.026 C 
BRANCH   7   9
ATOM      9  C   UNL     1      -2.809 -11.109  -2.169  0.00  0.00    -0.057 C 
BRANCH   9  10
ATOM     10  N   UNL     1      -2.212 -11.204  -0.830  0.00  0.00    +0.381 N 
ATOM     11  C   UNL     1      -1.528 -12.496  -0.692  0.00  0.00    -0.076 C 
ATOM     12  C   UNL     1      -0.836 -12.568   0.670  0.00  0.00    -0.031 C 
ATOM     13  C   UNL     1      -1.883 -12.423   1.778  0.00  0.00    +0.003 C 
ATOM     14  C   UNL     1      -2.641 -11.107   1.580  0.00  0.00    -0.031 C 
ATOM     15  C   UNL     1      -3.267 -11.089   0.184  0.00  0.00    -0.076 C 
ATOM     16  C   UNL     1      -3.742 -10.988   2.636  0.00  0.00    +0.005 C 
ATOM     17  C   UNL     1       0.189 -11.437   0.783  0.00  0.00    +0.005 C 
ATOM     18  H   UNL     1      -1.544 -10.458  -0.706  0.00  0.00    -0.082 HD
ENDBRANCH   9  10
ENDBRANCH   7   9
ENDBRANCH   4   7
BRANCH   1  19
ATOM     19  C   UNL     1      -2.062  -5.200  -1.076  0.00  0.00    +0.107 C 
BRANCH  19  20
ATOM     20  C   UNL     1      -0.791  -4.364  -0.908  0.00  0.00    +0.035 C 
BRANCH  20  21
ATOM     21  C   UNL     1      -1.166  -2.954  -0.447  0.00  0.00    +0.107 C 
BRANCH  21  22
ATOM     22  N   UNL     1       0.051  -2.153  -0.286  0.00  0.00    -0.194 NA
ATOM     23  H   UNL     1       0.917  -2.589  -0.253  0.00  0.00    +0.148 HD
BRANCH  22  24
ATOM     24  S   UNL     1      -0.053  -0.505  -0.160  0.00  0.00    +0.029 S 
ATOM     25  O   UNL     1      -0.852  -0.107  -1.265  0.00  0.00    -0.158 OA
ATOM     26  O   UNL     1       1.293  -0.065  -0.043  0.00  0.00    -0.158 OA
BRANCH  24  28
ATOM     27  C   UNL     1      -1.099   1.294   1.615  0.00  0.00    +0.029 C 
ATOM     28  C   UNL     1      -0.944  -0.212   1.393  0.00  0.00    +0.181 C 
ENDBRANCH  24  28
ENDBRANCH  22  24
ENDBRANCH  21  22
ENDBRANCH  20  21
ENDBRANCH  19  20
ENDBRANCH   1  19
TORSDOF 9
