REMARK  Name = ZINC13496550
REMARK  5 active torsions:
REMARK  status: ('A' for Active; 'I' for Inactive)
REMARK    1  A    between atoms: C_4  and  C_7
REMARK    2  A    between atoms: C_7  and  N_8
REMARK    3  A    between atoms: N_10  and  C_14
REMARK    4  A    between atoms: C_14  and  C_15
REMARK    5  A    between atoms: C_15  and  C_17
REMARK                            x       y       z     vdW  Elec       q    Type
REMARK                         _______ _______ _______ _____ _____    ______ ____
ROOT
ATOM      1  N   UNL     1       4.152  -0.952   1.338  0.00  0.00    -0.364 N 
ATOM      2  C   UNL     1       5.273  -1.580   1.561  0.00  0.00    +0.131 C 
ATOM      3  N   UNL     1       5.837  -1.900   2.776  0.00  0.00    -0.303 N 
ATOM      4  C   UNL     1       7.239  -2.265   2.835  0.00  0.00    +0.118 C 
ATOM      5  C   UNL     1       7.919  -2.273   1.446  0.00  0.00    +0.096 C 
ATOM      6  S   UNL     1       6.428  -2.227   0.361  0.00  0.00    -0.091 S 
ATOM      7  H   UNL     1       3.610  -0.648   2.082  0.00  0.00    +0.162 HD
ENDROOT
BRANCH   1   8
ATOM      8  C   UNL     1       3.711  -0.707  -0.038  0.00  0.00    +0.150 C 
BRANCH   8  12
ATOM      9  C   UNL     1      -0.017   1.378   0.010  0.00  0.00    +0.000 A 
ATOM     10  C   UNL     1       1.171   2.086   0.002  0.00  0.00    +0.000 A 
ATOM     11  C   UNL     1       2.377   1.411  -0.013  0.00  0.00    +0.005 A 
ATOM     12  C   UNL     1       2.396   0.029  -0.020  0.00  0.00    -0.028 A 
ATOM     13  C   UNL     1       1.208  -0.679  -0.012  0.00  0.00    +0.005 A 
ATOM     14  C   UNL     1       0.002  -0.004   0.002  0.00  0.00    +0.000 A 
ENDBRANCH   8  12
ENDBRANCH   1   8
BRANCH   3  15
ATOM     15  C   UNL     1       5.027  -1.871   3.997  0.00  0.00    +0.186 C 
BRANCH  15  16
ATOM     16  C   UNL     1       4.403  -3.225   4.217  0.00  0.00    +0.180 C 
ATOM     17  O   UNL     1       4.613  -4.125   3.432  0.00  0.00    -0.290 OA
BRANCH  16  18
ATOM     18  C   UNL     1       3.538  -3.455   5.386  0.00  0.00    +0.019 A 
ATOM     19  C   UNL     1       3.289  -2.418   6.291  0.00  0.00    +0.011 A 
ATOM     20  C   UNL     1       2.477  -2.642   7.383  0.00  0.00    +0.001 A 
ATOM     21  C   UNL     1       1.910  -3.888   7.584  0.00  0.00    +0.000 A 
ATOM     22  C   UNL     1       2.152  -4.919   6.694  0.00  0.00    +0.001 A 
ATOM     23  C   UNL     1       2.957  -4.710   5.594  0.00  0.00    +0.011 A 
ENDBRANCH  16  18
ENDBRANCH  15  16
ENDBRANCH   3  15
TORSDOF 5
