REMARK  Name = ZINC17908303
REMARK  6 active torsions:
REMARK  status: ('A' for Active; 'I' for Inactive)
REMARK    1  A    between atoms: C_1  and  C_2
REMARK    2  A    between atoms: C_2  and  C_4
REMARK    3  A    between atoms: C_2  and  N_11
REMARK    4  A    between atoms: C_12  and  C_14
REMARK    5  A    between atoms: C_14  and  N_15
REMARK    6  A    between atoms: C_16  and  C_21
REMARK                            x       y       z     vdW  Elec       q    Type
REMARK                         _______ _______ _______ _____ _____    ______ ____
ROOT
ATOM      1  N   UNL     1      -1.372  -0.511   0.012  0.00  0.00    -0.307 N 
ATOM      2  C   UNL     1      -2.029  -0.655   1.181  0.00  0.00    +0.233 C 
ATOM      3  O   UNL     1      -1.481  -0.365   2.224  0.00  0.00    -0.274 OA
ATOM      4  H   UNL     1      -1.810  -0.743  -0.822  0.00  0.00    +0.149 HD
ENDROOT
BRANCH   1   6
ATOM      5  C   UNL     1      -0.019   1.526   0.010  0.00  0.00    +0.033 C 
ATOM      6  C   UNL     1       0.002  -0.004   0.002  0.00  0.00    +0.102 C 
BRANCH   6   7
ATOM      7  C   UNL     1       0.707  -0.490  -1.238  0.00  0.00    -0.009 A 
ATOM      8  C   UNL     1      -0.023  -0.817  -2.365  0.00  0.00    +0.007 A 
ATOM      9  C   UNL     1       0.624  -1.263  -3.502  0.00  0.00    +0.000 A 
ATOM     10  C   UNL     1       2.002  -1.382  -3.513  0.00  0.00    +0.001 A 
ATOM     11  C   UNL     1       2.733  -1.055  -2.387  0.00  0.00    +0.020 A 
ATOM     12  C   UNL     1       2.086  -0.604  -1.250  0.00  0.00    +0.046 A 
ATOM     13 CL   UNL     1       3.004  -0.187   0.163  0.00  0.00    -0.083 Cl
ENDBRANCH   6   7
ENDBRANCH   1   6
BRANCH   2  14
ATOM     14  C   UNL     1      -3.442  -1.177   1.191  0.00  0.00    +0.221 C 
BRANCH  14  15
ATOM     15  N   UNL     1      -3.929  -1.240   2.572  0.00  0.00    -0.292 N 
ATOM     16  C   UNL     1      -3.822  -2.300   3.445  0.00  0.00    +0.172 A 
ATOM     17  N   UNL     1      -4.390  -1.930   4.571  0.00  0.00    -0.128 NA
ATOM     18  N   UNL     1      -4.838  -0.731   4.463  0.00  0.00    -0.121 NA
ATOM     19  C   UNL     1      -4.580  -0.257   3.265  0.00  0.00    +0.203 A 
ATOM     20  S   UNL     1      -4.997   1.345   2.662  0.00  0.00    -0.009 SA
BRANCH  16  21
ATOM     21  C   UNL     1      -3.190  -3.601   3.169  0.00  0.00    +0.056 A 
ATOM     22  C   UNL     1      -2.810  -4.582   4.050  0.00  0.00    +0.019 A 
ATOM     23  C   UNL     1      -2.231  -5.728   3.553  0.00  0.00    +0.008 A 
ATOM     24  C   UNL     1      -2.055  -5.853   2.212  0.00  0.00    +0.046 A 
ATOM     25  S   UNL     1      -2.727  -4.317   1.600  0.00  0.00    -0.094 S 
ENDBRANCH  16  21
ENDBRANCH  14  15
ENDBRANCH   2  14
TORSDOF 5
