REMARK  Name = ZINC63814513
REMARK  16 active torsions:
REMARK  status: ('A' for Active; 'I' for Inactive)
REMARK    1  A    between atoms: C_1  and  C_2
REMARK    2  A    between atoms: C_2  and  C_3
REMARK    3  A    between atoms: C_4  and  C_36
REMARK    4  A    between atoms: C_6  and  N_13
REMARK    5  A    between atoms: C_7  and  C_8
REMARK    6  A    between atoms: C_8  and  O_10
REMARK    7  A    between atoms: O_10  and  C_11
REMARK    8  A    between atoms: C_11  and  C_12
REMARK    9  A    between atoms: C_14  and  C_16
REMARK   10  A    between atoms: C_16  and  O_17
REMARK   11  A    between atoms: O_17  and  C_18
REMARK   12  A    between atoms: C_18  and  C_20
REMARK   13  A    between atoms: C_20  and  C_22
REMARK   14  A    between atoms: C_20  and  N_32
REMARK   15  A    between atoms: C_22  and  C_23
REMARK   16  A    between atoms: C_33  and  C_35
REMARK                            x       y       z     vdW  Elec       q    Type
REMARK                         _______ _______ _______ _____ _____    ______ ____
ROOT
ATOM      1  O   UNL     1       2.022  -2.782   7.860  0.00  0.00    -0.454 OA
ENDROOT
BRANCH   1   2
ATOM      2  C   UNL     1       1.799  -3.143   9.133  0.00  0.00    +0.328 C 
ATOM      3  O   UNL     1       0.679  -3.104   9.585  0.00  0.00    -0.249 OA
BRANCH   2   4
ATOM      4  C   UNL     1       2.946  -3.598   9.999  0.00  0.00    +0.186 C 
BRANCH   4   5
ATOM      5  N   UNL     1       2.426  -4.368  11.132  0.00  0.00    -0.302 N 
ATOM      6  C   UNL     1       1.569  -3.795  12.000  0.00  0.00    +0.211 C 
ATOM      7  O   UNL     1       1.228  -2.642  11.844  0.00  0.00    -0.276 OA
ATOM      8  C   UNL     1       1.035  -4.588  13.165  0.00  0.00    +0.109 C 
ATOM      9  H   UNL     1       2.699  -5.291  11.257  0.00  0.00    +0.150 HD
ENDBRANCH   4   5
BRANCH   4  10
ATOM     10  C   UNL     1       3.708  -2.377  10.519  0.00  0.00    +0.067 C 
BRANCH  10  11
ATOM     11  C   UNL     1       4.924  -2.832  11.283  0.00  0.00    -0.039 C 
ATOM     12  C   UNL     1       6.184  -2.958  10.806  0.00  0.00    -0.001 A 
ATOM     13  C   UNL     1       6.775  -2.719   9.485  0.00  0.00    +0.010 A 
ATOM     14  C   UNL     1       8.098  -2.939   9.308  0.00  0.00    +0.001 A 
ATOM     15  C   UNL     1       8.916  -3.390  10.353  0.00  0.00    +0.002 A 
ATOM     16  C   UNL     1       8.445  -3.632  11.595  0.00  0.00    +0.026 A 
ATOM     17  C   UNL     1       7.069  -3.433  11.894  0.00  0.00    +0.043 A 
ATOM     18  N   UNL     1       6.384  -3.595  12.999  0.00  0.00    -0.380 N 
ATOM     19  C   UNL     1       4.985  -3.235  12.740  0.00  0.00    +0.144 C 
ATOM     20  H   UNL     1       6.742  -3.899  13.848  0.00  0.00    +0.160 HD
ENDBRANCH  10  11
ENDBRANCH   4  10
ENDBRANCH   2   4
ENDBRANCH   1   2
BRANCH   1  21
ATOM     21  C   UNL     1       0.890  -2.361   7.097  0.00  0.00    +0.328 C 
BRANCH  21  23
ATOM     22  N   UNL     1       0.425  -1.570   4.800  0.00  0.00    -0.277 N 
ATOM     23  C   UNL     1       1.330  -1.998   5.702  0.00  0.00    +0.255 C 
ATOM     24  O   UNL     1       2.499  -2.089   5.393  0.00  0.00    -0.272 OA
ATOM     25  H   UNL     1      -0.510  -1.497   5.047  0.00  0.00    +0.155 HD
BRANCH  22  29
ATOM     26  C   UNL     1       0.731  -0.503   1.223  0.00  0.00    -0.022 A 
ATOM     27  C   UNL     1       2.059  -0.718   1.224  0.00  0.00    -0.008 A 
ATOM     28  S   UNL     1       2.381  -1.287   2.879  0.00  0.00    -0.078 S 
ATOM     29  C   UNL     1       0.831  -1.235   3.517  0.00  0.00    +0.086 A 
ATOM     30  C   UNL     1       0.047  -0.775   2.467  0.00  0.00    +0.091 A 
ATOM     31  C   UNL     1       3.038  -0.524   0.095  0.00  0.00    +0.052 C 
BRANCH  26  33
ATOM     32  C   UNL     1      -0.019   1.526   0.010  0.00  0.00    +0.009 C 
ATOM     33  C   UNL     1       0.002  -0.004   0.002  0.00  0.00    +0.033 C 
ENDBRANCH  26  33
BRANCH  30  34
ATOM     34  C   UNL     1      -1.397  -0.580   2.611  0.00  0.00    +0.342 C 
ATOM     35  O   UNL     1      -2.161  -1.493   2.363  0.00  0.00    -0.245 OA
BRANCH  34  36
ATOM     36  O   UNL     1      -1.879   0.612   3.019  0.00  0.00    -0.461 OA
BRANCH  36  37
ATOM     37  C   UNL     1      -3.298   0.731   3.138  0.00  0.00    +0.229 C 
ATOM     38  C   UNL     1      -3.653   2.143   3.609  0.00  0.00    +0.048 C 
ENDBRANCH  36  37
ENDBRANCH  34  36
ENDBRANCH  30  34
ENDBRANCH  22  29
ENDBRANCH  21  23
ENDBRANCH   1  21
TORSDOF 12
