REMARK  Name = ZINC22739232
REMARK  8 active torsions:
REMARK  status: ('A' for Active; 'I' for Inactive)
REMARK    1  A    between atoms: C_1  and  C_2
REMARK    2  A    between atoms: C_9  and  N_14
REMARK    3  A    between atoms: C_10  and  C_11
REMARK    4  A    between atoms: N_14  and  C_15
REMARK    5  A    between atoms: C_15  and  N_17
REMARK    6  A    between atoms: C_18  and  C_20
REMARK    7  A    between atoms: C_25  and  O_26
REMARK    8  A    between atoms: O_26  and  C_27
REMARK                            x       y       z     vdW  Elec       q    Type
REMARK                         _______ _______ _______ _____ _____    ______ ____
ROOT
ATOM      1  N   UNL     1      -2.842   3.981   6.606  0.00  0.00    -0.291 N 
ATOM      2  H   UNL     1      -3.888   3.668   6.733  0.00  0.00    +0.154 HD
ENDROOT
BRANCH   1  10
ATOM      3  C   UNL     1       0.970   8.394  11.819  0.00  0.00    +0.008 C 
ATOM      4  C   UNL     1       0.035   7.342  11.219  0.00  0.00    -0.009 C 
ATOM      5  C   UNL     1      -1.409   7.852  11.259  0.00  0.00    +0.008 C 
ATOM      6  C   UNL     1      -2.370   6.720  10.896  0.00  0.00    +0.037 C 
ATOM      7  C   UNL     1      -1.922   6.098   9.579  0.00  0.00    -0.023 A 
ATOM      8  C   UNL     1      -0.669   6.286   9.112  0.00  0.00    -0.004 A 
ATOM      9  S   UNL     1      -0.614   5.387   7.588  0.00  0.00    -0.077 S 
ATOM     10  C   UNL     1      -2.236   4.778   7.564  0.00  0.00    +0.084 A 
ATOM     11  C   UNL     1      -2.779   5.278   8.739  0.00  0.00    +0.068 A 
ATOM     12  C   UNL     1       0.426   7.078   9.758  0.00  0.00    +0.046 C 
BRANCH  11  13
ATOM     13  C   UNL     1      -4.165   4.989   9.119  0.00  0.00    +0.244 C 
ATOM     14  O   UNL     1      -4.419   4.007   9.792  0.00  0.00    -0.270 OA
ATOM     15  N   UNL     1      -5.157   5.811   8.724  0.00  0.00    -0.325 N 
ATOM     16  H   UNL     1      -6.197   5.594   9.010  0.00  0.00    +0.145 HD
ATOM     17  H   UNL     1      -4.927   6.699   8.117  0.00  0.00    +0.145 HD
ENDBRANCH  11  13
ENDBRANCH   1  10
BRANCH   1  18
ATOM     18  C   UNL     1      -2.149   3.589   5.519  0.00  0.00    +0.141 C 
ATOM     19  S   UNL     1      -0.520   4.077   5.320  0.00  0.00    -0.018 S 
BRANCH  18  20
ATOM     20  N   UNL     1      -2.738   2.814   4.587  0.00  0.00    -0.263 N 
ATOM     21  C   UNL     1      -2.045   2.422   3.499  0.00  0.00    +0.253 C 
ATOM     22  O   UNL     1      -0.888   2.768   3.359  0.00  0.00    -0.270 OA
ATOM     23  H   UNL     1      -3.785   2.500   4.715  0.00  0.00    +0.157 HD
BRANCH  21  24
ATOM     24  C   UNL     1      -2.690   1.573   2.481  0.00  0.00    +0.080 A 
ATOM     25  C   UNL     1      -4.021   1.177   2.636  0.00  0.00    +0.032 A 
ATOM     26  C   UNL     1      -4.616   0.378   1.683  0.00  0.00    +0.019 A 
ATOM     27  C   UNL     1      -3.901  -0.029   0.567  0.00  0.00    +0.019 A 
ATOM     28  C   UNL     1      -2.587   0.360   0.399  0.00  0.00    +0.047 A 
ATOM     29  C   UNL     1      -1.973   1.164   1.348  0.00  0.00    +0.132 A 
ATOM     30 BR   UNL     1      -6.414  -0.165   1.898  0.00  0.00    -0.050 Br
BRANCH  29  31
ATOM     31  O   UNL     1      -0.682   1.547   1.184  0.00  0.00    -0.494 OA
ATOM     32  C   UNL     1      -0.013   1.086   0.008  0.00  0.00    +0.277 C 
ENDBRANCH  29  31
ENDBRANCH  21  24
ENDBRANCH  18  20
ENDBRANCH   1  18
TORSDOF 6
