REMARK  Name = ZINC09407942
REMARK  4 active torsions:
REMARK  status: ('A' for Active; 'I' for Inactive)
REMARK    1  A    between atoms: C_6  and  C_7
REMARK    2  A    between atoms: C_9  and  C_22
REMARK    3  A    between atoms: C_11  and  C_14
REMARK    4  A    between atoms: C_19  and  O_20
REMARK                            x       y       z     vdW  Elec       q    Type
REMARK                         _______ _______ _______ _____ _____    ______ ____
ROOT
ATOM      1  C   UNL     1       1.081  -0.169   4.329  0.00  0.00    +0.040 C 
ATOM      2  N   UNL     1       0.865   0.789   5.151  0.00  0.00    -0.299 NA
ATOM      3  C   UNL     1       0.962   2.201   4.804  0.00  0.00    +0.081 C 
ATOM      4  C   UNL     1       1.190   1.506   2.506  0.00  0.00    -0.028 C 
ATOM      5  C   UNL     1       1.474   0.052   2.895  0.00  0.00    +0.044 C 
ATOM      6  N   UNL     1       1.730   2.383   3.563  0.00  0.00    +0.401 N 
ATOM      7  H   UNL     1       2.714   2.144   3.733  0.00  0.00    -0.081 HD
ATOM      8  H   UNL     1       1.663   3.362   3.261  0.00  0.00    -0.081 HD
ENDROOT
BRANCH   1  14
ATOM      9  C   UNL     1       1.159  -2.627   3.946  0.00  0.00    +0.011 A 
ATOM     10  C   UNL     1       1.027  -3.921   4.405  0.00  0.00    +0.016 A 
ATOM     11  C   UNL     1       0.665  -4.158   5.720  0.00  0.00    +0.018 A 
ATOM     12  C   UNL     1       0.439  -3.100   6.584  0.00  0.00    +0.016 A 
ATOM     13  C   UNL     1       0.573  -1.802   6.139  0.00  0.00    +0.011 A 
ATOM     14  C   UNL     1       0.937  -1.556   4.813  0.00  0.00    -0.004 A 
ATOM     15 BR   UNL     1       0.479  -5.935   6.340  0.00  0.00    -0.050 Br
ENDBRANCH   1  14
BRANCH   4  16
ATOM     16  C   UNL     1       1.863   1.822   1.195  0.00  0.00    -0.018 A 
ATOM     17  C   UNL     1       3.119   2.397   1.184  0.00  0.00    +0.025 A 
ATOM     18  C   UNL     1       3.735   2.693  -0.019  0.00  0.00    +0.041 A 
ATOM     19  C   UNL     1       3.096   2.409  -1.214  0.00  0.00    +0.023 A 
ATOM     20  C   UNL     1       1.842   1.830  -1.207  0.00  0.00    +0.047 A 
ATOM     21  C   UNL     1       1.223   1.532  -0.001  0.00  0.00    +0.119 A 
ATOM     22 CL   UNL     1       5.311   3.421  -0.030  0.00  0.00    -0.084 Cl
BRANCH  21  23
ATOM     23  O   UNL     1      -0.011   0.963   0.007  0.00  0.00    -0.507 OA
ATOM     24  H   UNL     1       0.002  -0.004   0.002  0.00  0.00    +0.292 HD
ENDBRANCH  21  23
ENDBRANCH   4  16
BRANCH   3  25
ATOM     25  C   UNL     1      -0.424   2.763   4.618  0.00  0.00    -0.033 A 
ATOM     26  C   UNL     1      -1.496   2.226   5.307  0.00  0.00    +0.011 A 
ATOM     27  C   UNL     1      -2.730   2.755   5.117  0.00  0.00    +0.045 A 
ATOM     28  S   UNL     1      -2.399   4.051   3.935  0.00  0.00    -0.105 S 
ATOM     29  C   UNL     1      -0.638   3.804   3.778  0.00  0.00    +0.049 A 
ENDBRANCH   3  25
TORSDOF 4
