REMARK  Name = ZINC37066654
REMARK  6 active torsions:
REMARK  status: ('A' for Active; 'I' for Inactive)
REMARK    1  A    between atoms: C_1  and  C_2
REMARK    2  A    between atoms: C_2  and  C_4
REMARK    3  A    between atoms: C_2  and  N_12
REMARK    4  A    between atoms: C_16  and  N_21
REMARK    5  A    between atoms: C_17  and  O_19
REMARK    6  A    between atoms: O_19  and  C_20
REMARK                            x       y       z     vdW  Elec       q    Type
REMARK                         _______ _______ _______ _____ _____    ______ ____
ROOT
ATOM      1  N   UNL     1       0.688  -0.476  -1.203  0.00  0.00    -0.322 N 
ATOM      2  C   UNL     1      -0.017  -0.613  -2.397  0.00  0.00    +0.123 A 
ATOM      3  C   UNL     1      -1.368  -0.292  -2.437  0.00  0.00    +0.045 A 
ATOM      4  C   UNL     1      -2.062  -0.430  -3.628  0.00  0.00    +0.031 A 
ATOM      5  C   UNL     1      -1.375  -0.886  -4.748  0.00  0.00    +0.087 A 
ATOM      6  C   UNL     1      -0.020  -1.189  -4.636  0.00  0.00    +0.238 A 
ATOM      7  N   UNL     1       0.611  -1.040  -3.482  0.00  0.00    -0.197 NA
ATOM      8  H   UNL     1       1.632  -0.695  -1.170  0.00  0.00    +0.148 HD
ENDROOT
BRANCH   5   9
ATOM      9  N   UNL     1      -2.038  -1.041  -5.975  0.00  0.00    -0.354 N 
ATOM     10  H   UNL     1      -2.982  -0.829  -6.046  0.00  0.00    +0.142 HD
ATOM     11  H   UNL     1      -1.553  -1.360  -6.752  0.00  0.00    +0.142 HD
ENDBRANCH   5   9
BRANCH   1  13
ATOM     12  C   UNL     1      -0.019   1.526   0.010  0.00  0.00    +0.033 C 
ATOM     13  C   UNL     1       0.002  -0.004   0.002  0.00  0.00    +0.100 C 
BRANCH  13  14
ATOM     14  C   UNL     1       0.731  -0.503   1.223  0.00  0.00    -0.009 A 
ATOM     15  C   UNL     1       2.077  -0.808   1.148  0.00  0.00    +0.008 A 
ATOM     16  C   UNL     1       2.746  -1.266   2.267  0.00  0.00    +0.020 A 
ATOM     17  C   UNL     1       2.069  -1.419   3.464  0.00  0.00    +0.042 A 
ATOM     18  C   UNL     1       0.722  -1.114   3.540  0.00  0.00    +0.040 A 
ATOM     19  C   UNL     1       0.054  -0.651   2.420  0.00  0.00    +0.047 A 
ATOM     20 CL   UNL     1      -1.635  -0.262   2.516  0.00  0.00    -0.083 Cl
ATOM     21 CL   UNL     1       2.909  -1.995   4.869  0.00  0.00    -0.083 Cl
ENDBRANCH  13  14
ENDBRANCH   1  13
BRANCH   6  22
ATOM     22  O   UNL     1       0.662  -1.636  -5.722  0.00  0.00    -0.478 OA
ATOM     23  C   UNL     1       2.049  -1.929  -5.542  0.00  0.00    +0.279 C 
ENDBRANCH   6  22
TORSDOF 4
