REMARK  Name = ZINC14784062
REMARK  10 active torsions:
REMARK  status: ('A' for Active; 'I' for Inactive)
REMARK    1  A    between atoms: C_1  and  C_2
REMARK    2  A    between atoms: C_2  and  C_3
REMARK    3  A    between atoms: C_3  and  C_4
REMARK    4  A    between atoms: C_3  and  C_5
REMARK    5  A    between atoms: C_3  and  C_6
REMARK    6  A    between atoms: C_9  and  O_12
REMARK    7  A    between atoms: O_12  and  C_13
REMARK    8  A    between atoms: C_13  and  C_14
REMARK    9  A    between atoms: N_16  and  C_17
REMARK   10  A    between atoms: C_18  and  C_26
REMARK                            x       y       z     vdW  Elec       q    Type
REMARK                         _______ _______ _______ _____ _____    ______ ____
ROOT
ATOM      1  C   UNL     1      -0.016   1.344   0.009  0.00  0.00    +0.255 C 
ATOM      2  O   UNL     1       1.026   1.964   0.003  0.00  0.00    -0.272 OA
ATOM      3  N   UNL     1       0.002  -0.004   0.002  0.00  0.00    -0.277 N 
ATOM      4  H   UNL     1      -0.831  -0.500   0.007  0.00  0.00    +0.155 HD
ENDROOT
BRANCH   3   5
ATOM      5  C   UNL     1       1.212  -0.681  -0.013  0.00  0.00    +0.084 A 
ATOM      6  C   UNL     1       1.434  -2.051  -0.017  0.00  0.00    +0.068 A 
ATOM      7  C   UNL     1       2.813  -2.508  -0.037  0.00  0.00    -0.023 A 
ATOM      8  C   UNL     1       3.743  -1.529  -0.041  0.00  0.00    -0.004 A 
ATOM      9  S   UNL     1       2.814  -0.022  -0.024  0.00  0.00    -0.077 S 
ATOM     10  C   UNL     1       5.231  -1.697  -0.054  0.00  0.00    +0.043 C 
ATOM     11  C   UNL     1       5.557  -3.152   0.314  0.00  0.00    +0.005 C 
ATOM     12  C   UNL     1       4.671  -4.082  -0.519  0.00  0.00    +0.005 C 
ATOM     13  C   UNL     1       3.219  -3.976  -0.049  0.00  0.00    +0.037 C 
BRANCH   6  14
ATOM     14  C   UNL     1       0.318  -3.002  -0.005  0.00  0.00    +0.244 C 
ATOM     15  O   UNL     1      -0.157  -3.396  -1.054  0.00  0.00    -0.270 OA
ATOM     16  N   UNL     1      -0.182  -3.439   1.168  0.00  0.00    -0.325 N 
ATOM     17  H   UNL     1       0.197  -3.125   2.004  0.00  0.00    +0.145 HD
ATOM     18  H   UNL     1      -0.920  -4.069   1.176  0.00  0.00    +0.145 HD
ENDBRANCH   6  14
ENDBRANCH   3   5
BRANCH   1  19
ATOM     19  C   UNL     1      -1.331   2.079   0.020  0.00  0.00    +0.324 C 
BRANCH  19  20
ATOM     20  O   UNL     1      -1.089   3.488   0.026  0.00  0.00    -0.483 OA
BRANCH  20  24
ATOM     21  C   UNL     1      -4.395   5.956   0.055  0.00  0.00    -0.042 A 
ATOM     22  C   UNL     1      -3.125   6.503   0.052  0.00  0.00    +0.008 A 
ATOM     23  C   UNL     1      -2.017   5.678   0.043  0.00  0.00    +0.046 A 
ATOM     24  C   UNL     1      -2.178   4.301   0.036  0.00  0.00    +0.121 A 
ATOM     25  C   UNL     1      -3.453   3.754   0.033  0.00  0.00    +0.046 A 
ATOM     26  C   UNL     1      -4.559   4.583   0.049  0.00  0.00    +0.008 A 
BRANCH  21  27
ATOM     27  C   UNL     1      -5.602   6.857   0.066  0.00  0.00    -0.010 C 
ATOM     28  C   UNL     1      -5.573   7.734   1.320  0.00  0.00    +0.016 C 
ATOM     29  C   UNL     1      -5.585   7.747  -1.179  0.00  0.00    +0.016 C 
BRANCH  27  31
ATOM     30  C   UNL     1      -8.100   6.922   0.078  0.00  0.00    +0.005 C 
ATOM     31  C   UNL     1      -6.874   6.007   0.068  0.00  0.00    +0.007 C 
ENDBRANCH  27  31
ENDBRANCH  21  27
ENDBRANCH  20  24
ENDBRANCH  19  20
ENDBRANCH   1  19
TORSDOF 7
