REMARK  Name = ZINC01179690
REMARK  4 active torsions:
REMARK  status: ('A' for Active; 'I' for Inactive)
REMARK    1  A    between atoms: C_1  and  C_2
REMARK    2  A    between atoms: C_5  and  N_9
REMARK    3  A    between atoms: C_7  and  C_8
REMARK    4  A    between atoms: C_22  and  C_25
REMARK                            x       y       z     vdW  Elec       q    Type
REMARK                         _______ _______ _______ _____ _____    ______ ____
ROOT
ATOM      1  N   UNL     1       1.585   2.372   1.106  0.00  0.00    -0.210 N 
ATOM      2  C   UNL     1       1.379   1.682  -0.023  0.00  0.00    +0.231 C 
ATOM      3  O   UNL     1       2.186   1.537  -0.915  0.00  0.00    -0.274 OA
ATOM      4  C   UNL     1      -0.023   1.110  -0.006  0.00  0.00    +0.103 C 
ATOM      5  C   UNL     1      -0.808   1.690  -1.201  0.00  0.00    +0.062 C 
ATOM      6  C   UNL     1      -0.768   3.209  -0.998  0.00  0.00    -0.035 A 
ATOM      7  C   UNL     1      -0.272   4.099  -1.908  0.00  0.00    +0.004 A 
ATOM      8  C   UNL     1      -0.291   5.453  -1.599  0.00  0.00    +0.000 A 
ATOM      9  C   UNL     1      -0.804   5.888  -0.391  0.00  0.00    +0.000 A 
ATOM     10  C   UNL     1      -1.307   4.978   0.529  0.00  0.00    +0.004 A 
ATOM     11  C   UNL     1      -1.286   3.648   0.219  0.00  0.00    -0.035 A 
ATOM     12  C   UNL     1      -1.798   2.538   1.122  0.00  0.00    +0.065 C 
ATOM     13  C   UNL     1      -0.596   1.595   1.338  0.00  0.00    +0.068 C 
ATOM     14  C   UNL     1       0.541   2.390   1.944  0.00  0.00    +0.234 C 
ATOM     15  O   UNL     1       0.511   2.952   3.018  0.00  0.00    -0.274 OA
ATOM     16  C   UNL     1      -0.971   0.410   2.230  0.00  0.00    +0.022 C 
ATOM     17  C   UNL     1      -2.780   1.752   0.267  0.00  0.00    -0.035 A 
ATOM     18  C   UNL     1      -2.259   1.304  -0.960  0.00  0.00    -0.035 A 
ATOM     19  C   UNL     1      -3.026   0.576  -1.824  0.00  0.00    +0.004 A 
ATOM     20  C   UNL     1      -4.340   0.292  -1.477  0.00  0.00    +0.000 A 
ATOM     21  C   UNL     1      -4.859   0.740  -0.276  0.00  0.00    +0.000 A 
ATOM     22  C   UNL     1      -4.073   1.479   0.599  0.00  0.00    +0.004 A 
ENDROOT
BRANCH   1  27
ATOM     23  C   UNL     1       6.480   5.010   2.242  0.00  0.00    +0.044 C 
ATOM     24  C   UNL     1       5.181   4.310   1.941  0.00  0.00    -0.047 A 
ATOM     25  C   UNL     1       4.034   5.050   1.717  0.00  0.00    +0.005 A 
ATOM     26  C   UNL     1       2.841   4.410   1.440  0.00  0.00    +0.024 A 
ATOM     27  C   UNL     1       2.794   3.024   1.387  0.00  0.00    +0.044 A 
ATOM     28  C   UNL     1       3.946   2.284   1.617  0.00  0.00    +0.027 A 
ATOM     29  C   UNL     1       5.137   2.929   1.888  0.00  0.00    -0.046 A 
ATOM     30  C   UNL     1       6.389   2.126   2.132  0.00  0.00    +0.044 C 
ENDBRANCH   1  27
TORSDOF 1
