REMARK  Name = ZINC63744021
REMARK  5 active torsions:
REMARK  status: ('A' for Active; 'I' for Inactive)
REMARK    1  A    between atoms: C_6  and  C_10
REMARK    2  A    between atoms: C_10  and  S_11
REMARK    3  A    between atoms: S_11  and  C_12
REMARK    4  A    between atoms: C_15  and  C_19
REMARK    5  A    between atoms: N_17  and  N_18
REMARK                            x       y       z     vdW  Elec       q    Type
REMARK                         _______ _______ _______ _____ _____    ______ ____
ROOT
ATOM      1  C   UNL     1       3.275  -2.655  -4.278  0.00  0.00    +0.189 C 
ATOM      2  N   UNL     1       4.037  -3.635  -3.928  0.00  0.00    -0.161 NA
ATOM      3  N   UNL     1       4.539  -4.318  -5.042  0.00  0.00    -0.241 N 
ATOM      4  C   UNL     1       3.988  -3.634  -6.225  0.00  0.00    +0.224 C 
ATOM      5  N   UNL     1       3.162  -2.555  -5.657  0.00  0.00    -0.221 N 
ATOM      6  H   UNL     1       5.131  -5.086  -5.036  0.00  0.00    +0.171 HD
ENDROOT
BRANCH   4   7
ATOM      7  C   UNL     1       5.098  -3.071  -7.075  0.00  0.00    +0.011 A 
ATOM      8  C   UNL     1       6.041  -2.218  -6.522  0.00  0.00    +0.010 A 
ATOM      9  C   UNL     1       7.044  -1.723  -7.341  0.00  0.00    +0.020 A 
ATOM     10  C   UNL     1       7.070  -2.094  -8.673  0.00  0.00    +0.111 A 
ATOM     11  N   UNL     1       6.155  -2.907  -9.165  0.00  0.00    -0.263 NA
ATOM     12  C   UNL     1       5.191  -3.401  -8.413  0.00  0.00    +0.117 A 
ENDBRANCH   4   7
BRANCH   5  13
ATOM     13  N   UNL     1       2.431  -1.635  -6.352  0.00  0.00    -0.250 NA
ATOM     14  H   UNL     1       2.005  -0.965  -5.729  0.00  0.00    +0.141 HD
ATOM     15  H   UNL     1       2.998  -1.172  -7.047  0.00  0.00    +0.141 HD
ENDBRANCH   5  13
BRANCH   1  16
ATOM     16  S   UNL     1       2.469  -1.576  -3.142  0.00  0.00    -0.084 S 
BRANCH  16  17
ATOM     17  C   UNL     1       2.985  -2.188  -1.514  0.00  0.00    +0.124 C 
BRANCH  17  23
ATOM     18  C   UNL     1      -0.895   1.843  -1.163  0.00  0.00    +0.002 A 
ATOM     19  C   UNL     1       0.232   2.684  -1.165  0.00  0.00    +0.002 A 
ATOM     20  C   UNL     1       1.484   2.220  -0.980  0.00  0.00    +0.027 A 
ATOM     21  C   UNL     1       1.701   0.782  -0.766  0.00  0.00    +0.060 A 
ATOM     22  N   UNL     1       2.771   0.069  -0.566  0.00  0.00    -0.363 N 
ATOM     23  C   UNL     1       2.347  -1.329  -0.420  0.00  0.00    +0.184 C 
ATOM     24  N   UNL     1       0.886  -1.336  -0.562  0.00  0.00    -0.363 N 
ATOM     25  C   UNL     1       0.507  -0.107  -0.764  0.00  0.00    +0.060 A 
ATOM     26  C   UNL     1      -0.809   0.511  -0.976  0.00  0.00    +0.027 A 
ATOM     27  H   UNL     1       3.682   0.400  -0.522  0.00  0.00    +0.162 HD
ATOM     28  H   UNL     1       0.308  -2.114  -0.515  0.00  0.00    +0.162 HD
ENDBRANCH  17  23
ENDBRANCH  16  17
ENDBRANCH   1  16
TORSDOF 5
