REMARK  Name = ZINC13054968
REMARK  8 active torsions:
REMARK  status: ('A' for Active; 'I' for Inactive)
REMARK    1  A    between atoms: C_1  and  C_2
REMARK    2  A    between atoms: C_2  and  C_4
REMARK    3  A    between atoms: C_2  and  S_15
REMARK    4  A    between atoms: N_6  and  C_7
REMARK    5  A    between atoms: S_15  and  C_16
REMARK    6  A    between atoms: N_26  and  C_27
REMARK    7  A    between atoms: C_27  and  C_28
REMARK    8  A    between atoms: C_28  and  C_29
REMARK                            x       y       z     vdW  Elec       q    Type
REMARK                         _______ _______ _______ _____ _____    ______ ____
ROOT
ATOM      1  C   UNL     1      -2.422   0.830  -1.261  0.00  0.00    +0.173 A 
ATOM      2  N   UNL     1      -2.571   0.042  -0.225  0.00  0.00    -0.223 NA
ATOM      3  C   UNL     1      -3.717  -0.636  -0.012  0.00  0.00    +0.079 A 
ATOM      4  C   UNL     1      -3.878  -1.473   1.096  0.00  0.00    +0.028 A 
ATOM      5  C   UNL     1      -5.054  -2.146   1.270  0.00  0.00    +0.002 A 
ATOM      6  C   UNL     1      -6.095  -2.013   0.360  0.00  0.00    +0.001 A 
ATOM      7  C   UNL     1      -5.968  -1.202  -0.734  0.00  0.00    +0.015 A 
ATOM      8  C   UNL     1      -4.778  -0.503  -0.936  0.00  0.00    +0.065 A 
ATOM      9  C   UNL     1      -4.585   0.382  -2.093  0.00  0.00    +0.262 A 
ATOM     10  O   UNL     1      -5.462   0.538  -2.922  0.00  0.00    -0.267 OA
ATOM     11  N   UNL     1      -3.394   1.017  -2.201  0.00  0.00    -0.287 N 
ENDROOT
BRANCH   1  12
ATOM     12  S   UNL     1      -0.892   1.682  -1.454  0.00  0.00    -0.075 S 
BRANCH  12  14
ATOM     13  C   UNL     1      -0.725   1.593   1.271  0.00  0.00    +0.029 C 
ATOM     14  C   UNL     1      -0.014   1.089   0.014  0.00  0.00    +0.137 C 
BRANCH  14  15
ATOM     15  C   UNL     1       1.401   1.606  -0.004  0.00  0.00    +0.230 C 
ATOM     16  O   UNL     1       1.668   2.622  -0.611  0.00  0.00    -0.274 OA
ATOM     17  N   UNL     1       2.371   0.940   0.654  0.00  0.00    -0.285 N 
ATOM     18  H   UNL     1       2.146   0.166   1.194  0.00  0.00    +0.155 HD
BRANCH  17  19
ATOM     19  C   UNL     1       3.700   1.365   0.558  0.00  0.00    +0.036 A 
ATOM     20  C   UNL     1       4.730   0.433   0.561  0.00  0.00    +0.043 A 
ATOM     21  C   UNL     1       6.043   0.855   0.461  0.00  0.00    +0.044 A 
ATOM     22  C   UNL     1       6.331   2.205   0.369  0.00  0.00    +0.040 A 
ATOM     23  C   UNL     1       5.308   3.136   0.372  0.00  0.00    +0.044 A 
ATOM     24  C   UNL     1       3.993   2.719   0.467  0.00  0.00    +0.043 A 
ATOM     25 CL   UNL     1       5.674   4.829   0.257  0.00  0.00    -0.083 Cl
ATOM     26 CL   UNL     1       7.330  -0.309   0.457  0.00  0.00    -0.083 Cl
ENDBRANCH  17  19
ENDBRANCH  14  15
ENDBRANCH  12  14
ENDBRANCH   1  12
BRANCH  11  27
ATOM     27  C   UNL     1      -3.147   1.911  -3.335  0.00  0.00    +0.138 C 
BRANCH  27  28
ATOM     28  C   UNL     1      -2.539   1.113  -4.490  0.00  0.00    +0.147 C 
BRANCH  28  29
ATOM     29  C   UNL     1      -2.285   2.032  -5.657  0.00  0.00    +0.358 C 
ATOM     30  O   UNL     1      -2.562   3.205  -5.573  0.00  0.00    -0.246 OA
ATOM     31  O   UNL     1      -1.752   1.548  -6.790  0.00  0.00    -0.246 OA
ENDBRANCH  28  29
ENDBRANCH  27  28
ENDBRANCH  11  27
TORSDOF 7
