REMARK  Name = ZINC09446327
REMARK  13 active torsions:
REMARK  status: ('A' for Active; 'I' for Inactive)
REMARK    1  A    between atoms: C_1  and  C_2
REMARK    2  A    between atoms: C_4  and  O_35
REMARK    3  A    between atoms: C_5  and  C_9
REMARK    4  A    between atoms: N_17  and  C_32
REMARK    5  A    between atoms: C_18  and  C_20
REMARK    6  A    between atoms: C_22  and  O_30
REMARK    7  A    between atoms: C_23  and  O_28
REMARK    8  A    between atoms: C_24  and  O_26
REMARK    9  A    between atoms: O_26  and  C_27
REMARK   10  A    between atoms: O_28  and  C_29
REMARK   11  A    between atoms: O_30  and  C_31
REMARK   12  A    between atoms: C_32  and  C_33
REMARK   13  A    between atoms: C_33  and  O_34
REMARK                            x       y       z     vdW  Elec       q    Type
REMARK                         _______ _______ _______ _____ _____    ______ ____
ROOT
ATOM      1  C   UNL     1      -0.332  -4.015   0.226  0.00  0.00    +0.102 A 
ATOM      2  C   UNL     1      -0.074  -4.933   1.250  0.00  0.00    +0.035 A 
ATOM      3  C   UNL     1       0.196  -6.133   0.621  0.00  0.00    +0.126 A 
ATOM      4  N   UNL     1       0.091  -5.891  -0.720  0.00  0.00    -0.272 N 
ATOM      5  H   UNL     1       0.227  -6.551  -1.417  0.00  0.00    +0.189 HD
ATOM      6  N   UNL     1      -0.220  -4.660  -0.919  0.00  0.00    -0.173 NA
ATOM      7  C   UNL     1       0.476  -7.144   1.646  0.00  0.00    +0.266 C 
ATOM      8  O   UNL     1       0.751  -8.307   1.417  0.00  0.00    -0.268 OA
ATOM      9  N   UNL     1       0.387  -6.604   2.874  0.00  0.00    -0.283 N 
ATOM     10  C   UNL     1       0.038  -5.184   2.728  0.00  0.00    +0.142 C 
ENDROOT
BRANCH   1  15
ATOM     11  C   UNL     1      -1.663   1.553   0.893  0.00  0.00    +0.045 C 
ATOM     12  C   UNL     1      -1.315   0.098   0.716  0.00  0.00    -0.029 A 
ATOM     13  C   UNL     1      -1.099  -0.409  -0.552  0.00  0.00    +0.050 A 
ATOM     14  C   UNL     1      -0.779  -1.747  -0.720  0.00  0.00    +0.126 A 
ATOM     15  C   UNL     1      -0.674  -2.581   0.397  0.00  0.00    +0.045 A 
ATOM     16  C   UNL     1      -0.892  -2.061   1.670  0.00  0.00    +0.034 A 
ATOM     17  C   UNL     1      -1.206  -0.725   1.824  0.00  0.00    +0.045 A 
ATOM     18 CL   UNL     1      -1.471  -0.076   3.412  0.00  0.00    -0.083 Cl
BRANCH  14  19
ATOM     19  O   UNL     1      -0.569  -2.246  -1.966  0.00  0.00    -0.506 OA
ATOM     20  H   UNL     1       0.351  -2.193  -2.260  0.00  0.00    +0.292 HD
ENDBRANCH  14  19
ENDBRANCH   1  15
BRANCH  10  21
ATOM     21  C   UNL     1       1.121  -4.320   3.321  0.00  0.00    -0.015 A 
ATOM     22  C   UNL     1       2.419  -4.427   2.858  0.00  0.00    +0.055 A 
ATOM     23  C   UNL     1       3.418  -3.634   3.402  0.00  0.00    +0.165 A 
ATOM     24  C   UNL     1       3.113  -2.730   4.413  0.00  0.00    +0.204 A 
ATOM     25  C   UNL     1       1.807  -2.626   4.875  0.00  0.00    +0.165 A 
ATOM     26  C   UNL     1       0.812  -3.419   4.323  0.00  0.00    +0.055 A 
BRANCH  25  27
ATOM     27  O   UNL     1       1.503  -1.743   5.865  0.00  0.00    -0.491 OA
ATOM     28  C   UNL     1       0.124  -1.611   6.215  0.00  0.00    +0.277 C 
ENDBRANCH  25  27
BRANCH  24  29
ATOM     29  O   UNL     1       4.091  -1.950   4.949  0.00  0.00    -0.488 OA
ATOM     30  C   UNL     1       4.321  -0.682   4.332  0.00  0.00    +0.277 C 
ENDBRANCH  24  29
BRANCH  23  31
ATOM     31  O   UNL     1       4.695  -3.740   2.946  0.00  0.00    -0.491 OA
ATOM     32  C   UNL     1       4.936  -4.689   1.906  0.00  0.00    +0.277 C 
ENDBRANCH  23  31
ENDBRANCH  10  21
BRANCH   9  33
ATOM     33  C   UNL     1       0.601  -7.309   4.140  0.00  0.00    +0.137 C 
BRANCH  33  34
ATOM     34  C   UNL     1       2.099  -7.363   4.447  0.00  0.00    +0.175 C 
BRANCH  34  35
ATOM     35  O   UNL     1       2.577  -6.045   4.721  0.00  0.00    -0.393 OA
ATOM     36  H   UNL     1       3.521  -6.003   4.925  0.00  0.00    +0.209 HD
ENDBRANCH  34  35
ENDBRANCH  33  34
ENDBRANCH   9  33
TORSDOF 9
