REMARK  Name = ZINC14461431
REMARK  8 active torsions:
REMARK  status: ('A' for Active; 'I' for Inactive)
REMARK    1  A    between atoms: C_1  and  C_2
REMARK    2  A    between atoms: C_2  and  N_3
REMARK    3  A    between atoms: N_3  and  C_4
REMARK    4  A    between atoms: N_3  and  C_6
REMARK    5  A    between atoms: C_4  and  C_5
REMARK    6  A    between atoms: C_9  and  C_12
REMARK    7  A    between atoms: C_23  and  N_28
REMARK    8  A    between atoms: N_28  and  C_29
REMARK                            x       y       z     vdW  Elec       q    Type
REMARK                         _______ _______ _______ _____ _____    ______ ____
ROOT
ATOM      1  C   UNL     1      -4.663   9.673   0.319  0.00  0.00    +0.105 C 
ATOM      2  C   UNL     1      -3.526  10.356  -0.417  0.00  0.00    +0.029 C 
ATOM      3  C   UNL     1      -3.679  10.193  -1.948  0.00  0.00    +0.033 C 
ATOM      4  C   UNL     1      -2.244  10.258  -2.440  0.00  0.00    -0.030 C 
ATOM      5  C   UNL     1      -1.414   9.959  -1.472  0.00  0.00    -0.023 C 
ATOM      6  C   UNL     1      -2.179   9.646  -0.193  0.00  0.00    +0.049 C 
ATOM      7  C   UNL     1      -2.325   8.150  -0.110  0.00  0.00    -0.018 A 
ATOM      8  C   UNL     1      -1.168   7.385  -0.069  0.00  0.00    +0.029 A 
ATOM      9  C   UNL     1      -1.243   6.002  -0.005  0.00  0.00    +0.032 A 
ATOM     10  C   UNL     1      -2.480   5.372   0.029  0.00  0.00    +0.025 A 
ATOM     11  C   UNL     1      -3.633   6.130  -0.002  0.00  0.00    +0.025 A 
ATOM     12  C   UNL     1      -3.554   7.516  -0.070  0.00  0.00    +0.031 A 
ATOM     13  N   UNL     1      -4.739   8.267  -0.094  0.00  0.00    -0.336 N 
ATOM     14  H   UNL     1      -5.578   7.870  -0.374  0.00  0.00    +0.147 HD
ENDROOT
BRANCH   1  18
ATOM     15  C   UNL     1      -3.965   9.885   4.530  0.00  0.00    +0.030 A 
ATOM     16  C   UNL     1      -4.844  10.774   3.925  0.00  0.00    +0.023 A 
ATOM     17  C   UNL     1      -5.068  10.703   2.564  0.00  0.00    +0.007 A 
ATOM     18  C   UNL     1      -4.417   9.748   1.804  0.00  0.00    -0.027 A 
ATOM     19  C   UNL     1      -3.546   8.857   2.405  0.00  0.00    +0.007 A 
ATOM     20  C   UNL     1      -3.314   8.927   3.764  0.00  0.00    +0.023 A 
BRANCH  15  21
ATOM     21  N   UNL     1      -3.737   9.954   5.907  0.00  0.00    -0.330 N 
BRANCH  21  23
ATOM     22  C   UNL     1      -1.400   9.610   6.539  0.00  0.00    +0.024 C 
ATOM     23  C   UNL     1      -2.810   9.016   6.544  0.00  0.00    +0.102 C 
ENDBRANCH  21  23
BRANCH  21  24
ATOM     24  C   UNL     1      -4.426  10.965   6.713  0.00  0.00    +0.102 C 
ATOM     25  C   UNL     1      -5.753  10.396   7.220  0.00  0.00    +0.024 C 
ENDBRANCH  21  24
ENDBRANCH  15  21
ENDBRANCH   1  18
BRANCH   9  26
ATOM     26  N   UNL     1      -0.069   5.239   0.030  0.00  0.00    -0.314 N 
ATOM     27  H   UNL     1       0.738   5.608   0.423  0.00  0.00    +0.152 HD
BRANCH  26  28
ATOM     28  C   UNL     1      -0.060   3.947  -0.500  0.00  0.00    +0.031 A 
ATOM     29  C   UNL     1       0.769   2.976   0.048  0.00  0.00    +0.023 A 
ATOM     30  C   UNL     1       0.776   1.699  -0.479  0.00  0.00    +0.002 A 
ATOM     31  C   UNL     1      -0.040   1.387  -1.550  0.00  0.00    +0.000 A 
ATOM     32  C   UNL     1      -0.862   2.353  -2.102  0.00  0.00    +0.002 A 
ATOM     33  C   UNL     1      -0.878   3.630  -1.577  0.00  0.00    +0.023 A 
ENDBRANCH  26  28
ENDBRANCH   9  26
TORSDOF 6
