REMARK  Name = ZINC05681110
REMARK  4 active torsions:
REMARK  status: ('A' for Active; 'I' for Inactive)
REMARK    1  A    between atoms: C_3  and  N_10
REMARK    2  A    between atoms: C_6  and  C_7
REMARK    3  A    between atoms: C_11  and  C_13
REMARK    4  A    between atoms: C_13  and  N_14
REMARK                            x       y       z     vdW  Elec       q    Type
REMARK                         _______ _______ _______ _____ _____    ______ ____
ROOT
ATOM      1  C   UNL     1       1.024   2.000   4.535  0.00  0.00    +0.214 C 
ENDROOT
BRANCH   1   2
ATOM      2  N   UNL     1       0.396   2.346   3.257  0.00  0.00    -0.215 N 
ATOM      3  C   UNL     1      -0.052   1.440   2.363  0.00  0.00    +0.251 C 
ATOM      4  O   UNL     1      -0.015   0.232   2.458  0.00  0.00    -0.272 OA
ATOM      5  C   UNL     1      -0.610   2.250   1.218  0.00  0.00    +0.139 C 
ATOM      6  C   UNL     1       0.121   1.938  -0.079  0.00  0.00    +0.040 C 
ATOM      7  C   UNL     1      -0.574   2.632  -1.255  0.00  0.00    +0.008 C 
ATOM      8  C   UNL     1      -1.940   1.970  -1.486  0.00  0.00    +0.043 C 
ATOM      9  C   UNL     1      -2.641   1.853  -0.172  0.00  0.00    -0.005 A 
ATOM     10  C   UNL     1      -2.093   1.971   1.070  0.00  0.00    -0.005 A 
ATOM     11  C   UNL     1      -2.964   1.822   2.150  0.00  0.00    +0.014 A 
ATOM     12  C   UNL     1      -4.275   1.572   1.934  0.00  0.00    +0.046 A 
ATOM     13  S   UNL     1      -4.354   1.533   0.150  0.00  0.00    -0.101 S 
ATOM     14  N   UNL     1      -0.399   3.643   1.624  0.00  0.00    -0.281 N 
ATOM     15  C   UNL     1       0.196   3.599   2.832  0.00  0.00    +0.310 C 
ATOM     16  O   UNL     1       0.515   4.587   3.464  0.00  0.00    -0.252 OA
ATOM     17  H   UNL     1      -0.640   4.438   1.122  0.00  0.00    +0.152 HD
ENDBRANCH   1   2
BRANCH   1  19
ATOM     18  N   UNL     1       3.303   1.558   5.391  0.00  0.00    -0.284 N 
ATOM     19  C   UNL     1       2.514   1.872   4.344  0.00  0.00    +0.235 C 
ATOM     20  O   UNL     1       3.002   2.052   3.249  0.00  0.00    -0.274 OA
ATOM     21  H   UNL     1       2.923   1.489   6.281  0.00  0.00    +0.155 HD
BRANCH  18  24
ATOM     22  C   UNL     1       6.922   1.464   5.992  0.00  0.00    +0.015 A 
ATOM     23  C   UNL     1       5.577   1.687   6.183  0.00  0.00    +0.024 A 
ATOM     24  C   UNL     1       4.664   1.331   5.194  0.00  0.00    +0.033 A 
ATOM     25  C   UNL     1       5.107   0.745   4.013  0.00  0.00    +0.024 A 
ATOM     26  C   UNL     1       6.451   0.525   3.813  0.00  0.00    +0.015 A 
ATOM     27  C   UNL     1       7.370   0.881   4.804  0.00  0.00    +0.037 A 
BRANCH  27  28
ATOM     28  C   UNL     1       8.812   0.641   4.596  0.00  0.00    +0.242 C 
ATOM     29  O   UNL     1       9.611   0.952   5.458  0.00  0.00    -0.270 OA
ATOM     30  N   UNL     1       9.243   0.078   3.450  0.00  0.00    -0.325 N 
ATOM     31  H   UNL     1       8.606  -0.170   2.762  0.00  0.00    +0.145 HD
ATOM     32  H   UNL     1      10.190  -0.080   3.313  0.00  0.00    +0.145 HD
ENDBRANCH  27  28
ENDBRANCH  18  24
ENDBRANCH   1  19
TORSDOF 4
