REMARK  Name = ZINC20873109
REMARK  8 active torsions:
REMARK  status: ('A' for Active; 'I' for Inactive)
REMARK    1  A    between atoms: C_7  and  C_11
REMARK    2  A    between atoms: C_11  and  C_12
REMARK    3  A    between atoms: C_12  and  N_13
REMARK    4  A    between atoms: N_13  and  C_14
REMARK    5  A    between atoms: C_14  and  C_15
REMARK    6  A    between atoms: C_20  and  O_21
REMARK    7  A    between atoms: O_21  and  C_22
REMARK    8  A    between atoms: C_22  and  C_23
REMARK                            x       y       z     vdW  Elec       q    Type
REMARK                         _______ _______ _______ _____ _____    ______ ____
ROOT
ATOM      1  C   UNL     1       2.450   3.947  -0.001  0.00  0.00    +0.120 C 
ENDROOT
BRANCH   1   2
ATOM      2  C   UNL     1       1.158   3.173   0.008  0.00  0.00    +0.009 A 
ATOM      3  C   UNL     1      -0.050   3.844   0.023  0.00  0.00    +0.023 A 
ATOM      4  C   UNL     1      -1.237   3.134   0.030  0.00  0.00    +0.018 A 
ATOM      5  C   UNL     1      -1.218   1.751   0.017  0.00  0.00    +0.019 A 
ATOM      6  C   UNL     1      -0.013   1.076   0.008  0.00  0.00    +0.047 A 
ATOM      7  C   UNL     1       1.179   1.786   0.000  0.00  0.00    +0.126 A 
ATOM      8 BR   UNL     1      -2.888   4.055   0.050  0.00  0.00    -0.050 Br
BRANCH   7   9
ATOM      9  O   UNL     1       2.366   1.124  -0.015  0.00  0.00    -0.482 OA
BRANCH   9  10
ATOM     10  C   UNL     1       2.312  -0.304  -0.023  0.00  0.00    +0.324 C 
BRANCH  10  11
ATOM     11  C   UNL     1       3.713  -0.859  -0.040  0.00  0.00    +0.248 C 
ATOM     12  O   UNL     1       4.664  -0.106  -0.044  0.00  0.00    -0.272 OA
ATOM     13  N   UNL     1       3.909  -2.192  -0.049  0.00  0.00    -0.327 N 
ATOM     14  H   UNL     1       4.932  -2.598  -0.061  0.00  0.00    +0.145 HD
ATOM     15  H   UNL     1       3.047  -2.875  -0.045  0.00  0.00    +0.145 HD
ENDBRANCH  10  11
ENDBRANCH   9  10
ENDBRANCH   7   9
ENDBRANCH   1   2
BRANCH   1  16
ATOM     16  N   UNL     1       2.981   4.000  -1.370  0.00  0.00    -0.312 NA
ATOM     17  H   UNL     1       2.239   4.491  -2.016  0.00  0.00    +0.122 HD
BRANCH  16  18
ATOM     18  C   UNL     1       4.243   4.749  -1.417  0.00  0.00    +0.086 C 
BRANCH  18  19
ATOM     19  C   UNL     1       4.763   4.782  -2.855  0.00  0.00    +0.052 C 
BRANCH  19  26
ATOM     20  C   UNL     1       9.232   3.583  -2.105  0.00  0.00    +0.001 A 
ATOM     21  C   UNL     1      10.112   4.645  -2.268  0.00  0.00    +0.002 A 
ATOM     22  C   UNL     1       9.648   5.895  -2.614  0.00  0.00    +0.026 A 
ATOM     23  C   UNL     1       8.285   6.098  -2.803  0.00  0.00    +0.047 A 
ATOM     24  C   UNL     1       7.398   5.018  -2.638  0.00  0.00    +0.003 A 
ATOM     25  C   UNL     1       7.890   3.760  -2.286  0.00  0.00    +0.010 A 
ATOM     26  C   UNL     1       6.059   5.550  -2.904  0.00  0.00    -0.021 A 
ATOM     27  C   UNL     1       6.206   6.850  -3.204  0.00  0.00    +0.087 A 
ATOM     28  N   UNL     1       7.528   7.197  -3.144  0.00  0.00    -0.360 N 
ATOM     29  H   UNL     1       8.016   8.167  -3.321  0.00  0.00    +0.165 HD
ENDBRANCH  19  26
ENDBRANCH  18  19
ENDBRANCH  16  18
ENDBRANCH   1  16
TORSDOF 8
