REMARK  Name = ZINC34979907
REMARK  9 active torsions:
REMARK  status: ('A' for Active; 'I' for Inactive)
REMARK    1  A    between atoms: C_1  and  C_2
REMARK    2  A    between atoms: C_2  and  C_3
REMARK    3  A    between atoms: C_3  and  C_5
REMARK    4  A    between atoms: C_3  and  C_6
REMARK    5  A    between atoms: C_6  and  C_8
REMARK    6  A    between atoms: C_6  and  N_26
REMARK    7  A    between atoms: C_14  and  C_17
REMARK    8  A    between atoms: C_18  and  C_20
REMARK    9  A    between atoms: N_29  and  C_30
REMARK                            x       y       z     vdW  Elec       q    Type
REMARK                         _______ _______ _______ _____ _____    ______ ____
ROOT
ATOM      1  C   UNL     1      -1.879  -2.832   0.137  0.00  0.00    +0.163 C 
ENDROOT
BRANCH   1   2
ATOM      2  C   UNL     1      -1.198  -3.250   1.415  0.00  0.00    +0.236 C 
ATOM      3  O   UNL     1      -0.088  -3.738   1.379  0.00  0.00    -0.274 OA
ATOM      4  N   UNL     1      -1.822  -3.081   2.598  0.00  0.00    -0.297 N 
ATOM      5  C   UNL     1      -3.214  -2.611   2.649  0.00  0.00    +0.127 C 
ATOM      6  C   UNL     1      -3.277  -1.361   3.535  0.00  0.00    +0.127 C 
ATOM      7  N   UNL     1      -2.578  -1.644   4.796  0.00  0.00    -0.292 N 
ATOM      8  C   UNL     1      -1.187  -2.114   4.745  0.00  0.00    +0.091 C 
ATOM      9  C   UNL     1      -1.125  -3.369   3.859  0.00  0.00    +0.130 C 
ATOM     10  C   UNL     1      -0.296  -1.017   4.157  0.00  0.00    +0.029 C 
ATOM     11  C   UNL     1      -3.202  -1.475   5.979  0.00  0.00    +0.247 C 
ATOM     12  O   UNL     1      -4.324  -1.008   6.013  0.00  0.00    -0.270 OA
BRANCH  11  13
ATOM     13  C   UNL     1      -2.523  -1.858   7.235  0.00  0.00    +0.037 A 
ATOM     14  C   UNL     1      -1.199  -1.477   7.460  0.00  0.00    +0.013 A 
ATOM     15  C   UNL     1      -0.571  -1.837   8.634  0.00  0.00    +0.001 A 
ATOM     16  C   UNL     1      -1.250  -2.576   9.587  0.00  0.00    +0.000 A 
ATOM     17  C   UNL     1      -2.562  -2.958   9.370  0.00  0.00    +0.001 A 
ATOM     18  C   UNL     1      -3.204  -2.599   8.202  0.00  0.00    +0.013 A 
ENDBRANCH  11  13
ENDBRANCH   1   2
BRANCH   1  19
ATOM     19  N   UNL     1      -1.306  -3.576  -0.987  0.00  0.00    -0.288 N 
ATOM     20  C   UNL     1      -2.032  -3.773  -2.106  0.00  0.00    +0.301 C 
ATOM     21  O   UNL     1      -3.163  -3.333  -2.181  0.00  0.00    -0.253 OA
ATOM     22  N   UNL     1      -1.504  -4.457  -3.140  0.00  0.00    -0.294 N 
ATOM     23  H   UNL     1      -0.404  -3.927  -0.927  0.00  0.00    +0.151 HD
ATOM     24  H   UNL     1      -0.602  -4.807  -3.080  0.00  0.00    +0.151 HD
BRANCH  22  25
ATOM     25  C   UNL     1      -2.294  -4.670  -4.356  0.00  0.00    +0.037 C 
ATOM     26  C   UNL     1      -2.673  -3.318  -4.962  0.00  0.00    +0.029 C 
ATOM     27  C   UNL     1      -3.498  -3.541  -6.231  0.00  0.00    -0.008 C 
ATOM     28  C   UNL     1      -2.671  -4.339  -7.242  0.00  0.00    +0.007 C 
ATOM     29  C   UNL     1      -2.292  -5.692  -6.636  0.00  0.00    -0.008 C 
ATOM     30  C   UNL     1      -1.468  -5.469  -5.366  0.00  0.00    +0.029 C 
ATOM     31  C   UNL     1      -3.563  -6.469  -6.288  0.00  0.00    +0.007 C 
ATOM     32  C   UNL     1      -4.389  -5.671  -5.278  0.00  0.00    -0.008 C 
ATOM     33  C   UNL     1      -4.769  -4.319  -5.884  0.00  0.00    +0.007 C 
ATOM     34  C   UNL     1      -3.565  -5.448  -4.008  0.00  0.00    +0.029 C 
ENDBRANCH  22  25
ENDBRANCH   1  19
BRANCH   1  35
ATOM     35  C   UNL     1      -1.673  -1.333  -0.085  0.00  0.00    +0.015 C 
ATOM     36  C   UNL     1      -2.429  -0.894  -1.340  0.00  0.00    +0.010 C 
BRANCH  35  38
ATOM     37  C   UNL     1       0.038   0.467  -0.358  0.00  0.00    +0.004 C 
ATOM     38  C   UNL     1      -0.181  -1.044  -0.261  0.00  0.00    +0.002 C 
ENDBRANCH  35  38
ENDBRANCH   1  35
TORSDOF 6
