REMARK  Name = ZINC09523610
REMARK  7 active torsions:
REMARK  status: ('A' for Active; 'I' for Inactive)
REMARK    1  A    between atoms: C_7  and  C_18
REMARK    2  A    between atoms: N_9  and  C_10
REMARK    3  A    between atoms: C_10  and  C_11
REMARK    4  A    between atoms: C_18  and  C_19
REMARK    5  A    between atoms: N_21  and  C_22
REMARK    6  A    between atoms: C_22  and  C_23
REMARK    7  A    between atoms: C_23  and  C_24
REMARK                            x       y       z     vdW  Elec       q    Type
REMARK                         _______ _______ _______ _____ _____    ______ ____
ROOT
ATOM      1  C   UNL     1       2.909   4.372  -0.003  0.00  0.00    +0.001 A 
ATOM      2  C   UNL     1       3.359   3.058  -0.014  0.00  0.00    +0.002 A 
ATOM      3  C   UNL     1       2.466   2.010  -0.011  0.00  0.00    +0.026 A 
ATOM      4  C   UNL     1       1.098   2.267   0.004  0.00  0.00    +0.050 A 
ATOM      5  C   UNL     1       0.648   3.599   0.015  0.00  0.00    +0.003 A 
ATOM      6  C   UNL     1       1.571   4.647   0.011  0.00  0.00    +0.010 A 
ATOM      7  C   UNL     1      -0.816   3.532   0.029  0.00  0.00    -0.013 A 
ATOM      8  C   UNL     1      -1.148   2.232   0.019  0.00  0.00    +0.091 A 
ATOM      9  N   UNL     1      -0.018   1.461   0.010  0.00  0.00    -0.342 N 
ENDROOT
BRANCH   9  10
ATOM     10  C   UNL     1       0.002  -0.004   0.002  0.00  0.00    +0.157 C 
BRANCH  10  11
ATOM     11  C   UNL     1       0.146  -0.512   1.413  0.00  0.00    -0.028 A 
ATOM     12  C   UNL     1       1.404  -0.734   1.943  0.00  0.00    +0.007 A 
ATOM     13  C   UNL     1       1.537  -1.194   3.239  0.00  0.00    +0.020 A 
ATOM     14  C   UNL     1       0.411  -1.445   4.003  0.00  0.00    +0.041 A 
ATOM     15  C   UNL     1      -0.848  -1.228   3.471  0.00  0.00    +0.020 A 
ATOM     16  C   UNL     1      -0.979  -0.762   2.176  0.00  0.00    +0.007 A 
ATOM     17 CL   UNL     1       0.577  -2.030   5.629  0.00  0.00    -0.084 Cl
ENDBRANCH  10  11
ENDBRANCH   9  10
BRANCH   7  18
ATOM     18  C   UNL     1      -1.767   4.701   0.045  0.00  0.00    +0.133 C 
BRANCH  18  19
ATOM     19  C   UNL     1      -2.001   5.176  -1.366  0.00  0.00    +0.217 C 
ATOM     20  O   UNL     1      -1.450   4.621  -2.293  0.00  0.00    -0.275 OA
ATOM     21  N   UNL     1      -2.824   6.219  -1.597  0.00  0.00    -0.315 N 
ATOM     22  H   UNL     1      -3.264   6.663  -0.856  0.00  0.00    +0.149 HD
BRANCH  21  23
ATOM     23  C   UNL     1      -3.051   6.682  -2.969  0.00  0.00    +0.108 C 
BRANCH  23  24
ATOM     24  C   UNL     1      -4.017   7.868  -2.953  0.00  0.00    +0.049 C 
BRANCH  24  25
ATOM     25  C   UNL     1      -4.252   8.344  -4.363  0.00  0.00    -0.072 C 
ATOM     26  C   UNL     1      -5.288   7.891  -4.992  0.00  0.00    -0.028 C 
ATOM     27  C   UNL     1      -5.647   8.264  -6.401  0.00  0.00    +0.027 C 
ATOM     28  C   UNL     1      -4.898   9.532  -6.817  0.00  0.00    +0.004 C 
ATOM     29  C   UNL     1      -3.413   9.352  -6.474  0.00  0.00    +0.005 C 
ATOM     30  C   UNL     1      -3.273   9.319  -4.949  0.00  0.00    +0.030 C 
ENDBRANCH  24  25
ENDBRANCH  23  24
ENDBRANCH  21  23
ENDBRANCH  18  19
ENDBRANCH   7  18
TORSDOF 7
