REMARK  Name = ZINC48881918
REMARK  7 active torsions:
REMARK  status: ('A' for Active; 'I' for Inactive)
REMARK    1  A    between atoms: C_1  and  N_2
REMARK    2  A    between atoms: N_2  and  C_3
REMARK    3  A    between atoms: N_2  and  C_11
REMARK    4  A    between atoms: C_3  and  C_4
REMARK    5  A    between atoms: C_11  and  C_13
REMARK    6  A    between atoms: C_11  and  C_15
REMARK    7  A    between atoms: C_13  and  N_14
REMARK                            x       y       z     vdW  Elec       q    Type
REMARK                         _______ _______ _______ _____ _____    ______ ____
ROOT
ATOM      1  C   UNL     1       0.650  -0.637  -1.223  0.00  0.00    -0.019 C 
ENDROOT
BRANCH   1   2
ATOM      2  C   UNL     1       0.193  -0.033  -2.525  0.00  0.00    +0.091 A 
ATOM      3  C   UNL     1       0.985   0.289  -3.564  0.00  0.00    +0.044 A 
ATOM      4  C   UNL     1       0.146   0.823  -4.569  0.00  0.00    +0.057 A 
ATOM      5  C   UNL     1      -1.109   0.796  -4.084  0.00  0.00    +0.170 A 
ATOM      6  O   UNL     1      -1.075   0.271  -2.848  0.00  0.00    -0.455 OA
ATOM      7 BR   UNL     1      -2.659   1.389  -4.992  0.00  0.00    -0.008 Br
ENDBRANCH   1   2
BRANCH   1   9
ATOM      8  C   UNL     1       0.053   1.431  -0.166  0.00  0.00    -0.095 C 
ATOM      9  N   UNL     1      -0.095  -0.029  -0.112  0.00  0.00    +0.386 N 
ATOM     10  H   UNL     1      -1.071  -0.271  -0.190  0.00  0.00    -0.081 HD
BRANCH   9  11
ATOM     11  C   UNL     1       0.434  -0.529   1.164  0.00  0.00    -0.043 C 
BRANCH  11  12
ATOM     12  C   UNL     1      -0.420  -0.017   2.296  0.00  0.00    -0.064 A 
ATOM     13  C   UNL     1      -0.115   1.188   2.900  0.00  0.00    +0.003 A 
ATOM     14  C   UNL     1      -0.898   1.658   3.938  0.00  0.00    +0.015 A 
ATOM     15  C   UNL     1      -1.986   0.922   4.372  0.00  0.00    +0.018 A 
ATOM     16  C   UNL     1      -2.290  -0.284   3.767  0.00  0.00    +0.015 A 
ATOM     17  C   UNL     1      -1.510  -0.750   2.725  0.00  0.00    +0.003 A 
ATOM     18 BR   UNL     1      -3.057   1.564   5.792  0.00  0.00    -0.050 Br
ENDBRANCH  11  12
ENDBRANCH   9  11
ENDBRANCH   1   9
BRANCH   1  19
ATOM     19  C   UNL     1       0.394  -2.146  -1.243  0.00  0.00    -0.094 C 
BRANCH  19  20
ATOM     20  N   UNL     1       1.205  -2.766  -2.299  0.00  0.00    +0.377 N 
ATOM     21  H   UNL     1       0.896  -2.433  -3.200  0.00  0.00    -0.090 HD
ATOM     22  H   UNL     1       2.175  -2.522  -2.165  0.00  0.00    -0.090 HD
ATOM     23  H   UNL     1       1.101  -3.769  -2.258  0.00  0.00    -0.090 HD
ENDBRANCH  19  20
ENDBRANCH   1  19
TORSDOF 6
