REMARK  Name = ZINC38615191
REMARK  11 active torsions:
REMARK  status: ('A' for Active; 'I' for Inactive)
REMARK    1  A    between atoms: C_1  and  O_2
REMARK    2  A    between atoms: O_2  and  C_3
REMARK    3  A    between atoms: C_6  and  C_9
REMARK    4  A    between atoms: C_9  and  C_11
REMARK    5  A    between atoms: C_9  and  N_32
REMARK    6  A    between atoms: C_11  and  N_12
REMARK    7  A    between atoms: C_13  and  C_15
REMARK    8  A    between atoms: C_15  and  C_16
REMARK    9  A    between atoms: C_16  and  C_17
REMARK   10  A    between atoms: C_17  and  N_18
REMARK   11  A    between atoms: C_22  and  C_23
REMARK                            x       y       z     vdW  Elec       q    Type
REMARK                         _______ _______ _______ _____ _____    ______ ____
ROOT
ATOM      1  N   UNL     1       4.397  -4.092  -7.653  0.00  0.00    -0.317 N 
ATOM      2  C   UNL     1       3.426  -4.472  -8.507  0.00  0.00    +0.213 C 
ATOM      3  O   UNL     1       2.292  -4.069  -8.354  0.00  0.00    -0.276 OA
ATOM      4  H   UNL     1       5.304  -4.414  -7.776  0.00  0.00    +0.149 HD
ENDROOT
BRANCH   1   5
ATOM      5  C   UNL     1       4.083  -3.193  -6.540  0.00  0.00    +0.093 C 
BRANCH   5   6
ATOM      6  C   UNL     1       5.374  -2.816  -5.809  0.00  0.00    -0.020 C 
BRANCH   6   7
ATOM      7  N   UNL     1       5.051  -1.988  -4.640  0.00  0.00    +0.385 N 
ATOM      8  C   UNL     1       6.292  -1.587  -3.968  0.00  0.00    -0.078 C 
ATOM      9  C   UNL     1       5.966  -0.658  -2.797  0.00  0.00    -0.019 C 
ATOM     10  C   UNL     1       5.061  -1.393  -1.805  0.00  0.00    -0.004 C 
ATOM     11  C   UNL     1       3.802  -1.871  -2.535  0.00  0.00    -0.019 C 
ATOM     12  C   UNL     1       4.209  -2.756  -3.715  0.00  0.00    -0.078 C 
ATOM     13  H   UNL     1       4.553  -1.163  -4.941  0.00  0.00    -0.081 HD
ENDBRANCH   6   7
BRANCH   6  17
ATOM     14  C   UNL     1       7.918  -0.623  -8.451  0.00  0.00    +0.120 A 
ATOM     15  C   UNL     1       8.146  -1.974  -8.229  0.00  0.00    +0.046 A 
ATOM     16  C   UNL     1       7.322  -2.680  -7.375  0.00  0.00    +0.005 A 
ATOM     17  C   UNL     1       6.271  -2.043  -6.741  0.00  0.00    -0.059 A 
ATOM     18  C   UNL     1       6.043  -0.697  -6.960  0.00  0.00    +0.005 A 
ATOM     19  C   UNL     1       6.867   0.015  -7.809  0.00  0.00    +0.046 A 
BRANCH  14  21
ATOM     20  C   UNL     1       9.790  -0.648  -9.917  0.00  0.00    +0.277 C 
ATOM     21  O   UNL     1       8.728   0.074  -9.291  0.00  0.00    -0.495 OA
ENDBRANCH  14  21
ENDBRANCH   6  17
ENDBRANCH   5   6
ENDBRANCH   1   5
BRANCH   2  22
ATOM     22  C   UNL     1       3.749  -5.397  -9.652  0.00  0.00    +0.097 C 
BRANCH  22  23
ATOM     23  C   UNL     1       2.479  -5.668 -10.462  0.00  0.00    +0.029 C 
BRANCH  23  24
ATOM     24  C   UNL     1       2.807  -6.607 -11.624  0.00  0.00    +0.115 C 
BRANCH  24  25
ATOM     25  N   UNL     1       1.591  -6.867 -12.400  0.00  0.00    -0.255 N 
ATOM     26  C   UNL     1       0.820  -7.889 -12.069  0.00  0.00    +0.258 C 
ATOM     27  O   UNL     1       1.093  -8.620 -11.136  0.00  0.00    -0.269 OA
ATOM     28  C   UNL     1      -0.392  -8.096 -12.891  0.00  0.00    +0.077 C 
ATOM     29  C   UNL     1      -1.353  -9.047 -12.789  0.00  0.00    +0.028 C 
ATOM     30  S   UNL     1      -0.239  -6.749 -14.057  0.00  0.00    -0.061 S 
ATOM     31  C   UNL     1       1.282  -6.055 -13.431  0.00  0.00    +0.121 C 
ATOM     32  S   UNL     1       2.142  -4.690 -14.004  0.00  0.00    -0.027 S 
BRANCH  29  33
ATOM     33  C   UNL     1      -2.391  -9.156 -13.824  0.00  0.00    -0.024 A 
ATOM     34  C   UNL     1      -2.212  -8.541 -15.068  0.00  0.00    +0.008 A 
ATOM     35  C   UNL     1      -3.190  -8.649 -16.034  0.00  0.00    +0.001 A 
ATOM     36  C   UNL     1      -4.348  -9.362 -15.775  0.00  0.00    +0.000 A 
ATOM     37  C   UNL     1      -4.533  -9.973 -14.547  0.00  0.00    +0.001 A 
ATOM     38  C   UNL     1      -3.562  -9.881 -13.573  0.00  0.00    +0.008 A 
ENDBRANCH  29  33
ENDBRANCH  24  25
ENDBRANCH  23  24
ENDBRANCH  22  23
ENDBRANCH   2  22
TORSDOF 10
