REMARK  Name = ZINC08063176
REMARK  3 active torsions:
REMARK  status: ('A' for Active; 'I' for Inactive)
REMARK    1  A    between atoms: C_4  and  N_7
REMARK    2  A    between atoms: C_11  and  N_14
REMARK    3  A    between atoms: C_18  and  C_20
REMARK                            x       y       z     vdW  Elec       q    Type
REMARK                         _______ _______ _______ _____ _____    ______ ____
ROOT
ATOM      1  N   UNL     1      -2.428   1.041   0.020  0.00  0.00    -0.195 N 
ATOM      2  C   UNL     1      -3.596   1.702   0.136  0.00  0.00    +0.292 A 
ATOM      3  O   UNL     1      -3.606   2.919   0.239  0.00  0.00    -0.264 OA
ATOM      4  C   UNL     1      -4.801   0.985   0.133  0.00  0.00    +0.129 A 
ATOM      5  C   UNL     1      -4.761  -0.394   0.020  0.00  0.00    +0.074 A 
ATOM      6  C   UNL     1      -3.514  -1.044  -0.094  0.00  0.00    +0.158 A 
ATOM      7  N   UNL     1      -2.408  -0.353  -0.093  0.00  0.00    -0.170 NA
ATOM      8 CL   UNL     1      -6.320   1.813   0.276  0.00  0.00    -0.076 Cl
ENDROOT
BRANCH   1  12
ATOM      9  C   UNL     1       1.154   3.169   0.016  0.00  0.00    +0.000 A 
ATOM     10  C   UNL     1       0.113   3.569  -0.802  0.00  0.00    +0.002 A 
ATOM     11  C   UNL     1      -1.074   2.863  -0.806  0.00  0.00    +0.028 A 
ATOM     12  C   UNL     1      -1.224   1.755   0.017  0.00  0.00    +0.069 A 
ATOM     13  C   UNL     1      -0.175   1.353   0.835  0.00  0.00    +0.028 A 
ATOM     14  C   UNL     1       1.009   2.063   0.834  0.00  0.00    +0.002 A 
ENDBRANCH   1  12
BRANCH   5  15
ATOM     15  N   UNL     1      -5.935  -1.129   0.019  0.00  0.00    -0.318 N 
ATOM     16  C   UNL     1      -6.079  -1.892  -1.234  0.00  0.00    +0.106 C 
ATOM     17  C   UNL     1      -6.232  -3.379  -0.850  0.00  0.00    +0.021 C 
ATOM     18  C   UNL     1      -6.736  -3.310   0.616  0.00  0.00    +0.031 C 
ATOM     19  C   UNL     1      -5.968  -2.077   1.153  0.00  0.00    +0.129 C 
BRANCH  19  20
ATOM     20  C   UNL     1      -6.701  -1.471   2.322  0.00  0.00    +0.100 A 
ATOM     21  N   UNL     1      -7.827  -0.813   2.318  0.00  0.00    -0.242 NA
ATOM     22  C   UNL     1      -8.384  -0.322   3.444  0.00  0.00    +0.079 A 
ATOM     23  C   UNL     1      -9.588   0.400   3.601  0.00  0.00    +0.029 A 
ATOM     24  C   UNL     1      -9.989   0.823   4.830  0.00  0.00    +0.002 A 
ATOM     25  C   UNL     1      -9.239   0.566   5.969  0.00  0.00    +0.001 A 
ATOM     26  C   UNL     1      -8.055  -0.138   5.858  0.00  0.00    +0.017 A 
ATOM     27  C   UNL     1      -7.641  -0.570   4.621  0.00  0.00    +0.039 A 
ATOM     28  S   UNL     1      -6.247  -1.474   3.998  0.00  0.00    -0.070 S 
ENDBRANCH  19  20
ENDBRANCH   5  15
TORSDOF 3
