REMARK  Name = ZINC03655250
REMARK  5 active torsions:
REMARK  status: ('A' for Active; 'I' for Inactive)
REMARK    1  A    between atoms: C_1  and  C_2
REMARK    2  A    between atoms: C_5  and  C_8
REMARK    3  A    between atoms: C_14  and  C_16
REMARK    4  A    between atoms: C_16  and  S_17
REMARK    5  A    between atoms: S_17  and  C_18
REMARK                            x       y       z     vdW  Elec       q    Type
REMARK                         _______ _______ _______ _____ _____    ______ ____
ROOT
ATOM      1  C   UNL     1      -1.193   1.889  -5.830  0.00  0.00    +0.130 A 
ATOM      2  N   UNL     1      -0.523   1.437  -4.775  0.00  0.00    -0.205 NA
ATOM      3  C   UNL     1      -0.964   1.735  -3.575  0.00  0.00    +0.230 A 
ATOM      4  N   UNL     1      -2.045   2.478  -3.444  0.00  0.00    -0.174 NA
ATOM      5  S   UNL     1      -2.479   2.774  -5.074  0.00  0.00    +0.035 S 
ATOM      6  N   UNL     1      -0.288   1.272  -2.443  0.00  0.00    -0.253 N 
ATOM      7  C   UNL     1      -0.742   1.585  -1.213  0.00  0.00    +0.230 C 
ATOM      8  O   UNL     1      -1.736   2.268  -1.088  0.00  0.00    -0.274 OA
ATOM      9  H   UNL     1       0.507   0.726  -2.543  0.00  0.00    +0.158 HD
ENDROOT
BRANCH   1  14
ATOM     10  C   UNL     1      -0.099   1.133 -11.429  0.00  0.00    +0.044 C 
ATOM     11  C   UNL     1      -0.385   1.330  -9.963  0.00  0.00    -0.050 A 
ATOM     12  C   UNL     1      -1.478   2.082  -9.570  0.00  0.00    +0.004 A 
ATOM     13  C   UNL     1      -1.746   2.267  -8.229  0.00  0.00    +0.011 A 
ATOM     14  C   UNL     1      -0.912   1.694  -7.269  0.00  0.00    +0.009 A 
ATOM     15  C   UNL     1       0.192   0.942  -7.672  0.00  0.00    +0.011 A 
ATOM     16  C   UNL     1       0.446   0.760  -9.016  0.00  0.00    +0.004 A 
ENDBRANCH   1  14
BRANCH   7  17
ATOM     17  C   UNL     1      -0.013   1.086   0.008  0.00  0.00    +0.173 C 
BRANCH  17  18
ATOM     18  S   UNL     1      -0.860   1.669   1.497  0.00  0.00    -0.076 S 
BRANCH  18  19
ATOM     19  C   UNL     1       0.174   0.961   2.735  0.00  0.00    +0.197 A 
ATOM     20  N   UNL     1       1.241   0.220   2.530  0.00  0.00    -0.122 NA
ATOM     21  N   UNL     1       1.762  -0.130   3.652  0.00  0.00    -0.129 NA
ATOM     22  C   UNL     1       1.049   0.361   4.649  0.00  0.00    +0.162 A 
ATOM     23  N   UNL     1       0.014   1.073   4.085  0.00  0.00    -0.270 N 
ATOM     24  C   UNL     1      -0.921   1.715   4.879  0.00  0.00    +0.058 A 
ATOM     25  C   UNL     1      -1.966   2.434   4.313  0.00  0.00    +0.027 A 
ATOM     26  C   UNL     1      -2.885   3.067   5.124  0.00  0.00    +0.002 A 
ATOM     27  C   UNL     1      -2.778   2.994   6.505  0.00  0.00    +0.001 A 
ATOM     28  C   UNL     1      -1.749   2.288   7.087  0.00  0.00    +0.010 A 
ATOM     29  C   UNL     1      -0.809   1.641   6.279  0.00  0.00    -0.001 A 
ATOM     30  C   UNL     1       0.297   0.881   6.870  0.00  0.00    +0.013 A 
ATOM     31  C   UNL     1       1.185   0.269   6.055  0.00  0.00    +0.049 A 
ENDBRANCH  18  19
ENDBRANCH  17  18
ENDBRANCH   7  17
TORSDOF 4
