REMARK  Name = ZINC09561879
REMARK  10 active torsions:
REMARK  status: ('A' for Active; 'I' for Inactive)
REMARK    1  A    between atoms: C_1  and  C_2
REMARK    2  A    between atoms: C_2  and  O_3
REMARK    3  A    between atoms: O_3  and  C_4
REMARK    4  A    between atoms: C_10  and  C_32
REMARK    5  A    between atoms: C_11  and  C_13
REMARK    6  A    between atoms: C_13  and  O_15
REMARK    7  A    between atoms: O_15  and  C_16
REMARK    8  A    between atoms: C_16  and  C_17
REMARK    9  A    between atoms: N_19  and  C_20
REMARK   10  A    between atoms: C_21  and  C_29
REMARK                            x       y       z     vdW  Elec       q    Type
REMARK                         _______ _______ _______ _____ _____    ______ ____
ROOT
ATOM      1  C   UNL     1       8.489   3.612  -0.061  0.00  0.00    +0.255 C 
ATOM      2  O   UNL     1       7.682   4.517  -0.048  0.00  0.00    -0.272 OA
ATOM      3  N   UNL     1       9.809   3.886  -0.072  0.00  0.00    -0.277 N 
ATOM      4  H   UNL     1      10.454   3.162  -0.082  0.00  0.00    +0.155 HD
ENDROOT
BRANCH   3   5
ATOM      5  C   UNL     1      10.244   5.203  -0.069  0.00  0.00    +0.084 A 
ATOM      6  C   UNL     1      11.546   5.680  -0.073  0.00  0.00    +0.068 A 
ATOM      7  C   UNL     1      11.733   7.121  -0.072  0.00  0.00    -0.023 A 
ATOM      8  C   UNL     1      10.595   7.849  -0.057  0.00  0.00    -0.004 A 
ATOM      9  S   UNL     1       9.292   6.651  -0.052  0.00  0.00    -0.077 S 
ATOM     10  C   UNL     1      10.478   9.342  -0.047  0.00  0.00    +0.043 C 
ATOM     11  C   UNL     1      11.847   9.932   0.322  0.00  0.00    +0.005 C 
ATOM     12  C   UNL     1      12.923   9.252  -0.529  0.00  0.00    +0.005 C 
ATOM     13  C   UNL     1      13.098   7.799  -0.082  0.00  0.00    +0.037 C 
BRANCH   6  14
ATOM     14  C   UNL     1      12.692   4.765  -0.083  0.00  0.00    +0.244 C 
ATOM     15  O   UNL     1      13.163   4.390  -1.141  0.00  0.00    -0.270 OA
ATOM     16  N   UNL     1      13.224   4.339   1.080  0.00  0.00    -0.325 N 
ATOM     17  H   UNL     1      12.849   4.638   1.923  0.00  0.00    +0.145 HD
ATOM     18  H   UNL     1      13.981   3.734   1.074  0.00  0.00    +0.145 HD
ENDBRANCH   6  14
ENDBRANCH   3   5
BRANCH   1  19
ATOM     19  C   UNL     1       8.017   2.181  -0.064  0.00  0.00    +0.328 C 
BRANCH  19  20
ATOM     20  O   UNL     1       6.565   2.151  -0.050  0.00  0.00    -0.450 OA
BRANCH  20  21
ATOM     21  C   UNL     1       5.978   0.937  -0.051  0.00  0.00    +0.376 C 
ATOM     22  O   UNL     1       6.661  -0.069  -0.062  0.00  0.00    -0.241 OA
BRANCH  21  30
ATOM     23  C   UNL     1       0.002  -0.004   0.002  0.00  0.00    +0.121 A 
ATOM     24  C   UNL     1      -0.017   1.389   0.010  0.00  0.00    +0.049 A 
ATOM     25  C   UNL     1       1.158   2.108   0.002  0.00  0.00    +0.050 A 
ATOM     26  C   UNL     1       2.380   1.446  -0.013  0.00  0.00    +0.136 A 
ATOM     27  C   UNL     1       2.402   0.039  -0.021  0.00  0.00    +0.027 A 
ATOM     28  C   UNL     1       1.204  -0.682  -0.013  0.00  0.00    +0.057 A 
ATOM     29  C   UNL     1       3.815  -0.336  -0.037  0.00  0.00    +0.010 A 
ATOM     30  C   UNL     1       4.514   0.829  -0.037  0.00  0.00    +0.216 A 
ATOM     31  O   UNL     1       3.659   1.873  -0.023  0.00  0.00    -0.448 OA
ATOM     32  C   UNL     1       4.382  -1.733  -0.050  0.00  0.00    +0.048 C 
BRANCH  23  33
ATOM     33  O   UNL     1      -1.167  -0.698   0.009  0.00  0.00    -0.492 OA
BRANCH  33  35
ATOM     34  C   UNL     1      -3.577  -0.881   0.030  0.00  0.00    +0.048 C 
ATOM     35  C   UNL     1      -2.375   0.066   0.024  0.00  0.00    +0.225 C 
ENDBRANCH  33  35
ENDBRANCH  23  33
ENDBRANCH  21  30
ENDBRANCH  20  21
ENDBRANCH  19  20
ENDBRANCH   1  19
TORSDOF 8
