REMARK  Name = ZINC40016001
REMARK  15 active torsions:
REMARK  status: ('A' for Active; 'I' for Inactive)
REMARK    1  A    between atoms: C_1  and  C_2
REMARK    2  A    between atoms: C_2  and  C_3
REMARK    3  A    between atoms: C_3  and  O_4
REMARK    4  A    between atoms: O_4  and  C_5
REMARK    5  A    between atoms: C_8  and  C_13
REMARK    6  A    between atoms: C_10  and  O_11
REMARK    7  A    between atoms: O_11  and  C_12
REMARK    8  A    between atoms: C_14  and  C_15
REMARK    9  A    between atoms: C_23  and  C_24
REMARK   10  A    between atoms: C_27  and  O_33
REMARK   11  A    between atoms: C_28  and  O_30
REMARK   12  A    between atoms: O_30  and  C_31
REMARK   13  A    between atoms: C_31  and  C_32
REMARK   14  A    between atoms: O_33  and  C_34
REMARK   15  A    between atoms: C_34  and  C_36
REMARK                            x       y       z     vdW  Elec       q    Type
REMARK                         _______ _______ _______ _____ _____    ______ ____
ROOT
ATOM      1  C   UNL     1       2.638  -4.213  -9.608  0.00  0.00    +0.176 A 
ATOM      2  N   UNL     1       2.904  -5.530  -9.571  0.00  0.00    -0.201 NA
ATOM      3  C   UNL     1       3.961  -5.775 -10.292  0.00  0.00    +0.200 A 
ATOM      4  N   UNL     1       4.431  -4.611 -10.834  0.00  0.00    -0.169 N 
ATOM      5  N   UNL     1       3.531  -3.616 -10.363  0.00  0.00    -0.142 NA
ATOM      6  C   UNL     1       5.520  -4.654 -11.614  0.00  0.00    +0.288 A 
ATOM      7  O   UNL     1       5.974  -3.643 -12.117  0.00  0.00    -0.265 OA
ATOM      8  C   UNL     1       6.149  -5.963 -11.840  0.00  0.00    +0.082 A 
ATOM      9  C   UNL     1       7.245  -6.280 -12.577  0.00  0.00    +0.028 C 
ATOM     10  S   UNL     1       5.078  -7.026 -10.882  0.00  0.00    -0.044 S 
ENDROOT
BRANCH   9  11
ATOM     11  C   UNL     1       7.537  -7.683 -12.893  0.00  0.00    -0.020 A 
ATOM     12  C   UNL     1       6.592  -8.678 -12.612  0.00  0.00    +0.012 A 
ATOM     13  C   UNL     1       6.869  -9.994 -12.909  0.00  0.00    +0.051 A 
ATOM     14  C   UNL     1       8.085 -10.339 -13.486  0.00  0.00    +0.173 A 
ATOM     15  C   UNL     1       9.031  -9.355 -13.768  0.00  0.00    +0.163 A 
ATOM     16  C   UNL     1       8.760  -8.031 -13.480  0.00  0.00    +0.057 A 
BRANCH  15  17
ATOM     17  O   UNL     1      10.220  -9.697 -14.333  0.00  0.00    -0.489 OA
BRANCH  17  18
ATOM     18  C   UNL     1      11.143  -8.638 -14.594  0.00  0.00    +0.226 C 
ATOM     19  C   UNL     1      12.413  -9.213 -15.225  0.00  0.00    +0.048 C 
ENDBRANCH  17  18
ENDBRANCH  15  17
BRANCH  14  20
ATOM     20  O   UNL     1       8.352 -11.639 -13.776  0.00  0.00    -0.422 OA
BRANCH  20  21
ATOM     21  C   UNL     1       9.035 -12.359 -12.871  0.00  0.00    +0.309 C 
ATOM     22  O   UNL     1       9.452 -11.830 -11.868  0.00  0.00    -0.251 OA
ATOM     23  C   UNL     1       9.280 -13.827 -13.107  0.00  0.00    +0.136 C 
ENDBRANCH  20  21
ENDBRANCH  14  20
ENDBRANCH   9  11
BRANCH   1  25
ATOM     24  C   UNL     1       0.668  -4.268  -8.168  0.00  0.00    +0.012 C 
ATOM     25  C   UNL     1       1.520  -3.547  -8.916  0.00  0.00    +0.050 C 
BRANCH  24  29
ATOM     26  C   UNL     1      -2.553  -2.342  -6.178  0.00  0.00    +0.162 A 
ATOM     27  C   UNL     1      -1.672  -1.599  -6.951  0.00  0.00    +0.050 A 
ATOM     28  C   UNL     1      -0.625  -2.220  -7.598  0.00  0.00    +0.012 A 
ATOM     29  C   UNL     1      -0.449  -3.602  -7.477  0.00  0.00    -0.021 A 
ATOM     30  C   UNL     1      -1.337  -4.350  -6.699  0.00  0.00    +0.057 A 
ATOM     31  C   UNL     1      -2.381  -3.719  -6.048  0.00  0.00    +0.162 A 
BRANCH  31  32
ATOM     32  O   UNL     1      -3.244  -4.443  -5.286  0.00  0.00    -0.491 OA
ATOM     33  C   UNL     1      -3.008  -5.849  -5.197  0.00  0.00    +0.277 C 
ENDBRANCH  31  32
BRANCH  26  34
ATOM     34  O   UNL     1      -3.583  -1.725  -5.542  0.00  0.00    -0.488 OA
BRANCH  34  35
ATOM     35  C   UNL     1      -3.701  -0.312  -5.718  0.00  0.00    +0.229 C 
BRANCH  35  37
ATOM     36  C   UNL     1      -5.035   1.714  -5.121  0.00  0.00    +0.007 C 
ATOM     37  C   UNL     1      -4.909   0.201  -4.932  0.00  0.00    +0.038 C 
ENDBRANCH  35  37
ENDBRANCH  34  35
ENDBRANCH  26  34
ENDBRANCH  24  29
ENDBRANCH   1  25
TORSDOF 11
