REMARK  Name = ZINC17850584
REMARK  9 active torsions:
REMARK  status: ('A' for Active; 'I' for Inactive)
REMARK    1  A    between atoms: C_1  and  C_2
REMARK    2  A    between atoms: C_2  and  C_3
REMARK    3  A    between atoms: C_3  and  C_5
REMARK    4  A    between atoms: C_3  and  C_6
REMARK    5  A    between atoms: C_9  and  S_12
REMARK    6  A    between atoms: S_12  and  N_15
REMARK    7  A    between atoms: C_21  and  C_23
REMARK    8  A    between atoms: C_25  and  C_30
REMARK    9  A    between atoms: C_28  and  O_29
REMARK                            x       y       z     vdW  Elec       q    Type
REMARK                         _______ _______ _______ _____ _____    ______ ____
ROOT
ATOM      1  N   UNL     1      -0.958  -1.872  -5.872  0.00  0.00    -0.174 NA
ATOM      2  C   UNL     1      -0.980  -0.402  -5.852  0.00  0.00    +0.128 C 
ATOM      3  C   UNL     1       0.143   0.092  -4.932  0.00  0.00    +0.125 C 
ATOM      4  N   UNL     1       0.060  -0.634  -3.657  0.00  0.00    -0.295 N 
ATOM      5  C   UNL     1       0.087  -2.103  -3.676  0.00  0.00    +0.125 C 
ATOM      6  C   UNL     1      -1.041  -2.598  -4.597  0.00  0.00    +0.128 C 
ATOM      7  C   UNL     1      -0.034   0.035  -2.491  0.00  0.00    +0.250 C 
ATOM      8  O   UNL     1      -0.156   1.245  -2.493  0.00  0.00    -0.270 OA
ENDROOT
BRANCH   7   9
ATOM      9  C   UNL     1       0.011  -0.700  -1.213  0.00  0.00    +0.078 A 
ATOM     10  C   UNL     1       1.074  -1.562  -0.935  0.00  0.00    +0.020 A 
ATOM     11  C   UNL     1       1.107  -2.251   0.258  0.00  0.00    -0.050 A 
ATOM     12  C   UNL     1       0.093  -2.087   1.187  0.00  0.00    +0.007 A 
ATOM     13  C   UNL     1      -0.961  -1.234   0.928  0.00  0.00    +0.046 A 
ATOM     14  C   UNL     1      -1.011  -0.534  -0.268  0.00  0.00    +0.129 A 
ATOM     15  C   UNL     1       2.252  -3.186   0.553  0.00  0.00    +0.044 C 
BRANCH  14  16
ATOM     16  O   UNL     1      -2.046   0.304  -0.524  0.00  0.00    -0.506 OA
ATOM     17  H   UNL     1      -1.899   1.213  -0.228  0.00  0.00    +0.292 HD
ENDBRANCH  14  16
ENDBRANCH   7   9
BRANCH   1  18
ATOM     18  S   UNL     1      -0.841  -2.694  -7.304  0.00  0.00    +0.061 S 
ATOM     19  O   UNL     1      -1.392  -3.984  -7.078  0.00  0.00    -0.153 OA
ATOM     20  O   UNL     1      -1.331  -1.823  -8.314  0.00  0.00    -0.153 OA
BRANCH  18  24
ATOM     21  C   UNL     1       3.566  -3.299  -8.146  0.00  0.00    -0.044 A 
ATOM     22  C   UNL     1       2.864  -4.246  -7.422  0.00  0.00    +0.006 A 
ATOM     23  C   UNL     1       1.518  -4.061  -7.166  0.00  0.00    +0.029 A 
ATOM     24  C   UNL     1       0.874  -2.929  -7.631  0.00  0.00    +0.105 A 
ATOM     25  C   UNL     1       1.575  -1.986  -8.359  0.00  0.00    +0.029 A 
ATOM     26  C   UNL     1       2.922  -2.168  -8.612  0.00  0.00    +0.006 A 
BRANCH  21  27
ATOM     27  C   UNL     1       5.033  -3.501  -8.425  0.00  0.00    +0.016 C 
ATOM     28  C   UNL     1       5.263  -3.542  -9.937  0.00  0.00    +0.012 C 
BRANCH  27  30
ATOM     29  C   UNL     1       7.327  -2.611  -7.994  0.00  0.00    +0.004 C 
ATOM     30  C   UNL     1       5.831  -2.345  -7.819  0.00  0.00    +0.004 C 
ENDBRANCH  27  30
ENDBRANCH  21  27
ENDBRANCH  18  24
ENDBRANCH   1  18
TORSDOF 6
