REMARK  Name = ZINC20731110
REMARK  5 active torsions:
REMARK  status: ('A' for Active; 'I' for Inactive)
REMARK    1  A    between atoms: C_3  and  C_8
REMARK    2  A    between atoms: C_8  and  O_9
REMARK    3  A    between atoms: O_9  and  C_10
REMARK    4  A    between atoms: C_14  and  C_16
REMARK    5  A    between atoms: C_19  and  O_27
REMARK                            x       y       z     vdW  Elec       q    Type
REMARK                         _______ _______ _______ _____ _____    ______ ____
ROOT
ATOM      1  C   UNL     1       5.252   3.110   1.494  0.00  0.00    +0.121 A 
ATOM      2  C   UNL     1       5.966   3.555   0.390  0.00  0.00    +0.045 A 
ATOM      3  C   UNL     1       7.143   4.256   0.566  0.00  0.00    +0.004 A 
ATOM      4  C   UNL     1       7.610   4.514   1.842  0.00  0.00    +0.004 A 
ATOM      5  C   UNL     1       6.902   4.072   2.943  0.00  0.00    -0.036 A 
ATOM      6  C   UNL     1       5.721   3.376   2.772  0.00  0.00    +0.050 A 
ENDROOT
BRANCH   5   7
ATOM      7  C   UNL     1       7.415   4.356   4.332  0.00  0.00    +0.063 C 
ATOM      8  C   UNL     1       7.539   5.869   4.541  0.00  0.00    +0.108 C 
ATOM      9  C   UNL     1       8.753   6.431   3.866  0.00  0.00    +0.190 C 
ATOM     10  N   UNL     1       9.874   5.791   3.732  0.00  0.00    -0.196 NA
ATOM     11  C   UNL     1       9.960   4.501   4.199  0.00  0.00    +0.181 A 
ATOM     12  C   UNL     1       8.787   3.754   4.503  0.00  0.00    +0.024 A 
ATOM     13  C   UNL     1       9.162   2.543   4.924  0.00  0.00    +0.111 A 
ATOM     14  N   UNL     1      10.516   2.498   4.904  0.00  0.00    -0.282 N 
ATOM     15  H   UNL     1      11.064   1.740   5.161  0.00  0.00    +0.188 HD
ATOM     16  N   UNL     1      10.991   3.743   4.446  0.00  0.00    -0.154 NA
BRANCH   9  17
ATOM     17  O   UNL     1       8.676   7.682   3.367  0.00  0.00    -0.495 OA
ATOM     18  H   UNL     1       9.491   7.987   2.944  0.00  0.00    +0.293 HD
ENDBRANCH   9  17
ENDBRANCH   5   7
BRANCH   1  19
ATOM     19  O   UNL     1       4.094   2.421   1.323  0.00  0.00    -0.487 OA
BRANCH  19  20
ATOM     20  C   UNL     1       3.672   2.184  -0.021  0.00  0.00    +0.264 C 
BRANCH  20  23
ATOM     21  C   UNL     1      -0.017   1.378   0.010  0.00  0.00    +0.002 A 
ATOM     22  C   UNL     1       1.171   2.086   0.002  0.00  0.00    +0.007 A 
ATOM     23  C   UNL     1       2.378   1.412  -0.013  0.00  0.00    -0.009 A 
ATOM     24  C   UNL     1       2.398   0.029  -0.021  0.00  0.00    +0.027 A 
ATOM     25  C   UNL     1       1.210  -0.679  -0.013  0.00  0.00    +0.041 A 
ATOM     26  C   UNL     1       0.002  -0.004   0.002  0.00  0.00    +0.020 A 
ATOM     27 CL   UNL     1       1.234  -2.415  -0.024  0.00  0.00    -0.084 Cl
ENDBRANCH  20  23
ENDBRANCH  19  20
ENDBRANCH   1  19
TORSDOF 5
