REMARK  Name = ZINC34786620
REMARK  7 active torsions:
REMARK  status: ('A' for Active; 'I' for Inactive)
REMARK    1  A    between atoms: C_1  and  C_2
REMARK    2  A    between atoms: C_4  and  C_35
REMARK    3  A    between atoms: N_20  and  N_21
REMARK    4  A    between atoms: N_20  and  N_30
REMARK    5  A    between atoms: N_21  and  C_22
REMARK    6  A    between atoms: C_27  and  O_28
REMARK    7  A    between atoms: O_28  and  C_29
REMARK                            x       y       z     vdW  Elec       q    Type
REMARK                         _______ _______ _______ _____ _____    ______ ____
ROOT
ATOM      1  C   UNL     1       0.194   1.095  -0.408  0.00  0.00    +0.067 C 
ATOM      2  C   UNL     1       0.160  -0.407  -0.301  0.00  0.00    +0.061 A 
ATOM      3  C   UNL     1       0.141  -1.305  -1.375  0.00  0.00    +0.048 A 
ATOM      4  C   UNL     1       0.113  -2.560  -0.869  0.00  0.00    +0.045 A 
ATOM      5  N   UNL     1       0.116  -2.457   0.486  0.00  0.00    -0.202 N 
ATOM      6  N   UNL     1       0.150  -1.095   0.812  0.00  0.00    -0.169 NA
ATOM      7  C   UNL     1       0.093  -3.519   1.391  0.00  0.00    +0.254 A 
ATOM      8  N   UNL     1       0.093  -3.264   2.692  0.00  0.00    -0.192 NA
ATOM      9  C   UNL     1       0.072  -4.227   3.598  0.00  0.00    +0.167 A 
ATOM     10  C   UNL     1       0.048  -5.584   3.168  0.00  0.00    +0.054 A 
ATOM     11  C   UNL     1       0.025  -6.801   3.981  0.00  0.00    -0.025 A 
ATOM     12  C   UNL     1       0.005  -7.977   3.321  0.00  0.00    -0.004 A 
ATOM     13  S   UNL     1       0.016  -7.543   1.603  0.00  0.00    -0.073 S 
ATOM     14  C   UNL     1       0.049  -5.778   1.772  0.00  0.00    +0.116 A 
ATOM     15  N   UNL     1       0.065  -4.761   0.933  0.00  0.00    -0.203 NA
ATOM     16  C   UNL     1      -0.020  -9.352   3.917  0.00  0.00    +0.043 C 
ATOM     17  C   UNL     1       0.356  -9.243   5.402  0.00  0.00    +0.005 C 
ATOM     18  C   UNL     1      -0.463  -8.114   6.034  0.00  0.00    +0.005 C 
ATOM     19  C   UNL     1       0.024  -6.763   5.507  0.00  0.00    +0.037 C 
ATOM     20  N   UNL     1       0.073  -3.920   4.946  0.00  0.00    -0.164 N 
ATOM     21  C   UNL     1       0.084  -3.839  -1.665  0.00  0.00    +0.066 C 
ENDROOT
BRANCH  20  22
ATOM     22  N   UNL     1      -0.873  -3.077   5.456  0.00  0.00    -0.208 NA
ATOM     23  C   UNL     1      -1.605  -3.714   6.572  0.00  0.00    +0.107 C 
ATOM     24  C   UNL     1      -0.923  -3.172   7.853  0.00  0.00    +0.018 C 
ATOM     25  C   UNL     1      -0.612  -1.707   7.445  0.00  0.00    +0.018 C 
ATOM     26  C   UNL     1      -0.260  -1.830   5.948  0.00  0.00    +0.107 C 
ENDBRANCH  20  22
BRANCH  20  27
ATOM     27  N   UNL     1       1.045  -4.474   5.790  0.00  0.00    -0.245 N 
ATOM     28  H   UNL     1       0.792  -5.135   6.453  0.00  0.00    +0.172 HD
BRANCH  27  29
ATOM     29  C   UNL     1       2.381  -4.073   5.675  0.00  0.00    +0.087 A 
ATOM     30  C   UNL     1       2.760  -3.191   4.674  0.00  0.00    +0.028 A 
ATOM     31  C   UNL     1       4.080  -2.796   4.563  0.00  0.00    +0.002 A 
ATOM     32  C   UNL     1       5.026  -3.279   5.448  0.00  0.00    +0.004 A 
ATOM     33  C   UNL     1       4.656  -4.159   6.449  0.00  0.00    +0.047 A 
ATOM     34  C   UNL     1       3.334  -4.555   6.570  0.00  0.00    +0.142 A 
BRANCH  34  35
ATOM     35  O   UNL     1       2.969  -5.416   7.557  0.00  0.00    -0.493 OA
ATOM     36  C   UNL     1       3.975  -5.784   8.503  0.00  0.00    +0.277 C 
ENDBRANCH  34  35
ENDBRANCH  27  29
ENDBRANCH  20  27
TORSDOF 4
