REMARK  Name = ZINC67287703
REMARK  11 active torsions:
REMARK  status: ('A' for Active; 'I' for Inactive)
REMARK    1  A    between atoms: C_1  and  C_2
REMARK    2  A    between atoms: C_2  and  O_3
REMARK    3  A    between atoms: O_3  and  C_4
REMARK    4  A    between atoms: C_7  and  C_10
REMARK    5  A    between atoms: C_12  and  C_31
REMARK    6  A    between atoms: C_13  and  C_18
REMARK    7  A    between atoms: C_18  and  N_19
REMARK    8  A    between atoms: N_22  and  C_25
REMARK    9  A    between atoms: C_31  and  O_33
REMARK   10  A    between atoms: O_33  and  C_34
REMARK   11  A    between atoms: C_34  and  C_35
REMARK                            x       y       z     vdW  Elec       q    Type
REMARK                         _______ _______ _______ _____ _____    ______ ____
ROOT
ATOM      1  C   UNL     1      -1.995  -6.120  -0.038  0.00  0.00    +0.144 C 
ATOM      2  C   UNL     1      -2.236  -6.456   1.420  0.00  0.00    +0.079 C 
ATOM      3  C   UNL     1      -3.375  -7.110   1.734  0.00  0.00    +0.038 C 
ATOM      4  N   UNL     1      -4.278  -7.456   0.770  0.00  0.00    -0.271 N 
ATOM      5  C   UNL     1      -4.116  -7.185  -0.531  0.00  0.00    +0.304 C 
ATOM      6  O   UNL     1      -4.977  -7.533  -1.315  0.00  0.00    -0.252 OA
ATOM      7  N   UNL     1      -3.031  -6.538  -0.998  0.00  0.00    -0.288 N 
ATOM      8  H   UNL     1      -5.082  -7.925   1.044  0.00  0.00    +0.156 HD
ATOM      9  H   UNL     1      -2.935  -6.351  -1.945  0.00  0.00    +0.151 HD
ENDROOT
BRANCH   1  13
ATOM     10  C   UNL     1      -1.534  -1.884  -0.356  0.00  0.00    +0.121 A 
ATOM     11  C   UNL     1      -0.416  -2.700  -0.269  0.00  0.00    +0.046 A 
ATOM     12  C   UNL     1      -0.567  -4.069  -0.166  0.00  0.00    +0.009 A 
ATOM     13  C   UNL     1      -1.833  -4.626  -0.150  0.00  0.00    -0.022 A 
ATOM     14  C   UNL     1      -2.949  -3.815  -0.238  0.00  0.00    +0.009 A 
ATOM     15  C   UNL     1      -2.803  -2.445  -0.335  0.00  0.00    +0.046 A 
BRANCH  10  16
ATOM     16  O   UNL     1      -1.388  -0.536  -0.458  0.00  0.00    -0.492 OA
BRANCH  16  18
ATOM     17  C   UNL     1      -0.088   1.496  -0.592  0.00  0.00    +0.048 C 
ATOM     18  C   UNL     1      -0.052  -0.029  -0.474  0.00  0.00    +0.225 C 
ENDBRANCH  16  18
ENDBRANCH  10  16
ENDBRANCH   1  13
BRANCH   2  19
ATOM     19  C   UNL     1      -1.299  -6.097   2.417  0.00  0.00    +0.339 C 
ATOM     20  O   UNL     1      -1.278  -4.961   2.851  0.00  0.00    -0.245 OA
BRANCH  19  21
ATOM     21  O   UNL     1      -0.429  -7.016   2.887  0.00  0.00    -0.462 OA
BRANCH  21  22
ATOM     22  C   UNL     1       0.489  -6.584   3.894  0.00  0.00    +0.229 C 
ATOM     23  C   UNL     1       1.388  -7.753   4.299  0.00  0.00    +0.048 C 
ENDBRANCH  21  22
ENDBRANCH  19  21
ENDBRANCH   2  19
BRANCH   3  24
ATOM     24  C   UNL     1      -3.653  -7.463   3.172  0.00  0.00    +0.135 C 
BRANCH  24  25
ATOM     25  N   UNL     1      -4.846  -6.740   3.633  0.00  0.00    -0.300 NA
ATOM     26  C   UNL     1      -4.600  -5.292   3.675  0.00  0.00    +0.066 C 
ATOM     27  C   UNL     1      -5.881  -4.572   4.101  0.00  0.00    -0.063 C 
ATOM     28  N   UNL     1      -6.298  -5.054   5.424  0.00  0.00    +0.383 N 
ATOM     29  C   UNL     1      -6.564  -6.497   5.360  0.00  0.00    -0.063 C 
ATOM     30  C   UNL     1      -5.288  -7.233   4.944  0.00  0.00    +0.066 C 
ATOM     31  H   UNL     1      -5.564  -4.878   6.093  0.00  0.00    -0.081 HD
BRANCH  28  32
ATOM     32  C   UNL     1      -7.518  -4.350   5.840  0.00  0.00    -0.068 C 
ATOM     33  C   UNL     1      -7.241  -2.847   5.910  0.00  0.00    -0.015 C 
ATOM     34  C   UNL     1      -8.512  -2.113   6.343  0.00  0.00    -0.002 C 
ATOM     35  C   UNL     1      -8.946  -2.616   7.721  0.00  0.00    -0.000 C 
ATOM     36  C   UNL     1      -9.223  -4.119   7.652  0.00  0.00    -0.002 C 
ATOM     37  C   UNL     1      -7.952  -4.853   7.219  0.00  0.00    -0.015 C 
ENDBRANCH  28  32
ENDBRANCH  24  25
ENDBRANCH   3  24
TORSDOF 9
