REMARK  Name = ZINC50639630
REMARK  7 active torsions:
REMARK  status: ('A' for Active; 'I' for Inactive)
REMARK    1  A    between atoms: C_1  and  C_2
REMARK    2  A    between atoms: C_5  and  C_20
REMARK    3  A    between atoms: C_6  and  N_8
REMARK    4  A    between atoms: N_8  and  S_9
REMARK    5  A    between atoms: S_9  and  C_12
REMARK    6  A    between atoms: C_17  and  N_18
REMARK    7  A    between atoms: N_18  and  C_19
REMARK                            x       y       z     vdW  Elec       q    Type
REMARK                         _______ _______ _______ _____ _____    ______ ____
ROOT
ATOM      1  S   UNL     1      -0.675  -2.151   3.778  0.00  0.00    +0.074 S 
ATOM      2  O   UNL     1      -0.445  -2.949   4.932  0.00  0.00    -0.150 OA
ATOM      3  O   UNL     1      -0.277  -0.789   3.702  0.00  0.00    -0.150 OA
ENDROOT
BRANCH   1   4
ATOM      4  C   UNL     1      -2.411  -2.186   3.481  0.00  0.00    +0.129 A 
ATOM      5  C   UNL     1      -3.102  -1.007   3.280  0.00  0.00    +0.031 A 
ATOM      6  C   UNL     1      -4.464  -1.033   3.046  0.00  0.00    +0.002 A 
ATOM      7  C   UNL     1      -5.140  -2.239   3.013  0.00  0.00    +0.002 A 
ATOM      8  C   UNL     1      -4.456  -3.421   3.212  0.00  0.00    +0.025 A 
ATOM      9  C   UNL     1      -3.086  -3.399   3.442  0.00  0.00    +0.054 A 
BRANCH   9  10
ATOM     10  N   UNL     1      -2.390  -4.594   3.639  0.00  0.00    -0.345 N 
ATOM     11  C   UNL     1      -3.120  -5.861   3.726  0.00  0.00    +0.125 C 
ATOM     12  H   UNL     1      -1.423  -4.585   3.717  0.00  0.00    +0.146 HD
ENDBRANCH   9  10
ENDBRANCH   1   4
BRANCH   1  13
ATOM     13  N   UNL     1       0.055  -2.930   2.512  0.00  0.00    -0.216 N 
ATOM     14  H   UNL     1       0.594  -3.720   2.674  0.00  0.00    +0.174 HD
BRANCH  13  20
ATOM     15  C   UNL     1      -0.439   0.874  -0.561  0.00  0.00    +0.044 C 
ATOM     16  C   UNL     1      -0.349  -0.609  -0.309  0.00  0.00    -0.049 A 
ATOM     17  C   UNL     1      -0.425  -1.496  -1.368  0.00  0.00    +0.004 A 
ATOM     18  C   UNL     1      -0.343  -2.857  -1.141  0.00  0.00    +0.005 A 
ATOM     19  C   UNL     1      -0.184  -3.336   0.145  0.00  0.00    -0.028 A 
ATOM     20  C   UNL     1      -0.106  -2.449   1.210  0.00  0.00    +0.051 A 
ATOM     21  C   UNL     1      -0.184  -1.081   0.978  0.00  0.00    +0.028 A 
ATOM     22  C   UNL     1      -0.095  -4.820   0.391  0.00  0.00    +0.046 C 
ENDBRANCH  13  20
ENDBRANCH   1  13
TORSDOF 4
