REMARK  Name = ZINC33936813
REMARK  10 active torsions:
REMARK  status: ('A' for Active; 'I' for Inactive)
REMARK    1  A    between atoms: C_1  and  C_2
REMARK    2  A    between atoms: C_7  and  C_14
REMARK    3  A    between atoms: C_14  and  C_16
REMARK    4  A    between atoms: C_14  and  N_28
REMARK    5  A    between atoms: N_20  and  C_21
REMARK    6  A    between atoms: C_21  and  C_22
REMARK    7  A    between atoms: N_28  and  C_29
REMARK    8  A    between atoms: N_28  and  C_35
REMARK    9  A    between atoms: C_29  and  C_30
REMARK   10  A    between atoms: C_35  and  C_36
REMARK                            x       y       z     vdW  Elec       q    Type
REMARK                         _______ _______ _______ _____ _____    ______ ____
ROOT
ATOM      1  C   UNL     1       0.512  -6.225   0.595  0.00  0.00    +0.163 C 
ENDROOT
BRANCH   1   8
ATOM      2  C   UNL     1      -0.873  -0.081  -4.299  0.00  0.00    +0.044 C 
ATOM      3  C   UNL     1      -0.603  -1.371  -3.568  0.00  0.00    -0.048 A 
ATOM      4  C   UNL     1      -0.449  -2.548  -4.288  0.00  0.00    +0.004 A 
ATOM      5  C   UNL     1      -0.203  -3.729  -3.646  0.00  0.00    +0.010 A 
ATOM      6  C   UNL     1      -0.105  -3.751  -2.251  0.00  0.00    -0.001 A 
ATOM      7  C   UNL     1       0.158  -4.998  -1.530  0.00  0.00    +0.021 A 
ATOM      8  C   UNL     1       0.243  -4.959  -0.177  0.00  0.00    +0.042 A 
ATOM      9  C   UNL     1       0.080  -3.738   0.510  0.00  0.00    +0.254 A 
ATOM     10  O   UNL     1       0.160  -3.725   1.726  0.00  0.00    -0.268 OA
ATOM     11  N   UNL     1      -0.162  -2.587  -0.143  0.00  0.00    -0.322 N 
ATOM     12  H   UNL     1      -0.269  -1.765   0.361  0.00  0.00    +0.169 HD
ATOM     13  C   UNL     1      -0.260  -2.560  -1.518  0.00  0.00    +0.049 A 
ATOM     14  C   UNL     1      -0.504  -1.369  -2.194  0.00  0.00    +0.029 A 
ENDBRANCH   1   8
BRANCH   1  15
ATOM     15  C   UNL     1      -0.636  -6.496   1.532  0.00  0.00    +0.173 A 
ATOM     16  N   UNL     1      -0.853  -5.923   2.691  0.00  0.00    -0.111 NA
ATOM     17  N   UNL     1      -1.932  -6.421   3.187  0.00  0.00    -0.023 NA
ATOM     18  N   UNL     1      -2.410  -7.298   2.374  0.00  0.00    -0.044 NA
ATOM     19  N   UNL     1      -1.643  -7.369   1.340  0.00  0.00    -0.225 N 
BRANCH  19  20
ATOM     20  C   UNL     1      -1.829  -8.239   0.176  0.00  0.00    +0.179 C 
BRANCH  20  21
ATOM     21  C   UNL     1      -1.151  -9.586   0.432  0.00  0.00    +0.140 C 
ATOM     22  C   UNL     1      -1.413 -10.554  -0.749  0.00  0.00    +0.035 C 
ATOM     23  C   UNL     1      -0.196 -11.510  -0.623  0.00  0.00    +0.031 C 
ATOM     24  C   UNL     1       0.914 -10.562  -0.119  0.00  0.00    +0.160 C 
ATOM     25  O   UNL     1       0.275  -9.426   0.479  0.00  0.00    -0.375 OA
ENDBRANCH  20  21
ENDBRANCH  19  20
ENDBRANCH   1  15
BRANCH   1  26
ATOM     26  N   UNL     1       1.751  -6.072   1.369  0.00  0.00    -0.277 NA
BRANCH  26  27
ATOM     27  C   UNL     1       2.082  -7.313   2.083  0.00  0.00    +0.160 C 
BRANCH  27  28
ATOM     28  C   UNL     1       1.225  -7.426   3.317  0.00  0.00    +0.119 A 
ATOM     29  C   UNL     1       0.207  -8.288   3.492  0.00  0.00    +0.046 A 
ATOM     30  C   UNL     1      -0.314  -8.051   4.785  0.00  0.00    +0.041 A 
ATOM     31  C   UNL     1       0.417  -7.059   5.323  0.00  0.00    +0.195 A 
ATOM     32  O   UNL     1       1.351  -6.688   4.432  0.00  0.00    -0.467 OA
ENDBRANCH  27  28
ENDBRANCH  26  27
BRANCH  26  33
ATOM     33  C   UNL     1       2.862  -5.648   0.507  0.00  0.00    +0.128 C 
BRANCH  33  34
ATOM     34  C   UNL     1       3.005  -4.149   0.572  0.00  0.00    +0.004 A 
ATOM     35  C   UNL     1       3.502  -3.382   1.573  0.00  0.00    +0.012 A 
ATOM     36  C   UNL     1       3.537  -2.010   1.411  0.00  0.00    +0.008 A 
ATOM     37  C   UNL     1       3.072  -1.472   0.257  0.00  0.00    +0.045 A 
ATOM     38  S   UNL     1       2.570  -2.924  -0.651  0.00  0.00    -0.100 S 
ENDBRANCH  33  34
ENDBRANCH  26  33
ENDBRANCH   1  26
TORSDOF 9
