REMARK  Name = ZINC41549479
REMARK  6 active torsions:
REMARK  status: ('A' for Active; 'I' for Inactive)
REMARK    1  A    between atoms: C_1  and  C_2
REMARK    2  A    between atoms: C_2  and  C_14
REMARK    3  A    between atoms: N_16  and  C_17
REMARK    4  A    between atoms: C_21  and  C_23
REMARK    5  A    between atoms: C_23  and  S_24
REMARK    6  A    between atoms: S_24  and  N_27
REMARK                            x       y       z     vdW  Elec       q    Type
REMARK                         _______ _______ _______ _____ _____    ______ ____
ROOT
ATOM      1  C   UNL     1       0.709  -0.490  -1.237  0.00  0.00    +0.270 C 
ATOM      2  O   UNL     1       0.069  -0.789  -2.223  0.00  0.00    -0.271 OA
ATOM      3  N   UNL     1       2.053  -0.599  -1.247  0.00  0.00    -0.282 N 
ATOM      4  H   UNL     1       2.570  -0.297  -0.484  0.00  0.00    +0.155 HD
ENDROOT
BRANCH   1   6
ATOM      5  C   UNL     1      -0.019   1.532  -0.002  0.00  0.00    +0.076 C 
ATOM      6  C   UNL     1       0.003   0.002   0.000  0.00  0.00    +0.258 C 
ATOM      7  C   UNL     1      -1.412  -0.520   0.011  0.00  0.00    +0.270 C 
ATOM      8  O   UNL     1      -2.310   0.145  -0.461  0.00  0.00    -0.271 OA
ATOM      9  N   UNL     1      -1.674  -1.731   0.546  0.00  0.00    -0.279 N 
ATOM     10  C   UNL     1      -0.647  -2.428   1.197  0.00  0.00    +0.077 A 
ATOM     11  C   UNL     1      -0.815  -3.756   1.554  0.00  0.00    +0.047 A 
ATOM     12  C   UNL     1       0.214  -4.434   2.185  0.00  0.00    +0.043 A 
ATOM     13  C   UNL     1       1.407  -3.789   2.457  0.00  0.00    +0.024 A 
ATOM     14  C   UNL     1       1.578  -2.462   2.106  0.00  0.00    +0.049 A 
ATOM     15  C   UNL     1       0.551  -1.776   1.482  0.00  0.00    +0.144 A 
ATOM     16  O   UNL     1       0.696  -0.462   1.161  0.00  0.00    -0.465 OA
ATOM     17 CL   UNL     1       0.006  -6.098   2.635  0.00  0.00    -0.083 Cl
ATOM     18  H   UNL     1      -2.563  -2.114   0.481  0.00  0.00    +0.155 HD
ENDBRANCH   1   6
BRANCH   3  19
ATOM     19  C   UNL     1       2.701  -1.148  -2.359  0.00  0.00    +0.034 A 
ATOM     20  C   UNL     1       2.207  -0.918  -3.636  0.00  0.00    +0.023 A 
ATOM     21  C   UNL     1       2.850  -1.461  -4.731  0.00  0.00    +0.002 A 
ATOM     22  C   UNL     1       3.984  -2.233  -4.557  0.00  0.00    +0.005 A 
ATOM     23  C   UNL     1       4.478  -2.464  -3.287  0.00  0.00    -0.023 A 
ATOM     24  C   UNL     1       3.844  -1.918  -2.188  0.00  0.00    +0.028 A 
BRANCH  23  25
ATOM     25  C   UNL     1       5.714  -3.306  -3.101  0.00  0.00    +0.220 C 
BRANCH  25  26
ATOM     26  S   UNL     1       7.183  -2.243  -3.151  0.00  0.00    +0.031 S 
ATOM     27  O   UNL     1       7.359  -1.712  -4.457  0.00  0.00    -0.158 OA
ATOM     28  O   UNL     1       7.210  -1.392  -2.013  0.00  0.00    -0.158 OA
BRANCH  26  29
ATOM     29  N   UNL     1       8.462  -3.273  -2.938  0.00  0.00    -0.208 NA
ATOM     30  H   UNL     1       9.322  -3.068  -3.337  0.00  0.00    +0.144 HD
ATOM     31  H   UNL     1       8.351  -4.083  -2.414  0.00  0.00    +0.144 HD
ENDBRANCH  26  29
ENDBRANCH  25  26
ENDBRANCH  23  25
ENDBRANCH   3  19
TORSDOF 5
