REMARK  Name = ZINC67280810
REMARK  11 active torsions:
REMARK  status: ('A' for Active; 'I' for Inactive)
REMARK    1  A    between atoms: C_1  and  C_2
REMARK    2  A    between atoms: C_2  and  C_3
REMARK    3  A    between atoms: C_3  and  N_4
REMARK    4  A    between atoms: C_7  and  C_10
REMARK    5  A    between atoms: C_10  and  N_11
REMARK    6  A    between atoms: N_14  and  C_15
REMARK    7  A    between atoms: C_15  and  C_17
REMARK    8  A    between atoms: C_15  and  C_18
REMARK    9  A    between atoms: C_22  and  S_24
REMARK   10  A    between atoms: S_24  and  N_27
REMARK   11  A    between atoms: N_27  and  C_28
REMARK                            x       y       z     vdW  Elec       q    Type
REMARK                         _______ _______ _______ _____ _____    ______ ____
ROOT
ATOM      1  N   UNL     1      -4.135  -5.420  -1.944  0.00  0.00    -0.299 N 
ATOM      2  C   UNL     1      -4.831  -6.571  -1.858  0.00  0.00    +0.300 C 
ATOM      3  O   UNL     1      -5.245  -6.952  -0.780  0.00  0.00    -0.253 OA
ATOM      4  N   UNL     1      -5.068  -7.300  -2.966  0.00  0.00    -0.293 N 
ATOM      5  H   UNL     1      -3.805  -5.116  -2.804  0.00  0.00    +0.150 HD
ATOM      6  H   UNL     1      -4.737  -6.997  -3.826  0.00  0.00    +0.151 HD
ENDROOT
BRANCH   4   7
ATOM      7  C   UNL     1      -5.824  -8.551  -2.873  0.00  0.00    +0.102 C 
ATOM      8  C   UNL     1      -7.323  -8.247  -2.930  0.00  0.00    +0.033 C 
BRANCH   7   9
ATOM      9  C   UNL     1      -5.450  -9.452  -4.021  0.00  0.00    -0.026 A 
ATOM     10  C   UNL     1      -5.252  -8.919  -5.282  0.00  0.00    +0.005 A 
ATOM     11  C   UNL     1      -4.909  -9.745  -6.335  0.00  0.00    +0.002 A 
ATOM     12  C   UNL     1      -4.763 -11.104  -6.129  0.00  0.00    +0.028 A 
ATOM     13  C   UNL     1      -4.959 -11.637  -4.869  0.00  0.00    +0.106 A 
ATOM     14  C   UNL     1      -5.298 -10.810  -3.814  0.00  0.00    +0.034 A 
BRANCH  13  15
ATOM     15  S   UNL     1      -4.773 -13.369  -4.605  0.00  0.00    +0.058 S 
ATOM     16  O   UNL     1      -5.544 -13.691  -3.456  0.00  0.00    -0.153 OA
ATOM     17  O   UNL     1      -4.983 -13.996  -5.863  0.00  0.00    -0.153 OA
BRANCH  15  18
ATOM     18  N   UNL     1      -3.189 -13.636  -4.202  0.00  0.00    -0.193 NA
ATOM     19  C   UNL     1      -2.648 -13.088  -2.956  0.00  0.00    +0.127 C 
ATOM     20  H   UNL     1      -2.619 -14.155  -4.792  0.00  0.00    +0.148 HD
ENDBRANCH  15  18
ENDBRANCH  13  15
ENDBRANCH   7   9
ENDBRANCH   4   7
BRANCH   1  21
ATOM     21  C   UNL     1      -3.878  -4.628  -0.739  0.00  0.00    +0.107 C 
BRANCH  21  25
ATOM     22  N   UNL     1      -1.413  -2.002   0.005  0.00  0.00    +0.380 N 
ATOM     23  C   UNL     1      -0.850  -2.485  -1.274  0.00  0.00    -0.079 C 
ATOM     24  C   UNL     1      -1.655  -3.767  -1.602  0.00  0.00    -0.016 C 
ATOM     25  C   UNL     1      -3.075  -3.380  -1.112  0.00  0.00    -0.012 C 
ATOM     26  C   UNL     1      -2.788  -2.518   0.136  0.00  0.00    -0.074 C 
ATOM     27  H   UNL     1      -0.850  -2.339   0.771  0.00  0.00    -0.082 HD
BRANCH  22  28
ATOM     28  C   UNL     1      -1.433  -0.534   0.013  0.00  0.00    -0.079 C 
BRANCH  28  30
ATOM     29  C   UNL     1      -0.019   1.526   0.010  0.00  0.00    +0.002 C 
ATOM     30  C   UNL     1       0.002  -0.004   0.002  0.00  0.00    -0.022 C 
ENDBRANCH  28  30
ENDBRANCH  22  28
ENDBRANCH  21  25
ENDBRANCH   1  21
TORSDOF 8
