REMARK  Name = ZINC53151162
REMARK  4 active torsions:
REMARK  status: ('A' for Active; 'I' for Inactive)
REMARK    1  A    between atoms: C_6  and  C_7
REMARK    2  A    between atoms: C_10  and  C_22
REMARK    3  A    between atoms: C_13  and  C_15
REMARK    4  A    between atoms: C_27  and  O_28
REMARK                            x       y       z     vdW  Elec       q    Type
REMARK                         _______ _______ _______ _____ _____    ______ ____
ROOT
ATOM      1  C   UNL     1      -1.293  -0.775   0.011  0.00  0.00    +0.204 C 
ATOM      2  N   UNL     1      -1.098  -2.056  -0.679  0.00  0.00    -0.284 NA
ATOM      3  C   UNL     1      -0.894  -1.831  -2.120  0.00  0.00    +0.095 C 
ATOM      4  C   UNL     1      -2.204  -1.303  -2.712  0.00  0.00    +0.079 C 
ATOM      5  C   UNL     1      -2.736  -0.197  -1.844  0.00  0.00    +0.047 C 
ATOM      6  N   UNL     1      -2.325   0.013  -0.651  0.00  0.00    -0.264 NA
ATOM      7  H   UNL     1      -0.325  -2.567  -0.280  0.00  0.00    +0.125 HD
ENDROOT
BRANCH   1  13
ATOM      8  C   UNL     1      -0.017   1.378   0.010  0.00  0.00    +0.008 A 
ATOM      9  C   UNL     1       1.171   2.086   0.002  0.00  0.00    +0.020 A 
ATOM     10  C   UNL     1       2.378   1.410  -0.013  0.00  0.00    +0.041 A 
ATOM     11  C   UNL     1       2.396   0.027  -0.021  0.00  0.00    +0.020 A 
ATOM     12  C   UNL     1       1.208  -0.679  -0.013  0.00  0.00    +0.008 A 
ATOM     13  C   UNL     1       0.002  -0.004   0.002  0.00  0.00    -0.009 A 
ATOM     14 CL   UNL     1       3.870   2.298  -0.023  0.00  0.00    -0.084 Cl
ENDBRANCH   1  13
BRANCH   5  15
ATOM     15  C   UNL     1      -3.782   0.687  -2.393  0.00  0.00    -0.004 A 
ATOM     16  C   UNL     1      -4.260   0.485  -3.690  0.00  0.00    +0.011 A 
ATOM     17  C   UNL     1      -5.238   1.315  -4.198  0.00  0.00    +0.020 A 
ATOM     18  C   UNL     1      -5.745   2.346  -3.425  0.00  0.00    +0.041 A 
ATOM     19  C   UNL     1      -5.275   2.551  -2.139  0.00  0.00    +0.020 A 
ATOM     20  C   UNL     1      -4.302   1.725  -1.617  0.00  0.00    +0.011 A 
ATOM     21 CL   UNL     1      -6.976   3.386  -4.072  0.00  0.00    -0.084 Cl
ENDBRANCH   5  15
BRANCH   3  22
ATOM     22  C   UNL     1      -0.520  -3.129  -2.789  0.00  0.00    +0.013 A 
ATOM     23  C   UNL     1      -0.905  -4.332  -2.228  0.00  0.00    +0.028 A 
ATOM     24  C   UNL     1      -0.562  -5.523  -2.842  0.00  0.00    +0.042 A 
ATOM     25  C   UNL     1       0.168  -5.513  -4.018  0.00  0.00    +0.023 A 
ATOM     26  C   UNL     1       0.555  -4.313  -4.581  0.00  0.00    +0.047 A 
ATOM     27  C   UNL     1       0.207  -3.117  -3.971  0.00  0.00    +0.122 A 
ATOM     28 CL   UNL     1      -1.046  -7.033  -2.135  0.00  0.00    -0.084 Cl
BRANCH  27  29
ATOM     29  O   UNL     1       0.581  -1.935  -4.527  0.00  0.00    -0.506 OA
ATOM     30  H   UNL     1       1.442  -1.613  -4.226  0.00  0.00    +0.292 HD
ENDBRANCH  27  29
ENDBRANCH   3  22
TORSDOF 4
