REMARK  Name = ZINC39464405
REMARK  4 active torsions:
REMARK  status: ('A' for Active; 'I' for Inactive)
REMARK    1  A    between atoms: C_4  and  O_31
REMARK    2  A    between atoms: C_5  and  C_7
REMARK    3  A    between atoms: P_21  and  C_24
REMARK    4  A    between atoms: C_29  and  O_30
REMARK                            x       y       z     vdW  Elec       q    Type
REMARK                         _______ _______ _______ _____ _____    ______ ____
ROOT
ATOM      1  C   UNL     1       1.244  -2.166  -0.021  0.00  0.00    +0.021 A 
ATOM      2  C   UNL     1       0.743  -2.868  -1.113  0.00  0.00    +0.017 A 
ATOM      3  C   UNL     1       0.766  -4.253  -1.124  0.00  0.00    -0.023 A 
ATOM      4  C   UNL     1       1.288  -4.939  -0.046  0.00  0.00    -0.039 A 
ATOM      5  C   UNL     1       1.790  -4.245   1.044  0.00  0.00    +0.043 A 
ATOM      6  C   UNL     1       1.777  -2.864   1.063  0.00  0.00    +0.131 A 
ATOM      7  F   UNL     1       2.271  -2.194   2.127  0.00  0.00    -0.205 F 
ATOM      8  C   UNL     1       1.329  -6.446  -0.019  0.00  0.00    +0.052 C 
ATOM      9  C   UNL     1       1.178  -6.990  -1.439  0.00  0.00    +0.108 C 
ATOM     10  N   UNL     1      -0.010  -6.383  -2.056  0.00  0.00    -0.225 NA
ATOM     11  C   UNL     1       0.212  -4.963  -2.332  0.00  0.00    +0.129 C 
ATOM     12  C   UNL     1      -1.088  -4.277  -2.762  0.00  0.00    +0.194 C 
ATOM     13  O   UNL     1      -1.549  -4.885  -3.984  0.00  0.00    -0.311 OA
ATOM     14  P   UNL     1      -1.649  -6.507  -4.048  0.00  0.00    +0.318 P 
ATOM     15  O   UNL     1      -1.586  -6.969  -5.452  0.00  0.00    -0.266 OA
ATOM     16  N   UNL     1      -0.341  -7.067  -3.204  0.00  0.00    -0.175 NA
ATOM     17  H   UNL     1       0.166  -7.838  -3.502  0.00  0.00    +0.151 HD
ENDROOT
BRANCH   1  22
ATOM     18  C   UNL     1      -0.017   1.376   0.010  0.00  0.00    +0.001 A 
ATOM     19  C   UNL     1       1.169   2.089   0.002  0.00  0.00    +0.004 A 
ATOM     20  C   UNL     1       2.382   1.426  -0.013  0.00  0.00    +0.046 A 
ATOM     21  C   UNL     1       2.415   0.041  -0.021  0.00  0.00    +0.125 A 
ATOM     22  C   UNL     1       1.219  -0.683  -0.013  0.00  0.00    +0.026 A 
ATOM     23  C   UNL     1       0.002  -0.004   0.002  0.00  0.00    +0.012 A 
BRANCH  21  24
ATOM     24  O   UNL     1       3.606  -0.613  -0.036  0.00  0.00    -0.506 OA
ATOM     25  H   UNL     1       3.960  -0.806   0.843  0.00  0.00    +0.292 HD
ENDBRANCH  21  24
ENDBRANCH   1  22
BRANCH  14  26
ATOM     26  C   UNL     1      -3.188  -7.071  -3.271  0.00  0.00    +0.094 A 
ATOM     27  C   UNL     1      -3.217  -7.356  -1.920  0.00  0.00    +0.018 A 
ATOM     28  C   UNL     1      -4.390  -7.786  -1.328  0.00  0.00    +0.001 A 
ATOM     29  C   UNL     1      -5.537  -7.932  -2.086  0.00  0.00    +0.004 A 
ATOM     30  C   UNL     1      -5.514  -7.648  -3.438  0.00  0.00    +0.046 A 
ATOM     31  C   UNL     1      -4.339  -7.211  -4.033  0.00  0.00    +0.131 A 
BRANCH  31  32
ATOM     32  O   UNL     1      -4.315  -6.925  -5.362  0.00  0.00    -0.506 OA
ATOM     33  H   UNL     1      -4.089  -7.680  -5.922  0.00  0.00    +0.292 HD
ENDBRANCH  31  32
ENDBRANCH  14  26
TORSDOF 4
