REMARK  Name = ZINC40983709
REMARK  10 active torsions:
REMARK  status: ('A' for Active; 'I' for Inactive)
REMARK    1  A    between atoms: C_1  and  C_2
REMARK    2  A    between atoms: C_2  and  O_3
REMARK    3  A    between atoms: O_3  and  C_4
REMARK    4  A    between atoms: C_9  and  C_10
REMARK    5  A    between atoms: C_12  and  C_16
REMARK    6  A    between atoms: C_13  and  C_15
REMARK    7  A    between atoms: C_16  and  N_17
REMARK    8  A    between atoms: C_20  and  C_23
REMARK    9  A    between atoms: N_28  and  C_31
REMARK   10  A    between atoms: C_31  and  C_32
REMARK                            x       y       z     vdW  Elec       q    Type
REMARK                         _______ _______ _______ _____ _____    ______ ____
ROOT
ATOM      1  N   UNL     1       2.746  -0.656  -7.672  0.00  0.00    +0.383 N 
ATOM      2  C   UNL     1       1.951   0.577  -7.631  0.00  0.00    -0.078 C 
ATOM      3  C   UNL     1       0.889   0.541  -8.732  0.00  0.00    -0.006 C 
ATOM      4  C   UNL     1       1.579   0.422 -10.095  0.00  0.00    +0.072 C 
ATOM      5  C   UNL     1       2.463  -0.828 -10.100  0.00  0.00    -0.006 C 
ATOM      6  C   UNL     1       3.467  -0.742  -8.948  0.00  0.00    -0.078 C 
ATOM      7  H   UNL     1       2.133  -1.452  -7.579  0.00  0.00    -0.081 HD
ENDROOT
BRANCH   4   8
ATOM      8  C   UNL     1       0.538   0.308 -11.178  0.00  0.00    +0.219 C 
ATOM      9  O   UNL     1      -0.497  -0.286 -10.964  0.00  0.00    -0.275 OA
ATOM     10  N   UNL     1       0.758   0.866 -12.385  0.00  0.00    -0.299 N 
ATOM     11  C   UNL     1       2.053   1.483 -12.707  0.00  0.00    +0.123 C 
ATOM     12  C   UNL     1       2.552   0.905 -14.035  0.00  0.00    +0.104 C 
ATOM     13  N   UNL     1       1.512   1.073 -15.060  0.00  0.00    -0.291 NA
ATOM     14  C   UNL     1       0.299   0.319 -14.716  0.00  0.00    +0.104 C 
ATOM     15  C   UNL     1      -0.290   0.868 -13.418  0.00  0.00    +0.123 C 
BRANCH  13  16
ATOM     16  C   UNL     1       2.014   0.688 -16.386  0.00  0.00    +0.180 C 
BRANCH  16  17
ATOM     17  C   UNL     1       1.016   1.100 -17.438  0.00  0.00    +0.230 C 
ATOM     18  O   UNL     1      -0.010   1.659 -17.115  0.00  0.00    -0.274 OA
ATOM     19  N   UNL     1       1.266   0.847 -18.738  0.00  0.00    -0.300 N 
ATOM     20  C   UNL     1       2.503   0.165 -19.145  0.00  0.00    +0.108 C 
ATOM     21  C   UNL     1       2.137  -1.047 -20.007  0.00  0.00    +0.019 C 
ATOM     22  C   UNL     1       1.258  -0.591 -21.174  0.00  0.00    +0.003 C 
ATOM     23  C   UNL     1      -0.035   0.024 -20.632  0.00  0.00    +0.019 C 
ATOM     24  C   UNL     1       0.304   1.242 -19.776  0.00  0.00    +0.108 C 
ENDBRANCH  16  17
ENDBRANCH  13  16
ENDBRANCH   4   8
BRANCH   1  25
ATOM     25  C   UNL     1       3.711  -0.652  -6.565  0.00  0.00    -0.019 C 
BRANCH  25  28
ATOM     26  C   UNL     1       1.984  -1.429  -3.484  0.00  0.00    +0.231 A 
ATOM     27  N   UNL     1       2.607  -1.792  -4.581  0.00  0.00    -0.216 NA
ATOM     28  C   UNL     1       2.971  -0.688  -5.253  0.00  0.00    +0.066 A 
ATOM     29  C   UNL     1       2.558   0.379  -4.546  0.00  0.00    +0.124 A 
ATOM     30  O   UNL     1       1.937  -0.086  -3.444  0.00  0.00    -0.440 OA
ATOM     31  C   UNL     1       2.751   1.826  -4.920  0.00  0.00    +0.088 C 
BRANCH  26  37
ATOM     32  C   UNL     1       0.773  -1.826  -1.340  0.00  0.00    +0.133 A 
ATOM     33  C   UNL     1       0.245  -2.692  -0.395  0.00  0.00    +0.046 A 
ATOM     34  C   UNL     1       0.365  -4.058  -0.564  0.00  0.00    +0.004 A 
ATOM     35  C   UNL     1       1.012  -4.572  -1.675  0.00  0.00    +0.001 A 
ATOM     36  C   UNL     1       1.542  -3.724  -2.625  0.00  0.00    +0.017 A 
ATOM     37  C   UNL     1       1.423  -2.342  -2.468  0.00  0.00    +0.078 A 
BRANCH  32  38
ATOM     38  O   UNL     1       0.656  -0.484  -1.175  0.00  0.00    -0.491 OA
BRANCH  38  40
ATOM     39  C   UNL     1      -0.053   1.499   0.012  0.00  0.00    +0.048 C 
ATOM     40  C   UNL     1      -0.019  -0.031   0.000  0.00  0.00    +0.226 C 
ENDBRANCH  38  40
ENDBRANCH  32  38
ENDBRANCH  26  37
ENDBRANCH  25  28
ENDBRANCH   1  25
TORSDOF 8
