REMARK  Name = ZINC60322557
REMARK  8 active torsions:
REMARK  status: ('A' for Active; 'I' for Inactive)
REMARK    1  A    between atoms: C_1  and  C_2
REMARK    2  A    between atoms: C_4  and  C_14
REMARK    3  A    between atoms: C_8  and  C_13
REMARK    4  A    between atoms: C_9  and  C_12
REMARK    5  A    between atoms: C_14  and  N_15
REMARK    6  A    between atoms: N_18  and  C_19
REMARK    7  A    between atoms: C_19  and  C_21
REMARK    8  A    between atoms: C_19  and  C_22
REMARK                            x       y       z     vdW  Elec       q    Type
REMARK                         _______ _______ _______ _____ _____    ______ ____
ROOT
ATOM      1  C   UNL     1       0.026  -2.791  -2.557  0.00  0.00    +0.143 C 
ENDROOT
BRANCH   1   5
ATOM      2  C   UNL     1      -0.018   1.503   0.010  0.00  0.00    +0.044 C 
ATOM      3  C   UNL     1       0.002  -0.004   0.002  0.00  0.00    -0.049 A 
ATOM      4  C   UNL     1       0.006  -0.686  -1.207  0.00  0.00    +0.010 A 
ATOM      5  C   UNL     1       0.024  -2.063  -1.237  0.00  0.00    -0.006 A 
ATOM      6  C   UNL     1       0.039  -2.780  -0.045  0.00  0.00    +0.052 A 
ATOM      7  C   UNL     1       0.036  -2.084   1.178  0.00  0.00    +0.003 A 
ATOM      8  C   UNL     1       0.023  -0.688   1.185  0.00  0.00    +0.013 A 
ATOM      9  C   UNL     1       0.055  -3.107   2.226  0.00  0.00    -0.022 A 
ATOM     10  C   UNL     1       0.067  -4.300   1.610  0.00  0.00    +0.017 A 
ATOM     11  N   UNL     1       0.058  -4.124   0.253  0.00  0.00    -0.358 N 
ATOM     12  H   UNL     1       0.065  -4.840  -0.402  0.00  0.00    +0.166 HD
ATOM     13  C   UNL     1       0.088  -5.635   2.309  0.00  0.00    +0.063 C 
ATOM     14  C   UNL     1       0.059  -2.867   3.713  0.00  0.00    +0.046 C 
ENDBRANCH   1   5
BRANCH   1  15
ATOM     15  N   UNL     1      -1.329  -3.254  -2.862  0.00  0.00    -0.295 N 
ATOM     16  C   UNL     1      -1.569  -3.935  -4.000  0.00  0.00    +0.300 C 
ATOM     17  O   UNL     1      -0.660  -4.164  -4.774  0.00  0.00    -0.253 OA
ATOM     18  N   UNL     1      -2.816  -4.362  -4.280  0.00  0.00    -0.291 N 
ATOM     19  H   UNL     1      -2.055  -3.072  -2.244  0.00  0.00    +0.151 HD
ATOM     20  H   UNL     1      -3.542  -4.179  -3.663  0.00  0.00    +0.151 HD
BRANCH  18  21
ATOM     21  C   UNL     1      -3.077  -5.101  -5.518  0.00  0.00    +0.120 C 
ATOM     22  C   UNL     1      -3.316  -4.113  -6.662  0.00  0.00    +0.034 C 
BRANCH  21  23
ATOM     23  C   UNL     1      -4.297  -5.966  -5.339  0.00  0.00    +0.061 A 
ATOM     24  C   UNL     1      -4.448  -7.104  -6.110  0.00  0.00    +0.025 A 
ATOM     25  C   UNL     1      -5.574  -7.893  -5.937  0.00  0.00    +0.003 A 
ATOM     26  C   UNL     1      -6.512  -7.507  -4.991  0.00  0.00    +0.020 A 
ATOM     27  C   UNL     1      -6.293  -6.357  -4.257  0.00  0.00    +0.111 A 
ATOM     28  N   UNL     1      -5.207  -5.633  -4.444  0.00  0.00    -0.258 NA
ENDBRANCH  21  23
ENDBRANCH  18  21
ENDBRANCH   1  15
TORSDOF 4
