REMARK  Name = ZINC57442428
REMARK  5 active torsions:
REMARK  status: ('A' for Active; 'I' for Inactive)
REMARK    1  A    between atoms: C_4  and  O_26
REMARK    2  A    between atoms: C_5  and  N_7
REMARK    3  A    between atoms: N_10  and  C_13
REMARK    4  A    between atoms: C_13  and  C_14
REMARK    5  A    between atoms: C_17  and  C_19
REMARK                            x       y       z     vdW  Elec       q    Type
REMARK                         _______ _______ _______ _____ _____    ______ ____
ROOT
ATOM      1  N   UNL     1       1.235  -2.080  -0.021  0.00  0.00    -0.325 N 
ATOM      2  C   UNL     1       1.252  -2.842   1.236  0.00  0.00    +0.120 C 
ATOM      3  C   UNL     1       2.400  -3.856   1.175  0.00  0.00    +0.104 C 
ATOM      4  N   UNL     1       2.268  -4.668  -0.041  0.00  0.00    -0.291 NA
ATOM      5  C   UNL     1       2.388  -3.842  -1.250  0.00  0.00    +0.104 C 
ATOM      6  C   UNL     1       1.234  -2.828  -1.288  0.00  0.00    +0.120 C 
ENDROOT
BRANCH   1  11
ATOM      7  C   UNL     1      -0.017   1.378   0.010  0.00  0.00    +0.002 A 
ATOM      8  C   UNL     1       1.169   2.089   0.002  0.00  0.00    +0.004 A 
ATOM      9  C   UNL     1       2.380   1.421  -0.013  0.00  0.00    +0.047 A 
ATOM     10  C   UNL     1       2.407   0.036  -0.021  0.00  0.00    +0.138 A 
ATOM     11  C   UNL     1       1.213  -0.681  -0.013  0.00  0.00    +0.072 A 
ATOM     12  C   UNL     1       0.002  -0.004   0.002  0.00  0.00    +0.027 A 
BRANCH  10  13
ATOM     13  O   UNL     1       3.598  -0.622  -0.036  0.00  0.00    -0.505 OA
ATOM     14  H   UNL     1       3.950  -0.817   0.843  0.00  0.00    +0.292 HD
ENDBRANCH  10  13
ENDBRANCH   1  11
BRANCH   4  15
ATOM     15  C   UNL     1       3.247  -5.763  -0.053  0.00  0.00    +0.180 C 
BRANCH  15  16
ATOM     16  C   UNL     1       2.926  -6.713  -1.178  0.00  0.00    +0.210 A 
ATOM     17  N   UNL     1       3.391  -6.630  -2.393  0.00  0.00    -0.220 NA
ATOM     18  C   UNL     1       2.892  -7.642  -3.119  0.00  0.00    +0.161 A 
ATOM     19  C   UNL     1       2.087  -8.371  -2.305  0.00  0.00    +0.155 A 
ATOM     20  O   UNL     1       2.121  -7.780  -1.090  0.00  0.00    -0.438 OA
BRANCH  19  21
ATOM     21  C   UNL     1       1.324  -9.582  -2.675  0.00  0.00    +0.019 A 
ATOM     22  C   UNL     1       0.529 -10.226  -1.726  0.00  0.00    +0.014 A 
ATOM     23  C   UNL     1      -0.182 -11.355  -2.077  0.00  0.00    +0.039 A 
ATOM     24  C   UNL     1      -0.106 -11.851  -3.368  0.00  0.00    +0.123 A 
ATOM     25  C   UNL     1       0.683 -11.216  -4.315  0.00  0.00    +0.039 A 
ATOM     26  C   UNL     1       1.392 -10.082  -3.976  0.00  0.00    +0.014 A 
ATOM     27  F   UNL     1      -0.803 -12.957  -3.707  0.00  0.00    -0.205 F 
ENDBRANCH  19  21
ENDBRANCH  15  16
ENDBRANCH   4  15
TORSDOF 5
