REMARK  Name = ZINC62496120
REMARK  7 active torsions:
REMARK  status: ('A' for Active; 'I' for Inactive)
REMARK    1  A    between atoms: C_1  and  C_2
REMARK    2  A    between atoms: C_4  and  C_25
REMARK    3  A    between atoms: C_6  and  C_8
REMARK    4  A    between atoms: C_8  and  C_9
REMARK    5  A    between atoms: N_13  and  C_22
REMARK    6  A    between atoms: C_17  and  N_21
REMARK    7  A    between atoms: C_22  and  C_23
REMARK                            x       y       z     vdW  Elec       q    Type
REMARK                         _______ _______ _______ _____ _____    ______ ____
ROOT
ATOM      1  C   UNL     1       1.502  -3.083   2.922  0.00  0.00    +0.263 C 
ATOM      2  C   UNL     1       1.520  -3.950   4.155  0.00  0.00    +0.261 C 
ATOM      3  O   UNL     1       1.620  -5.155   4.051  0.00  0.00    -0.271 OA
ATOM      4  N   UNL     1       1.425  -3.381   5.375  0.00  0.00    -0.261 N 
ATOM      5  C   UNL     1       1.438  -1.980   5.480  0.00  0.00    +0.079 A 
ATOM      6  C   UNL     1       1.116  -1.362   6.677  0.00  0.00    +0.029 A 
ATOM      7  C   UNL     1       1.120   0.017   6.764  0.00  0.00    +0.025 A 
ATOM      8  C   UNL     1       1.446   0.785   5.653  0.00  0.00    +0.028 A 
ATOM      9  C   UNL     1       1.774   0.168   4.453  0.00  0.00    +0.070 A 
ATOM     10  C   UNL     1       1.776  -1.214   4.367  0.00  0.00    +0.145 A 
ATOM     11  O   UNL     1       2.126  -1.829   3.206  0.00  0.00    -0.477 OA
ENDROOT
BRANCH   8  12
ATOM     12  N   UNL     1       1.442   2.180   5.743  0.00  0.00    -0.358 N 
ATOM     13  H   UNL     1       1.213   2.612   6.581  0.00  0.00    +0.142 HD
ATOM     14  H   UNL     1       1.670   2.717   4.968  0.00  0.00    +0.142 HD
ENDBRANCH   8  12
BRANCH   1  15
ATOM     15  C   UNL     1       0.054  -2.844   2.489  0.00  0.00    +0.089 C 
BRANCH  15  21
ATOM     16  C   UNL     1      -0.018   1.503   0.010  0.00  0.00    +0.044 C 
ATOM     17  C   UNL     1       0.002  -0.004   0.002  0.00  0.00    -0.050 A 
ATOM     18  C   UNL     1       0.006  -0.689  -1.199  0.00  0.00    +0.006 A 
ATOM     19  C   UNL     1       0.025  -2.071  -1.206  0.00  0.00    -0.050 A 
ATOM     20  C   UNL     1       0.040  -2.768  -0.013  0.00  0.00    +0.007 A 
ATOM     21  C   UNL     1       0.037  -2.084   1.188  0.00  0.00    -0.043 A 
ATOM     22  C   UNL     1       0.023  -0.702   1.195  0.00  0.00    +0.007 A 
ATOM     23  C   UNL     1       0.027  -2.817  -2.516  0.00  0.00    +0.044 C 
ENDBRANCH  15  21
ENDBRANCH   1  15
BRANCH   4  24
ATOM     24  C   UNL     1       1.309  -4.213   6.575  0.00  0.00    +0.140 C 
BRANCH  24  25
ATOM     25  C   UNL     1       2.685  -4.521   7.107  0.00  0.00    -0.015 C 
ATOM     26  C   UNL     1       2.986  -4.236   8.350  0.00  0.00    +0.005 C 
ENDBRANCH  24  25
ENDBRANCH   4  24
TORSDOF 5
