REMARK  Name = ZINC39494164
REMARK  11 active torsions:
REMARK  status: ('A' for Active; 'I' for Inactive)
REMARK    1  A    between atoms: C_1  and  C_2
REMARK    2  A    between atoms: C_2  and  C_3
REMARK    3  A    between atoms: C_2  and  C_4
REMARK    4  A    between atoms: C_4  and  C_5
REMARK    5  A    between atoms: C_5  and  C_7
REMARK    6  A    between atoms: C_5  and  C_25
REMARK    7  A    between atoms: C_7  and  C_9
REMARK    8  A    between atoms: C_7  and  N_15
REMARK    9  A    between atoms: C_16  and  C_18
REMARK   10  A    between atoms: C_23  and  O_24
REMARK   11  A    between atoms: C_25  and  C_27
REMARK                            x       y       z     vdW  Elec       q    Type
REMARK                         _______ _______ _______ _____ _____    ______ ____
ROOT
ATOM      1  C   UNL     1       0.512  -0.962   3.699  0.00  0.00    +0.114 C 
ENDROOT
BRANCH   1   2
ATOM      2  C   UNL     1       0.645  -2.450   3.503  0.00  0.00    -0.027 A 
ATOM      3  C   UNL     1      -0.442  -3.276   3.720  0.00  0.00    +0.005 A 
ATOM      4  C   UNL     1      -0.320  -4.641   3.540  0.00  0.00    +0.000 A 
ATOM      5  C   UNL     1       0.889  -5.180   3.144  0.00  0.00    +0.000 A 
ATOM      6  C   UNL     1       1.976  -4.354   2.926  0.00  0.00    +0.000 A 
ATOM      7  C   UNL     1       1.853  -2.989   3.102  0.00  0.00    +0.005 A 
ENDBRANCH   1   2
BRANCH   1   8
ATOM      8  N   UNL     1      -0.302  -0.697   4.888  0.00  0.00    -0.304 N 
ATOM      9  C   UNL     1       0.271  -0.675   6.107  0.00  0.00    +0.248 C 
ATOM     10  O   UNL     1       1.465  -0.876   6.221  0.00  0.00    -0.270 OA
ATOM     11  H   UNL     1      -1.255  -0.536   4.797  0.00  0.00    +0.150 HD
BRANCH   9  12
ATOM     12  C   UNL     1      -0.549  -0.408   7.304  0.00  0.00    +0.078 A 
ATOM     13  C   UNL     1      -1.922  -0.183   7.179  0.00  0.00    +0.017 A 
ATOM     14  C   UNL     1      -2.683   0.066   8.300  0.00  0.00    +0.001 A 
ATOM     15  C   UNL     1      -2.092   0.093   9.554  0.00  0.00    +0.004 A 
ATOM     16  C   UNL     1      -0.736  -0.129   9.692  0.00  0.00    +0.046 A 
ATOM     17  C   UNL     1       0.044  -0.385   8.574  0.00  0.00    +0.129 A 
BRANCH  17  18
ATOM     18  O   UNL     1       1.375  -0.608   8.708  0.00  0.00    -0.506 OA
ATOM     19  H   UNL     1       1.915   0.193   8.660  0.00  0.00    +0.292 HD
ENDBRANCH  17  18
ENDBRANCH   9  12
ENDBRANCH   1   8
BRANCH   1  20
ATOM     20  C   UNL     1      -0.161  -0.344   2.472  0.00  0.00    +0.080 C 
BRANCH  20  21
ATOM     21  C   UNL     1      -0.294   1.144   2.668  0.00  0.00    +0.135 C 
ATOM     22  O   UNL     1       0.587   1.883   2.299  0.00  0.00    -0.297 OA
ATOM     23  C   UNL     1      -1.526   1.711   3.325  0.00  0.00    +0.086 C 
ENDBRANCH  20  21
BRANCH  20  24
ATOM     24  C   UNL     1       0.690  -0.621   1.231  0.00  0.00    +0.016 C 
BRANCH  24  26
ATOM     25  C   UNL     1       0.864  -0.261  -1.236  0.00  0.00    +0.007 C 
ATOM     26  C   UNL     1      -0.046  -0.121  -0.014  0.00  0.00    -0.016 C 
ATOM     27  C   UNL     1      -1.314  -0.950  -0.224  0.00  0.00    +0.007 C 
ENDBRANCH  24  26
ENDBRANCH  20  24
ENDBRANCH   1  20
TORSDOF 8
