REMARK  Name = ZINC03245614
REMARK  11 active torsions:
REMARK  status: ('A' for Active; 'I' for Inactive)
REMARK    1  A    between atoms: C_1  and  C_2
REMARK    2  A    between atoms: C_2  and  O_3
REMARK    3  A    between atoms: O_3  and  C_4
REMARK    4  A    between atoms: C_4  and  C_6
REMARK    5  A    between atoms: C_7  and  C_23
REMARK    6  A    between atoms: C_10  and  N_11
REMARK    7  A    between atoms: C_12  and  C_14
REMARK    8  A    between atoms: C_14  and  N_52
REMARK    9  A    between atoms: C_15  and  C_16
REMARK   10  A    between atoms: C_15  and  N_52
REMARK   11  A    between atoms: C_16  and  C_17
REMARK                            x       y       z     vdW  Elec       q    Type
REMARK                         _______ _______ _______ _____ _____    ______ ____
ROOT
ATOM      1  C   UNL     1       2.819   4.770   1.120  0.00  0.00    +0.095 A 
ATOM      2  C   UNL     1       2.425   3.937   0.000  0.00  0.00    +0.006 A 
ATOM      3  C   UNL     1       3.280   3.885  -1.053  0.00  0.00    +0.056 A 
ATOM      4  S   UNL     1       4.610   4.959  -0.554  0.00  0.00    -0.080 S 
ATOM      5  C   UNL     1       4.031   5.439   1.005  0.00  0.00    +0.086 A 
ENDROOT
BRANCH   2   6
ATOM      6  C   UNL     1       1.154   3.174   0.008  0.00  0.00    +0.002 A 
ATOM      7  C   UNL     1       1.174   1.780   0.000  0.00  0.00    +0.010 A 
ATOM      8  C   UNL     1      -0.013   1.076   0.008  0.00  0.00    +0.001 A 
ATOM      9  C   UNL     1      -1.221   1.750   0.017  0.00  0.00    +0.001 A 
ATOM     10  C   UNL     1      -1.248   3.132   0.030  0.00  0.00    +0.020 A 
ATOM     11  C   UNL     1      -0.067   3.849   0.022  0.00  0.00    +0.049 A 
ATOM     12 CL   UNL     1      -0.102   5.584   0.031  0.00  0.00    -0.083 Cl
ENDBRANCH   2   6
BRANCH   5  13
ATOM     13  N   UNL     1       4.632   6.289   1.919  0.00  0.00    -0.281 N 
ATOM     14  C   UNL     1       5.822   6.854   1.633  0.00  0.00    +0.201 C 
ATOM     15  O   UNL     1       6.366   6.619   0.575  0.00  0.00    -0.278 OA
ATOM     16  H   UNL     1       4.197   6.478   2.766  0.00  0.00    +0.155 HD
BRANCH  14  17
ATOM     17  C   UNL     1       6.476   7.778   2.628  0.00  0.00    +0.015 C 
BRANCH  17  18
ATOM     18  N   UNL     1       7.757   8.256   2.074  0.00  0.00    +0.385 N 
ATOM     19  H   UNL     1       7.580   8.758   1.196  0.00  0.00    -0.085 HD
ATOM     20  H   UNL     1       8.368   7.451   1.891  0.00  0.00    -0.085 HD
BRANCH  18  21
ATOM     21  C   UNL     1       8.420   9.164   3.028  0.00  0.00    -0.077 C 
BRANCH  21  22
ATOM     22  C   UNL     1       9.744   9.643   2.428  0.00  0.00    +0.016 C 
BRANCH  22  23
ATOM     23  C   UNL     1      10.428  10.572   3.397  0.00  0.00    -0.049 A 
ATOM     24  C   UNL     1      10.184  11.931   3.340  0.00  0.00    +0.003 A 
ATOM     25  C   UNL     1      10.809  12.783   4.232  0.00  0.00    +0.000 A 
ATOM     26  C   UNL     1      11.685  12.276   5.174  0.00  0.00    +0.000 A 
ATOM     27  C   UNL     1      11.933  10.918   5.226  0.00  0.00    +0.000 A 
ATOM     28  C   UNL     1      11.305  10.065   4.338  0.00  0.00    +0.003 A 
ENDBRANCH  22  23
ENDBRANCH  21  22
ENDBRANCH  18  21
ENDBRANCH  17  18
ENDBRANCH  14  17
ENDBRANCH   5  13
BRANCH   1  29
ATOM     29  C   UNL     1       1.982   4.899   2.313  0.00  0.00    +0.342 C 
ATOM     30  O   UNL     1       2.129   4.132   3.245  0.00  0.00    -0.245 OA
BRANCH  29  31
ATOM     31  O   UNL     1       1.046   5.869   2.379  0.00  0.00    -0.461 OA
BRANCH  31  33
ATOM     32  C   UNL     1      -0.747   7.090   3.483  0.00  0.00    +0.048 C 
ATOM     33  C   UNL     1       0.252   5.937   3.592  0.00  0.00    +0.229 C 
ENDBRANCH  31  33
ENDBRANCH  29  31
ENDBRANCH   1  29
TORSDOF 10
