REMARK  Name = ZINC35833079
REMARK  2 active torsions:
REMARK  status: ('A' for Active; 'I' for Inactive)
REMARK    1  A    between atoms: N_20  and  C_23
REMARK    2  A    between atoms: C_28  and  C_29
REMARK                            x       y       z     vdW  Elec       q    Type
REMARK                         _______ _______ _______ _____ _____    ______ ____
ROOT
ATOM      1  C   UNL     1       0.667   1.646  -0.582  0.00  0.00    +0.000 A 
ATOM      2  C   UNL     1       1.883   2.275  -0.782  0.00  0.00    +0.002 A 
ATOM      3  C   UNL     1       3.045   1.535  -0.863  0.00  0.00    +0.023 A 
ATOM      4  C   UNL     1       3.002   0.148  -0.744  0.00  0.00    +0.036 A 
ATOM      5  C   UNL     1       1.773  -0.474  -0.544  0.00  0.00    -0.027 A 
ATOM      6  C   UNL     1       0.616   0.268  -0.463  0.00  0.00    +0.004 A 
ATOM      7  C   UNL     1       2.066  -1.946  -0.460  0.00  0.00    +0.053 C 
ATOM      8  C   UNL     1       1.323  -2.729  -1.548  0.00  0.00    +0.089 C 
ATOM      9  C   UNL     1       0.080  -3.321  -0.829  0.00  0.00    +0.074 C 
ATOM     10  C   UNL     1       0.180  -2.826   0.626  0.00  0.00    -0.054 C 
ATOM     11  N   UNL     1       1.633  -2.512   0.828  0.00  0.00    +0.395 N 
ATOM     12  C   UNL     1       2.290  -3.825   1.029  0.00  0.00    -0.076 C 
ATOM     13  C   UNL     1       1.288  -4.657   1.854  0.00  0.00    -0.020 C 
ATOM     14  C   UNL     1      -0.120  -3.995   1.582  0.00  0.00    -0.016 C 
ATOM     15  C   UNL     1       0.322  -4.812  -0.884  0.00  0.00    +0.228 C 
ATOM     16  O   UNL     1      -0.416  -5.659  -0.429  0.00  0.00    -0.275 OA
ATOM     17  N   UNL     1       1.478  -5.051  -1.515  0.00  0.00    -0.209 N 
ATOM     18  C   UNL     1       2.129  -3.946  -1.942  0.00  0.00    +0.229 C 
ATOM     19  O   UNL     1       3.184  -3.924  -2.539  0.00  0.00    -0.275 OA
ATOM     20  C   UNL     1       3.558  -2.057  -0.632  0.00  0.00    +0.212 C 
ATOM     21  O   UNL     1       4.213  -3.077  -0.628  0.00  0.00    -0.277 OA
ATOM     22  N   UNL     1       4.023  -0.803  -0.791  0.00  0.00    -0.286 N 
ATOM     23  H   UNL     1       4.959  -0.586  -0.923  0.00  0.00    +0.155 HD
ATOM     24  H   UNL     1       1.783  -1.876   1.598  0.00  0.00    -0.079 HD
ENDROOT
BRANCH  17  25
ATOM     25  C   UNL     1       1.974  -6.346  -1.722  0.00  0.00    +0.056 A 
ATOM     26  C   UNL     1       2.816  -6.927  -0.783  0.00  0.00    +0.024 A 
ATOM     27  C   UNL     1       3.303  -8.203  -0.991  0.00  0.00    +0.002 A 
ATOM     28  C   UNL     1       2.954  -8.901  -2.132  0.00  0.00    +0.001 A 
ATOM     29  C   UNL     1       2.116  -8.325  -3.069  0.00  0.00    +0.014 A 
ATOM     30  C   UNL     1       1.621  -7.052  -2.865  0.00  0.00    +0.077 A 
BRANCH  30  31
ATOM     31  C   UNL     1       0.703  -6.427  -3.883  0.00  0.00    +0.419 C 
ATOM     32  F   UNL     1       0.509  -7.317  -4.944  0.00  0.00    -0.166 F 
ATOM     33  F   UNL     1      -0.529  -6.138  -3.286  0.00  0.00    -0.166 F 
ATOM     34  F   UNL     1       1.276  -5.245  -4.365  0.00  0.00    -0.166 F 
ENDBRANCH  30  31
ENDBRANCH  17  25
TORSDOF 2
