REMARK  Name = ZINC12561901
REMARK  13 active torsions:
REMARK  status: ('A' for Active; 'I' for Inactive)
REMARK    1  A    between atoms: C_1  and  C_2
REMARK    2  A    between atoms: N_4  and  C_25
REMARK    3  A    between atoms: C_8  and  N_9
REMARK    4  A    between atoms: N_9  and  C_10
REMARK    5  A    between atoms: C_12  and  C_21
REMARK    6  A    between atoms: C_14  and  C_17
REMARK    7  A    between atoms: C_15  and  O_16
REMARK    8  A    between atoms: C_17  and  C_18
REMARK    9  A    between atoms: C_17  and  C_19
REMARK   10  A    between atoms: C_17  and  C_20
REMARK   11  A    between atoms: C_21  and  C_22
REMARK   12  A    between atoms: C_21  and  C_23
REMARK   13  A    between atoms: C_21  and  C_24
REMARK                            x       y       z     vdW  Elec       q    Type
REMARK                         _______ _______ _______ _____ _____    ______ ____
ROOT
ATOM      1  N   UNL     1       0.054  -1.436   3.485  0.00  0.00    -0.317 N 
ATOM      2  H   UNL     1       0.065  -2.377   3.249  0.00  0.00    +0.152 HD
ENDROOT
BRANCH   1  10
ATOM      3  C   UNL     1      -0.018   1.503   0.010  0.00  0.00    +0.068 C 
ATOM      4  C   UNL     1       0.002  -0.004   0.002  0.00  0.00    +0.070 C 
ATOM      5  N   UNL     1       0.008  -0.765  -1.049  0.00  0.00    -0.176 NA
ATOM      6  N   UNL     1       0.029  -2.115  -0.698  0.00  0.00    -0.156 N 
ATOM      7  C   UNL     1       0.036  -2.244   0.644  0.00  0.00    +0.273 C 
ATOM      8  O   UNL     1       0.055  -3.284   1.280  0.00  0.00    -0.268 OA
ATOM      9  C   UNL     1       0.025  -0.879   1.183  0.00  0.00    +0.075 C 
ATOM     10  C   UNL     1       0.032  -0.498   2.515  0.00  0.00    +0.087 C 
BRANCH   6  11
ATOM     11  C   UNL     1       0.040  -3.180  -1.607  0.00  0.00    +0.060 A 
ATOM     12  C   UNL     1       0.054  -4.489  -1.145  0.00  0.00    +0.025 A 
ATOM     13  C   UNL     1       0.064  -5.538  -2.043  0.00  0.00    +0.002 A 
ATOM     14  C   UNL     1       0.060  -5.285  -3.403  0.00  0.00    +0.000 A 
ATOM     15  C   UNL     1       0.047  -3.982  -3.867  0.00  0.00    +0.002 A 
ATOM     16  C   UNL     1       0.031  -2.930  -2.973  0.00  0.00    +0.025 A 
ENDBRANCH   6  11
ENDBRANCH   1  10
BRANCH   1  17
ATOM     17  C   UNL     1       0.062  -1.052   4.830  0.00  0.00    +0.074 A 
ATOM     18  C   UNL     1       0.041   0.294   5.169  0.00  0.00    +0.031 A 
ATOM     19  C   UNL     1       0.048   0.671   6.498  0.00  0.00    -0.040 A 
ATOM     20  C   UNL     1       0.076  -0.289   7.493  0.00  0.00    +0.012 A 
ATOM     21  C   UNL     1       0.098  -1.631   7.163  0.00  0.00    +0.002 A 
ATOM     22  C   UNL     1       0.084  -2.019   5.833  0.00  0.00    +0.142 A 
BRANCH  21  23
ATOM     23  C   UNL     1       0.129  -2.674   8.251  0.00  0.00    -0.009 C 
ATOM     24  C   UNL     1       0.131  -1.986   9.617  0.00  0.00    +0.015 C 
ATOM     25  C   UNL     1      -1.105  -3.571   8.134  0.00  0.00    +0.015 C 
ATOM     26  C   UNL     1       1.393  -3.524   8.106  0.00  0.00    +0.015 C 
ENDBRANCH  21  23
BRANCH  19  27
ATOM     27  C   UNL     1       0.025   2.133   6.865  0.00  0.00    -0.013 C 
ATOM     28  C   UNL     1      -0.004   2.978   5.590  0.00  0.00    +0.015 C 
ATOM     29  C   UNL     1      -1.221   2.429   7.702  0.00  0.00    +0.015 C 
ATOM     30  C   UNL     1       1.277   2.475   7.676  0.00  0.00    +0.015 C 
ENDBRANCH  19  27
BRANCH  22  31
ATOM     31  O   UNL     1       0.099  -3.338   5.507  0.00  0.00    -0.505 OA
ATOM     32  H   UNL     1       0.987  -3.708   5.404  0.00  0.00    +0.292 HD
ENDBRANCH  22  31
ENDBRANCH   1  17
TORSDOF 6
