REMARK  Name = ZINC13036386
REMARK  7 active torsions:
REMARK  status: ('A' for Active; 'I' for Inactive)
REMARK    1  A    between atoms: C_1  and  C_2
REMARK    2  A    between atoms: C_2  and  O_3
REMARK    3  A    between atoms: O_3  and  C_4
REMARK    4  A    between atoms: C_11  and  C_27
REMARK    5  A    between atoms: C_17  and  C_19
REMARK    6  A    between atoms: C_22  and  O_25
REMARK    7  A    between atoms: O_25  and  C_26
REMARK                            x       y       z     vdW  Elec       q    Type
REMARK                         _______ _______ _______ _____ _____    ______ ____
ROOT
ATOM      1  C   UNL     1       0.842  -9.072   2.597  0.00  0.00    +0.162 A 
ATOM      2  C   UNL     1       2.200  -9.160   2.842  0.00  0.00    +0.049 A 
ATOM      3  C   UNL     1       3.087  -8.391   2.111  0.00  0.00    +0.004 A 
ATOM      4  C   UNL     1       2.611  -7.542   1.131  0.00  0.00    +0.009 A 
ATOM      5  C   UNL     1       1.273  -7.460   0.864  0.00  0.00    +0.020 A 
ATOM      6  C   UNL     1       0.352  -8.208   1.611  0.00  0.00    +0.170 A 
ATOM      7  O   UNL     1      -0.994  -8.158   1.439  0.00  0.00    -0.458 OA
ATOM      8  C   UNL     1      -1.548  -7.517   0.284  0.00  0.00    +0.346 C 
ATOM      9  N   UNL     1      -0.686  -6.360   0.005  0.00  0.00    -0.203 N 
ATOM     10  C   UNL     1       0.767  -6.533  -0.211  0.00  0.00    +0.136 C 
ATOM     11  C   UNL     1       1.309  -5.107  -0.038  0.00  0.00    +0.086 C 
ATOM     12  C   UNL     1       0.060  -4.250  -0.022  0.00  0.00    +0.068 C 
ATOM     13  N   UNL     1      -0.986  -5.010  -0.010  0.00  0.00    -0.184 NA
ENDROOT
BRANCH  12  14
ATOM     14  C   UNL     1       0.040  -2.775  -0.014  0.00  0.00    -0.002 A 
ATOM     15  C   UNL     1      -1.178  -2.091   0.002  0.00  0.00    +0.013 A 
ATOM     16  C   UNL     1      -1.192  -0.713   0.010  0.00  0.00    +0.046 A 
ATOM     17  C   UNL     1       0.002  -0.004   0.002  0.00  0.00    +0.120 A 
ATOM     18  C   UNL     1       1.215  -0.680  -0.019  0.00  0.00    +0.046 A 
ATOM     19  C   UNL     1       1.239  -2.058  -0.021  0.00  0.00    +0.013 A 
BRANCH  17  20
ATOM     20  O   UNL     1      -0.016   1.355   0.009  0.00  0.00    -0.495 OA
ATOM     21  C   UNL     1       1.248   2.021   0.001  0.00  0.00    +0.277 C 
ENDBRANCH  17  20
ENDBRANCH  12  14
BRANCH   8  22
ATOM     22  C   UNL     1      -1.540  -8.463  -0.888  0.00  0.00    +0.165 A 
ATOM     23  C   UNL     1      -2.553  -9.268  -1.257  0.00  0.00    +0.050 A 
ATOM     24  C   UNL     1      -2.117  -9.977  -2.400  0.00  0.00    +0.041 A 
ATOM     25  C   UNL     1      -0.864  -9.564  -2.661  0.00  0.00    +0.195 A 
ATOM     26  O   UNL     1      -0.522  -8.642  -1.746  0.00  0.00    -0.462 OA
ENDBRANCH   8  22
BRANCH   1  27
ATOM     27  O   UNL     1      -0.025  -9.831   3.320  0.00  0.00    -0.489 OA
BRANCH  27  29
ATOM     28  C   UNL     1      -0.582 -11.460   5.016  0.00  0.00    +0.048 C 
ATOM     29  C   UNL     1       0.539 -10.692   4.311  0.00  0.00    +0.226 C 
ENDBRANCH  27  29
ENDBRANCH   1  27
TORSDOF 5
