REMARK  Name = ZINC39608878
REMARK  10 active torsions:
REMARK  status: ('A' for Active; 'I' for Inactive)
REMARK    1  A    between atoms: C_1  and  C_2
REMARK    2  A    between atoms: C_2  and  C_3
REMARK    3  A    between atoms: C_3  and  C_4
REMARK    4  A    between atoms: C_4  and  C_6
REMARK    5  A    between atoms: C_4  and  C_7
REMARK    6  A    between atoms: C_11  and  C_20
REMARK    7  A    between atoms: N_22  and  C_23
REMARK    8  A    between atoms: C_28  and  O_30
REMARK    9  A    between atoms: O_30  and  C_31
REMARK   10  A    between atoms: C_31  and  C_32
REMARK                            x       y       z     vdW  Elec       q    Type
REMARK                         _______ _______ _______ _____ _____    ______ ____
ROOT
ATOM      1  C   UNL     1       1.060  -2.472   2.597  0.00  0.00    +0.218 C 
ATOM      2  O   UNL     1       1.303  -1.755   3.545  0.00  0.00    -0.275 OA
ATOM      3  N   UNL     1       1.337  -3.789   2.660  0.00  0.00    -0.300 N 
ATOM      4  C   UNL     1       1.221  -4.795   1.578  0.00  0.00    +0.121 C 
ATOM      5  C   UNL     1       2.456  -5.706   1.757  0.00  0.00    +0.100 C 
ATOM      6  C   UNL     1       2.848  -5.548   3.236  0.00  0.00    -0.004 C 
ATOM      7  C   UNL     1       1.834  -4.558   3.826  0.00  0.00    +0.115 C 
ATOM      8  C   UNL     1       4.259  -4.980   3.351  0.00  0.00    -0.010 C 
ATOM      9  C   UNL     1       4.648  -4.886   4.829  0.00  0.00    -0.082 C 
ATOM     10  N   UNL     1       4.585  -6.220   5.438  0.00  0.00    +0.379 N 
ATOM     11  C   UNL     1       3.205  -6.721   5.407  0.00  0.00    -0.082 C 
ATOM     12  C   UNL     1       2.756  -6.892   3.953  0.00  0.00    -0.010 C 
ATOM     13  H   UNL     1       5.182  -6.852   4.926  0.00  0.00    -0.086 HD
ATOM     14  H   UNL     1       4.900  -6.166   6.396  0.00  0.00    -0.086 HD
ENDROOT
BRANCH   5  15
ATOM     15  C   UNL     1       3.579  -5.249   0.862  0.00  0.00    +0.218 C 
ATOM     16  O   UNL     1       3.639  -4.091   0.508  0.00  0.00    -0.275 OA
ATOM     17  N   UNL     1       4.517  -6.127   0.457  0.00  0.00    -0.310 N 
ATOM     18  H   UNL     1       4.469  -7.054   0.740  0.00  0.00    +0.149 HD
BRANCH  17  19
ATOM     19  C   UNL     1       5.609  -5.683  -0.413  0.00  0.00    +0.102 C 
ATOM     20  C   UNL     1       5.178  -5.770  -1.888  0.00  0.00    +0.025 C 
ATOM     21  C   UNL     1       6.146  -6.756  -2.573  0.00  0.00    +0.004 C 
ATOM     22  C   UNL     1       7.414  -6.724  -1.683  0.00  0.00    +0.033 C 
ATOM     23  C   UNL     1       6.826  -6.619  -0.253  0.00  0.00    +0.139 C 
BRANCH  23  24
ATOM     24  O   UNL     1       7.782  -6.046   0.641  0.00  0.00    -0.370 OA
BRANCH  24  25
ATOM     25  C   UNL     1       8.547  -7.010   1.368  0.00  0.00    +0.195 C 
BRANCH  25  26
ATOM     26  C   UNL     1       9.519  -6.300   2.275  0.00  0.00    -0.022 A 
ATOM     27  C   UNL     1      10.782  -5.976   1.817  0.00  0.00    +0.006 A 
ATOM     28  C   UNL     1      11.673  -5.324   2.649  0.00  0.00    +0.000 A 
ATOM     29  C   UNL     1      11.301  -4.996   3.939  0.00  0.00    +0.000 A 
ATOM     30  C   UNL     1      10.037  -5.318   4.396  0.00  0.00    +0.000 A 
ATOM     31  C   UNL     1       9.144  -5.966   3.563  0.00  0.00    +0.006 A 
ENDBRANCH  25  26
ENDBRANCH  24  25
ENDBRANCH  23  24
ENDBRANCH  17  19
ENDBRANCH   5  15
BRANCH   1  32
ATOM     32  C   UNL     1       0.448  -1.889   1.349  0.00  0.00    +0.072 C 
ATOM     33  C   UNL     1       0.983  -0.473   1.131  0.00  0.00    +0.017 C 
BRANCH  32  34
ATOM     34  C   UNL     1      -1.074  -1.841   1.502  0.00  0.00    +0.012 C 
BRANCH  34  36
ATOM     35  C   UNL     1      -3.225  -1.320   0.344  0.00  0.00    +0.004 C 
ATOM     36  C   UNL     1      -1.704  -1.368   0.191  0.00  0.00    -0.003 C 
ENDBRANCH  34  36
ENDBRANCH  32  34
ENDBRANCH   1  32
TORSDOF 8
