REMARK  Name = ZINC63492923
REMARK  7 active torsions:
REMARK  status: ('A' for Active; 'I' for Inactive)
REMARK    1  A    between atoms: N_9  and  C_12
REMARK    2  A    between atoms: C_12  and  C_13
REMARK    3  A    between atoms: C_13  and  C_14
REMARK    4  A    between atoms: C_14  and  C_15
REMARK    5  A    between atoms: N_17  and  C_18
REMARK    6  A    between atoms: C_18  and  C_19
REMARK    7  A    between atoms: C_19  and  C_20
REMARK                            x       y       z     vdW  Elec       q    Type
REMARK                         _______ _______ _______ _____ _____    ______ ____
ROOT
ATOM      1  C   UNL     1       3.718  -6.320  -2.896  0.00  0.00    +0.213 C 
ATOM      2  O   UNL     1       3.837  -5.439  -3.721  0.00  0.00    -0.276 OA
ATOM      3  N   UNL     1       3.938  -7.603  -3.244  0.00  0.00    -0.315 N 
ATOM      4  H   UNL     1       3.843  -8.308  -2.584  0.00  0.00    +0.149 HD
ENDROOT
BRANCH   1   5
ATOM      5  C   UNL     1       3.325  -5.980  -1.481  0.00  0.00    +0.097 C 
BRANCH   5   6
ATOM      6  C   UNL     1       3.137  -4.467  -1.354  0.00  0.00    +0.030 C 
BRANCH   6   7
ATOM      7  C   UNL     1       2.738  -4.121   0.082  0.00  0.00    +0.129 C 
BRANCH   7  16
ATOM      8  C   UNL     1      -0.017   1.377   0.010  0.00  0.00    +0.001 A 
ATOM      9  C   UNL     1       1.168   2.097   0.002  0.00  0.00    +0.002 A 
ATOM     10  C   UNL     1       2.389   1.449  -0.011  0.00  0.00    +0.025 A 
ATOM     11  C   UNL     1       2.425   0.067  -0.018  0.00  0.00    +0.055 A 
ATOM     12  C   UNL     1       1.222  -0.666  -0.013  0.00  0.00    +0.060 A 
ATOM     13  C   UNL     1       0.002  -0.004   0.002  0.00  0.00    +0.015 A 
ATOM     14  C   UNL     1       1.338  -2.138  -0.030  0.00  0.00    +0.263 C 
ATOM     15  O   UNL     1       0.372  -2.844  -0.246  0.00  0.00    -0.269 OA
ATOM     16  N   UNL     1       2.558  -2.672   0.204  0.00  0.00    -0.217 N 
ATOM     17  N   UNL     1       3.624  -1.900   0.550  0.00  0.00    -0.158 NA
ATOM     18  N   UNL     1       3.609  -0.660  -0.027  0.00  0.00    -0.264 N 
ATOM     19  H   UNL     1       3.710  -1.831   1.553  0.00  0.00    +0.168 HD
ATOM     20  H   UNL     1       4.410  -0.294  -0.434  0.00  0.00    +0.168 HD
ENDBRANCH   7  16
ENDBRANCH   6   7
ENDBRANCH   5   6
ENDBRANCH   1   5
BRANCH   3  21
ATOM     21  C   UNL     1       4.320  -7.934  -4.619  0.00  0.00    +0.108 C 
BRANCH  21  22
ATOM     22  C   UNL     1       4.508  -9.447  -4.746  0.00  0.00    +0.052 C 
BRANCH  22  23
ATOM     23  C   UNL     1       4.901  -9.787  -6.161  0.00  0.00    -0.040 C 
ATOM     24  C   UNL     1       6.155  -9.961  -6.637  0.00  0.00    +0.000 A 
ATOM     25  C   UNL     1       7.477  -9.887  -6.004  0.00  0.00    +0.030 A 
ATOM     26  C   UNL     1       8.579 -10.114  -6.757  0.00  0.00    +0.042 A 
ATOM     27  C   UNL     1       8.488 -10.418  -8.124  0.00  0.00    +0.022 A 
ATOM     28  C   UNL     1       7.308 -10.503  -8.774  0.00  0.00    +0.027 A 
ATOM     29  C   UNL     1       6.086 -10.283  -8.080  0.00  0.00    +0.043 A 
ATOM     30  N   UNL     1       4.838 -10.308  -8.481  0.00  0.00    -0.380 N 
ATOM     31  C   UNL     1       3.973 -10.010  -7.334  0.00  0.00    +0.144 C 
ATOM     32 CL   UNL     1      10.145 -10.028  -6.013  0.00  0.00    -0.084 Cl
ATOM     33  H   UNL     1       4.537 -10.495  -9.383  0.00  0.00    +0.160 HD
ENDBRANCH  22  23
ENDBRANCH  21  22
ENDBRANCH   3  21
TORSDOF 7
