REMARK  Name = ZINC66195919
REMARK  12 active torsions:
REMARK  status: ('A' for Active; 'I' for Inactive)
REMARK    1  A    between atoms: C_1  and  C_2
REMARK    2  A    between atoms: C_2  and  C_3
REMARK    3  A    between atoms: C_3  and  C_5
REMARK    4  A    between atoms: C_3  and  N_6
REMARK    5  A    between atoms: N_6  and  C_7
REMARK    6  A    between atoms: N_6  and  C_8
REMARK    7  A    between atoms: C_8  and  C_9
REMARK    8  A    between atoms: C_9  and  N_10
REMARK    9  A    between atoms: N_13  and  C_14
REMARK   10  A    between atoms: N_13  and  C_15
REMARK   11  A    between atoms: N_18  and  C_21
REMARK   12  A    between atoms: C_24  and  C_27
REMARK                            x       y       z     vdW  Elec       q    Type
REMARK                         _______ _______ _______ _____ _____    ______ ____
ROOT
ATOM      1  N   UNL     1       4.747  -1.244   3.776  0.00  0.00    -0.301 N 
ATOM      2  C   UNL     1       6.041  -1.129   4.135  0.00  0.00    +0.302 C 
ATOM      3  O   UNL     1       6.808  -0.482   3.448  0.00  0.00    -0.253 OA
ATOM      4  N   UNL     1       6.485  -1.732   5.256  0.00  0.00    -0.286 N 
ATOM      5  C   UNL     1       5.561  -2.511   6.083  0.00  0.00    +0.134 C 
ATOM      6  H   UNL     1       4.136  -1.760   4.324  0.00  0.00    +0.150 HD
ENDROOT
BRANCH   4   7
ATOM      7  C   UNL     1       7.892  -1.607   5.646  0.00  0.00    +0.074 C 
ATOM      8  C   UNL     1       7.984  -0.955   7.029  0.00  0.00    +0.004 C 
ATOM      9  C   UNL     1       9.449  -0.901   7.465  0.00  0.00    -0.077 C 
ATOM     10  N   UNL     1       9.996  -2.262   7.527  0.00  0.00    +0.382 N 
ATOM     11  C   UNL     1       9.977  -2.867   6.190  0.00  0.00    -0.077 C 
ATOM     12  C   UNL     1       8.532  -2.997   5.705  0.00  0.00    +0.004 C 
ATOM     13  H   UNL     1       9.437  -2.819   8.155  0.00  0.00    -0.081 HD
BRANCH  10  14
ATOM     14  C   UNL     1      11.379  -2.210   8.020  0.00  0.00    -0.069 C 
ATOM     15  C   UNL     1      11.950  -3.628   8.085  0.00  0.00    -0.015 C 
ATOM     16  C   UNL     1      13.390  -3.575   8.599  0.00  0.00    +0.002 C 
ATOM     17  C   UNL     1      13.410  -2.952   9.996  0.00  0.00    -0.014 C 
ATOM     18  C   UNL     1      12.839  -1.534   9.931  0.00  0.00    +0.002 C 
ATOM     19  C   UNL     1      11.399  -1.588   9.418  0.00  0.00    -0.015 C 
ATOM     20  C   UNL     1      12.561  -3.801  10.945  0.00  0.00    +0.007 C 
ENDBRANCH  10  14
ENDBRANCH   4   7
BRANCH   1  21
ATOM     21  C   UNL     1       4.265  -0.588   2.557  0.00  0.00    +0.087 C 
BRANCH  21  22
ATOM     22  C   UNL     1       2.772  -0.874   2.382  0.00  0.00    -0.060 C 
BRANCH  22  23
ATOM     23  N   UNL     1       2.288  -0.217   1.160  0.00  0.00    +0.381 N 
ATOM     24  C   UNL     1       2.405   1.240   1.308  0.00  0.00    -0.096 C 
ATOM     25  H   UNL     1       2.842  -0.521   0.373  0.00  0.00    -0.082 HD
BRANCH  23  26
ATOM     26  C   UNL     1       0.881  -0.576   0.936  0.00  0.00    -0.072 C 
ATOM     27  C   UNL     1       0.059  -0.216   2.175  0.00  0.00    -0.013 C 
BRANCH  26  29
ATOM     28  C   UNL     1       1.516  -2.424  -0.621  0.00  0.00    +0.002 C 
ATOM     29  C   UNL     1       0.774  -2.079   0.672  0.00  0.00    -0.019 C 
ENDBRANCH  26  29
ENDBRANCH  23  26
ENDBRANCH  22  23
ENDBRANCH  21  22
ENDBRANCH   1  21
TORSDOF 7
