REMARK  Name = ZINC20214414
REMARK  11 active torsions:
REMARK  status: ('A' for Active; 'I' for Inactive)
REMARK    1  A    between atoms: C_1  and  C_2
REMARK    2  A    between atoms: C_2  and  O_3
REMARK    3  A    between atoms: O_3  and  C_4
REMARK    4  A    between atoms: C_4  and  C_6
REMARK    5  A    between atoms: C_7  and  C_24
REMARK    6  A    between atoms: C_12  and  C_14
REMARK    7  A    between atoms: C_17  and  O_20
REMARK    8  A    between atoms: O_20  and  C_21
REMARK    9  A    between atoms: C_21  and  C_22
REMARK   10  A    between atoms: C_21  and  C_23
REMARK   11  A    between atoms: C_24  and  N_25
REMARK                            x       y       z     vdW  Elec       q    Type
REMARK                         _______ _______ _______ _____ _____    ______ ____
ROOT
ATOM      1  C   UNL     1      -1.364   1.796   0.328  0.00  0.00    +0.079 C 
ATOM      2  C   UNL     1      -0.779   0.589   0.483  0.00  0.00    +0.038 C 
ATOM      3  N   UNL     1       0.579   0.467   0.550  0.00  0.00    -0.271 N 
ATOM      4  C   UNL     1       1.423   1.503   0.459  0.00  0.00    +0.304 C 
ATOM      5  O   UNL     1       2.619   1.295   0.525  0.00  0.00    -0.252 OA
ATOM      6  N   UNL     1       0.989   2.769   0.297  0.00  0.00    -0.288 N 
ATOM      7  C   UNL     1      -0.462   3.008   0.218  0.00  0.00    +0.144 C 
ATOM      8  H   UNL     1       1.037  -0.524   0.686  0.00  0.00    +0.156 HD
ATOM      9  H   UNL     1       1.691   3.613   0.223  0.00  0.00    +0.151 HD
ENDROOT
BRANCH   7  10
ATOM     10  C   UNL     1      -0.835   3.966   1.320  0.00  0.00    -0.022 A 
ATOM     11  C   UNL     1      -0.256   3.840   2.570  0.00  0.00    +0.009 A 
ATOM     12  C   UNL     1      -0.593   4.720   3.580  0.00  0.00    +0.046 A 
ATOM     13  C   UNL     1      -1.520   5.725   3.343  0.00  0.00    +0.121 A 
ATOM     14  C   UNL     1      -2.103   5.846   2.090  0.00  0.00    +0.046 A 
ATOM     15  C   UNL     1      -1.759   4.967   1.081  0.00  0.00    +0.009 A 
BRANCH  13  16
ATOM     16  O   UNL     1      -1.856   6.589   4.337  0.00  0.00    -0.489 OA
BRANCH  16  17
ATOM     17  C   UNL     1      -2.724   7.669   3.990  0.00  0.00    +0.167 C 
ATOM     18  C   UNL     1      -4.177   7.254   4.232  0.00  0.00    +0.051 C 
ATOM     19  C   UNL     1      -2.392   8.888   4.854  0.00  0.00    +0.051 C 
ENDBRANCH  16  17
ENDBRANCH  13  16
ENDBRANCH   7  10
BRANCH   1  20
ATOM     20  C   UNL     1      -2.771   1.924   0.264  0.00  0.00    +0.339 C 
ATOM     21  O   UNL     1      -3.479   0.949   0.434  0.00  0.00    -0.245 OA
BRANCH  20  22
ATOM     22  O   UNL     1      -3.329   3.127   0.014  0.00  0.00    -0.462 OA
BRANCH  22  24
ATOM     23  C   UNL     1      -5.200   4.618  -0.329  0.00  0.00    +0.048 C 
ATOM     24  C   UNL     1      -4.756   3.183  -0.037  0.00  0.00    +0.229 C 
ENDBRANCH  22  24
ENDBRANCH  20  22
ENDBRANCH   1  20
BRANCH   2  25
ATOM     25  C   UNL     1      -1.640  -0.644   0.589  0.00  0.00    +0.136 C 
BRANCH  25  26
ATOM     26  N   UNL     1      -2.037  -1.081  -0.756  0.00  0.00    -0.292 NA
ATOM     27  C   UNL     1      -2.675  -2.406  -0.712  0.00  0.00    +0.090 C 
ATOM     28  C   UNL     1      -3.387  -2.647  -2.044  0.00  0.00    +0.051 C 
ATOM     29  C   UNL     1      -2.446  -2.368  -3.188  0.00  0.00    -0.042 A 
ATOM     30  C   UNL     1      -2.769  -2.856  -4.444  0.00  0.00    +0.004 A 
ATOM     31  C   UNL     1      -1.937  -2.620  -5.520  0.00  0.00    +0.000 A 
ATOM     32  C   UNL     1      -0.774  -1.893  -5.343  0.00  0.00    +0.000 A 
ATOM     33  C   UNL     1      -0.451  -1.407  -4.092  0.00  0.00    +0.005 A 
ATOM     34  C   UNL     1      -1.286  -1.645  -3.010  0.00  0.00    -0.030 A 
ATOM     35  C   UNL     1      -0.886  -1.102  -1.663  0.00  0.00    +0.120 C 
ENDBRANCH  25  26
ENDBRANCH   2  25
TORSDOF 8
