REMARK  Name = ZINC62172967
REMARK  5 active torsions:
REMARK  status: ('A' for Active; 'I' for Inactive)
REMARK    1  A    between atoms: C_1  and  C_2
REMARK    2  A    between atoms: C_2  and  C_3
REMARK    3  A    between atoms: C_9  and  O_25
REMARK    4  A    between atoms: C_11  and  N_15
REMARK    5  A    between atoms: C_19  and  C_22
REMARK                            x       y       z     vdW  Elec       q    Type
REMARK                         _______ _______ _______ _____ _____    ______ ____
ROOT
ATOM      1  C   UNL     1      -1.412  -0.526   0.013  0.00  0.00    -0.047 A 
ATOM      2  C   UNL     1      -2.051  -0.766   1.215  0.00  0.00    +0.007 A 
ATOM      3  C   UNL     1      -3.345  -1.246   1.224  0.00  0.00    +0.046 A 
ATOM      4  C   UNL     1      -4.010  -1.487   0.026  0.00  0.00    +0.126 A 
ATOM      5  C   UNL     1      -3.369  -1.242  -1.176  0.00  0.00    +0.021 A 
ATOM      6  C   UNL     1      -2.071  -0.758  -1.178  0.00  0.00    +0.013 A 
ATOM      7  C   UNL     1      -4.057  -1.480  -2.496  0.00  0.00    +0.138 C 
ATOM      8  C   UNL     1      -5.268  -2.393  -2.290  0.00  0.00    +0.003 C 
ATOM      9  C   UNL     1      -6.080  -1.857  -1.104  0.00  0.00    +0.217 C 
ATOM     10  O   UNL     1      -5.281  -1.964   0.075  0.00  0.00    -0.493 OA
ENDROOT
BRANCH   8  11
ATOM     11  N   UNL     1      -6.099  -2.395  -3.501  0.00  0.00    +0.386 N 
ATOM     12  C   UNL     1      -7.263  -3.265  -3.293  0.00  0.00    -0.078 C 
ATOM     13  C   UNL     1      -8.174  -3.207  -4.520  0.00  0.00    -0.018 C 
ATOM     14  C   UNL     1      -7.395  -3.679  -5.751  0.00  0.00    +0.011 C 
ATOM     15  C   UNL     1      -6.144  -2.811  -5.915  0.00  0.00    +0.086 C 
ATOM     16  C   UNL     1      -5.308  -2.884  -4.636  0.00  0.00    -0.063 C 
ATOM     17  H   UNL     1      -6.415  -1.455  -3.692  0.00  0.00    -0.081 HD
BRANCH  15  18
ATOM     18  C   UNL     1      -5.330  -3.316  -7.079  0.00  0.00    +0.357 C 
ATOM     19  O   UNL     1      -5.817  -3.344  -8.196  0.00  0.00    -0.246 OA
ATOM     20  O   UNL     1      -4.185  -3.695  -6.903  0.00  0.00    -0.246 OA
ENDBRANCH  15  18
ENDBRANCH   8  11
BRANCH   1  22
ATOM     21  C   UNL     1      -0.019   1.526   0.010  0.00  0.00    +0.009 C 
ATOM     22  C   UNL     1       0.002  -0.004   0.002  0.00  0.00    +0.032 C 
ENDBRANCH   1  22
BRANCH   7  23
ATOM     23  O   UNL     1      -4.492  -0.231  -3.037  0.00  0.00    -0.389 OA
ATOM     24  H   UNL     1      -3.776   0.399  -3.198  0.00  0.00    +0.210 HD
ENDBRANCH   7  23
TORSDOF 4
