REMARK  Name = ZINC37142489
REMARK  7 active torsions:
REMARK  status: ('A' for Active; 'I' for Inactive)
REMARK    1  A    between atoms: C_1  and  C_2
REMARK    2  A    between atoms: C_2  and  C_3
REMARK    3  A    between atoms: C_2  and  C_4
REMARK    4  A    between atoms: C_2  and  C_5
REMARK    5  A    between atoms: C_10  and  N_13
REMARK    6  A    between atoms: N_13  and  C_14
REMARK    7  A    between atoms: C_14  and  C_15
REMARK                            x       y       z     vdW  Elec       q    Type
REMARK                         _______ _______ _______ _____ _____    ______ ____
ROOT
ATOM      1  C   UNL     1       0.363  -0.695  -1.238  0.00  0.00    +0.221 C 
ATOM      2  O   UNL     1       0.920  -0.101  -2.138  0.00  0.00    -0.275 OA
ATOM      3  N   UNL     1       0.093  -2.009  -1.364  0.00  0.00    -0.301 N 
ATOM      4  C   UNL     1      -0.470  -2.768  -0.239  0.00  0.00    +0.106 C 
ATOM      5  C   UNL     1       0.414  -3.992   0.021  0.00  0.00    +0.003 C 
ATOM      6  C   UNL     1       0.555  -4.798  -1.273  0.00  0.00    -0.068 C 
ATOM      7  C   UNL     1       1.228  -3.934  -2.343  0.00  0.00    +0.003 C 
ATOM      8  C   UNL     1       0.348  -2.708  -2.631  0.00  0.00    +0.106 C 
ENDROOT
BRANCH   1  10
ATOM      9  C   UNL     1       0.221   1.537  -0.166  0.00  0.00    +0.020 C 
ATOM     10  C   UNL     1      -0.025   0.038   0.020  0.00  0.00    +0.039 C 
ATOM     11  C   UNL     1       0.816  -0.476   1.190  0.00  0.00    +0.020 C 
ATOM     12  C   UNL     1      -1.507  -0.203   0.313  0.00  0.00    +0.020 C 
ENDBRANCH   1  10
BRANCH   6  13
ATOM     13  N   UNL     1       1.375  -5.990  -1.020  0.00  0.00    +0.384 N 
ATOM     14  H   UNL     1       2.313  -5.708  -0.777  0.00  0.00    -0.085 HD
ATOM     15  H   UNL     1       0.974  -6.518  -0.259  0.00  0.00    -0.085 HD
BRANCH  13  16
ATOM     16  C   UNL     1       1.412  -6.825  -2.228  0.00  0.00    -0.045 C 
BRANCH  16  17
ATOM     17  C   UNL     1       2.252  -8.048  -1.969  0.00  0.00    -0.050 A 
ATOM     18  C   UNL     1       3.562  -8.093  -2.409  0.00  0.00    +0.003 A 
ATOM     19  C   UNL     1       4.333  -9.215  -2.171  0.00  0.00    +0.000 A 
ATOM     20  C   UNL     1       3.796 -10.293  -1.491  0.00  0.00    +0.001 A 
ATOM     21  C   UNL     1       2.487 -10.248  -1.051  0.00  0.00    +0.015 A 
ATOM     22  C   UNL     1       1.716  -9.124  -1.285  0.00  0.00    +0.019 A 
ATOM     23 BR   UNL     1      -0.073  -9.060  -0.675  0.00  0.00    -0.050 Br
ENDBRANCH  16  17
ENDBRANCH  13  16
ENDBRANCH   6  13
TORSDOF 4
