REMARK  Name = ZINC27930732
REMARK  13 active torsions:
REMARK  status: ('A' for Active; 'I' for Inactive)
REMARK    1  A    between atoms: C_1  and  C_2
REMARK    2  A    between atoms: C_2  and  C_3
REMARK    3  A    between atoms: C_3  and  C_4
REMARK    4  A    between atoms: C_5  and  C_33
REMARK    5  A    between atoms: C_6  and  C_14
REMARK    6  A    between atoms: C_14  and  O_16
REMARK    7  A    between atoms: O_16  and  C_17
REMARK    8  A    between atoms: C_17  and  C_19
REMARK    9  A    between atoms: C_17  and  C_20
REMARK   10  A    between atoms: N_22  and  C_23
REMARK   11  A    between atoms: C_27  and  S_29
REMARK   12  A    between atoms: S_29  and  N_32
REMARK   13  A    between atoms: C_33  and  C_34
REMARK                            x       y       z     vdW  Elec       q    Type
REMARK                         _______ _______ _______ _____ _____    ______ ____
ROOT
ATOM      1  O   UNL     1       3.752  -5.066  -0.600  0.00  0.00    -0.449 OA
ENDROOT
BRANCH   1   2
ATOM      2  C   UNL     1       2.611  -4.746   0.039  0.00  0.00    +0.341 C 
ATOM      3  O   UNL     1       2.457  -5.059   1.202  0.00  0.00    -0.245 OA
BRANCH   2   6
ATOM      4  C   UNL     1       0.489  -1.965  -1.366  0.00  0.00    +0.046 A 
ATOM      5  C   UNL     1       1.508  -2.623  -0.681  0.00  0.00    -0.012 A 
ATOM      6  C   UNL     1       1.545  -4.012  -0.676  0.00  0.00    +0.073 A 
ATOM      7  C   UNL     1       0.525  -4.703  -1.380  0.00  0.00    +0.015 A 
ATOM      8  C   UNL     1       0.489  -6.102  -1.424  0.00  0.00    +0.011 A 
ATOM      9  C   UNL     1      -0.507  -6.729  -2.110  0.00  0.00    +0.001 A 
ATOM     10  C   UNL     1      -1.491  -5.996  -2.770  0.00  0.00    +0.002 A 
ATOM     11  C   UNL     1      -1.486  -4.635  -2.748  0.00  0.00    +0.028 A 
ATOM     12  C   UNL     1      -0.473  -3.953  -2.049  0.00  0.00    +0.072 A 
ATOM     13  N   UNL     1      -0.448  -2.618  -2.006  0.00  0.00    -0.251 NA
BRANCH   5  14
ATOM     14  C   UNL     1       2.565  -1.834   0.049  0.00  0.00    +0.034 C 
ATOM     15  C   UNL     1       2.166  -1.685   1.518  0.00  0.00    +0.009 C 
ENDBRANCH   5  14
BRANCH   4  16
ATOM     16  C   UNL     1       0.461  -0.458  -1.364  0.00  0.00    +0.055 C 
BRANCH  16  18
ATOM     17  C   UNL     1       1.016   1.589  -2.684  0.00  0.00    +0.004 C 
ATOM     18  C   UNL     1       1.154   0.066  -2.623  0.00  0.00    +0.003 C 
ENDBRANCH  16  18
ENDBRANCH   4  16
ENDBRANCH   2   6
ENDBRANCH   1   2
BRANCH   1  19
ATOM     19  C   UNL     1       4.739  -5.775   0.152  0.00  0.00    +0.259 C 
ATOM     20  C   UNL     1       4.508  -7.281   0.005  0.00  0.00    +0.062 C 
BRANCH  19  21
ATOM     21  C   UNL     1       6.111  -5.426  -0.365  0.00  0.00    +0.258 C 
ATOM     22  O   UNL     1       6.232  -4.646  -1.286  0.00  0.00    -0.271 OA
ATOM     23  N   UNL     1       7.204  -5.979   0.197  0.00  0.00    -0.282 N 
ATOM     24  H   UNL     1       7.112  -6.551   0.975  0.00  0.00    +0.155 HD
BRANCH  23  25
ATOM     25  C   UNL     1       8.471  -5.729  -0.342  0.00  0.00    +0.035 A 
ATOM     26  C   UNL     1       9.439  -6.724  -0.336  0.00  0.00    +0.023 A 
ATOM     27  C   UNL     1      10.688  -6.474  -0.868  0.00  0.00    +0.004 A 
ATOM     28  C   UNL     1      10.976  -5.233  -1.407  0.00  0.00    +0.028 A 
ATOM     29  C   UNL     1      10.015  -4.239  -1.413  0.00  0.00    +0.107 A 
ATOM     30  C   UNL     1       8.761  -4.486  -0.888  0.00  0.00    +0.051 A 
BRANCH  29  31
ATOM     31  S   UNL     1      10.386  -2.660  -2.100  0.00  0.00    +0.056 S 
ATOM     32  O   UNL     1       9.496  -1.733  -1.493  0.00  0.00    -0.153 OA
ATOM     33  O   UNL     1      11.798  -2.512  -2.038  0.00  0.00    -0.153 OA
BRANCH  31  34
ATOM     34  N   UNL     1       9.987  -2.717  -3.706  0.00  0.00    -0.204 NA
ATOM     35  H   UNL     1       9.696  -1.912  -4.163  0.00  0.00    +0.144 HD
ATOM     36  H   UNL     1      10.043  -3.556  -4.190  0.00  0.00    +0.144 HD
ENDBRANCH  31  34
ENDBRANCH  29  31
ENDBRANCH  23  25
ENDBRANCH  19  21
ENDBRANCH   1  19
TORSDOF 10
