REMARK  Name = ZINC04782817
REMARK  5 active torsions:
REMARK  status: ('A' for Active; 'I' for Inactive)
REMARK    1  A    between atoms: C_1  and  C_2
REMARK    2  A    between atoms: C_2  and  C_31
REMARK    3  A    between atoms: C_6  and  C_20
REMARK    4  A    between atoms: C_25  and  O_26
REMARK    5  A    between atoms: O_26  and  C_27
REMARK                            x       y       z     vdW  Elec       q    Type
REMARK                         _______ _______ _______ _____ _____    ______ ____
ROOT
ATOM      1  C   UNL     1       0.162   4.592  -4.243  0.00  0.00    +0.011 C 
ATOM      2  C   UNL     1       0.481   6.086  -4.160  0.00  0.00    -0.023 C 
ATOM      3  C   UNL     1      -0.691   6.826  -3.510  0.00  0.00    +0.058 C 
ATOM      4  C   UNL     1      -0.892   6.319  -2.105  0.00  0.00    +0.020 C 
ATOM      5  C   UNL     1       0.144   5.854  -1.373  0.00  0.00    +0.039 C 
ATOM      6  C   UNL     1      -0.082   5.350   0.030  0.00  0.00    +0.151 C 
ATOM      7  C   UNL     1      -2.309   6.254  -0.199  0.00  0.00    +0.166 C 
ATOM      8  N   UNL     1      -2.151   6.338  -1.564  0.00  0.00    -0.292 N 
ATOM      9  N   UNL     1      -3.498   6.657   0.372  0.00  0.00    -0.243 N 
ATOM     10  C   UNL     1      -3.670   6.578   1.739  0.00  0.00    +0.295 A 
ATOM     11  N   UNL     1      -4.753   6.932   2.380  0.00  0.00    -0.195 NA
ATOM     12  C   UNL     1      -4.563   6.716   3.711  0.00  0.00    +0.111 A 
ATOM     13  C   UNL     1      -5.359   6.907   4.841  0.00  0.00    +0.031 A 
ATOM     14  C   UNL     1      -4.867   6.583   6.086  0.00  0.00    +0.002 A 
ATOM     15  C   UNL     1      -3.586   6.068   6.222  0.00  0.00    +0.004 A 
ATOM     16  C   UNL     1      -2.789   5.875   5.112  0.00  0.00    +0.048 A 
ATOM     17  C   UNL     1      -3.268   6.196   3.853  0.00  0.00    +0.157 A 
ATOM     18  O   UNL     1      -2.749   6.120   2.606  0.00  0.00    -0.424 OA
ATOM     19  C   UNL     1       1.446   5.826  -1.898  0.00  0.00    +0.163 C 
ATOM     20  O   UNL     1       2.359   5.413  -1.210  0.00  0.00    -0.292 OA
ATOM     21  C   UNL     1       1.730   6.299  -3.298  0.00  0.00    +0.086 C 
ATOM     22  C   UNL     1       0.722   6.640  -5.566  0.00  0.00    +0.011 C 
ATOM     23  H   UNL     1      -2.927   6.409  -2.141  0.00  0.00    +0.154 HD
ATOM     24  H   UNL     1      -4.214   6.996  -0.188  0.00  0.00    +0.159 HD
ATOM     25  N   UNL     1      -1.377   5.801   0.646  0.00  0.00    -0.350 N 
ATOM     26  H   UNL     1      -1.537   5.762   1.659  0.00  0.00    +0.163 HD
ENDROOT
BRANCH   6  27
ATOM     27  C   UNL     1      -0.057   3.844   0.022  0.00  0.00    +0.021 A 
ATOM     28  C   UNL     1       1.031   3.167   0.540  0.00  0.00    +0.009 A 
ATOM     29  C   UNL     1       1.052   1.785   0.539  0.00  0.00    +0.001 A 
ATOM     30  C   UNL     1      -0.011   1.076   0.010  0.00  0.00    +0.004 A 
ATOM     31  C   UNL     1      -1.101   1.747  -0.508  0.00  0.00    +0.046 A 
ATOM     32  C   UNL     1      -1.127   3.134  -0.503  0.00  0.00    +0.126 A 
BRANCH  32  33
ATOM     33  O   UNL     1      -2.198   3.797  -1.014  0.00  0.00    -0.495 OA
ATOM     34  C   UNL     1      -3.263   3.002  -1.539  0.00  0.00    +0.277 C 
ENDBRANCH  32  33
ENDBRANCH   6  27
TORSDOF 2
