REMARK  Name = ZINC11958694
REMARK  7 active torsions:
REMARK  status: ('A' for Active; 'I' for Inactive)
REMARK    1  A    between atoms: C_5  and  O_7
REMARK    2  A    between atoms: O_7  and  C_8
REMARK    3  A    between atoms: C_8  and  C_9
REMARK    4  A    between atoms: C_9  and  O_10
REMARK    5  A    between atoms: O_10  and  C_11
REMARK    6  A    between atoms: C_14  and  C_18
REMARK    7  A    between atoms: N_19  and  O_20
REMARK                            x       y       z     vdW  Elec       q    Type
REMARK                         _______ _______ _______ _____ _____    ______ ____
ROOT
ATOM      1  O   UNL     1      -2.383   3.828   0.456  0.00  0.00    -0.487 OA
ENDROOT
BRANCH   1   2
ATOM      2  C   UNL     1      -1.205   3.161   0.342  0.00  0.00    +0.135 A 
ATOM      3  C   UNL     1      -1.151   1.799   0.612  0.00  0.00    +0.047 A 
ATOM      4  C   UNL     1       0.042   1.120   0.503  0.00  0.00    +0.013 A 
ATOM      5  C   UNL     1       1.198   1.799   0.108  0.00  0.00    -0.003 A 
ATOM      6  C   UNL     1       1.138   3.167  -0.168  0.00  0.00    +0.028 A 
ATOM      7  C   UNL     1      -0.059   3.841  -0.051  0.00  0.00    +0.060 A 
ATOM      8 BR   UNL     1      -0.141   5.693  -0.426  0.00  0.00    -0.046 Br
BRANCH   5   9
ATOM      9  C   UNL     1       2.476   1.074  -0.015  0.00  0.00    +0.160 C 
ATOM     10  N   UNL     1       2.500  -0.216   0.075  0.00  0.00    -0.095 NA
BRANCH  10  11
ATOM     11  O   UNL     1       1.287  -0.948   0.083  0.00  0.00    -0.409 OA
ATOM     12  H   UNL     1       1.307  -2.045   0.161  0.00  0.00    +0.328 HD
ENDBRANCH  10  11
ENDBRANCH   5   9
ENDBRANCH   1   2
BRANCH   1  13
ATOM     13  C   UNL     1      -3.522   3.068   0.864  0.00  0.00    +0.270 C 
BRANCH  13  14
ATOM     14  C   UNL     1      -4.747   3.982   0.936  0.00  0.00    +0.270 C 
BRANCH  14  15
ATOM     15  O   UNL     1      -5.061   4.461  -0.374  0.00  0.00    -0.487 OA
BRANCH  15  20
ATOM     16  C   UNL     1      -7.949   6.485   0.522  0.00  0.00    +0.004 A 
ATOM     17  C   UNL     1      -8.308   6.985  -0.716  0.00  0.00    +0.002 A 
ATOM     18  C   UNL     1      -7.581   6.640  -1.841  0.00  0.00    +0.023 A 
ATOM     19  C   UNL     1      -6.492   5.795  -1.729  0.00  0.00    +0.083 A 
ATOM     20  C   UNL     1      -6.130   5.292  -0.486  0.00  0.00    +0.139 A 
ATOM     21  C   UNL     1      -6.865   5.635   0.639  0.00  0.00    +0.047 A 
ATOM     22 CL   UNL     1      -5.580   5.362  -3.141  0.00  0.00    -0.080 Cl
ENDBRANCH  15  20
ENDBRANCH  14  15
ENDBRANCH  13  14
ENDBRANCH   1  13
TORSDOF 7
