REMARK  Name = ZINC60770528
REMARK  7 active torsions:
REMARK  status: ('A' for Active; 'I' for Inactive)
REMARK    1  A    between atoms: C_1  and  C_2
REMARK    2  A    between atoms: C_7  and  O_8
REMARK    3  A    between atoms: O_8  and  C_9
REMARK    4  A    between atoms: C_9  and  C_10
REMARK    5  A    between atoms: N_12  and  C_13
REMARK    6  A    between atoms: C_16  and  C_19
REMARK    7  A    between atoms: C_25  and  C_27
REMARK                            x       y       z     vdW  Elec       q    Type
REMARK                         _______ _______ _______ _____ _____    ______ ____
ROOT
ATOM      1  C   UNL     1       0.157   0.365   7.159  0.00  0.00    +0.034 A 
ATOM      2  C   UNL     1       0.125   1.750   7.042  0.00  0.00    +0.024 A 
ATOM      3  C   UNL     1       0.214   2.540   8.167  0.00  0.00    +0.012 A 
ATOM      4  C   UNL     1       0.336   1.948   9.425  0.00  0.00    +0.001 A 
ATOM      5  C   UNL     1       0.367   0.557   9.540  0.00  0.00    +0.012 A 
ATOM      6  C   UNL     1       0.272  -0.228   8.412  0.00  0.00    +0.024 A 
ENDROOT
BRANCH   4   7
ATOM      7  C   UNL     1       0.432   2.794  10.636  0.00  0.00    +0.078 A 
ATOM      8  C   UNL     1       0.558   2.211  11.886  0.00  0.00    +0.098 A 
ATOM      9  C   UNL     1       0.647   3.052  13.010  0.00  0.00    +0.252 A 
ATOM     10  O   UNL     1       0.760   2.583  14.130  0.00  0.00    -0.268 OA
ATOM     11  N   UNL     1       0.605   4.388  12.824  0.00  0.00    -0.311 N 
ATOM     12  H   UNL     1       0.665   4.983  13.588  0.00  0.00    +0.170 HD
ATOM     13  C   UNL     1       0.481   4.899  11.583  0.00  0.00    +0.107 A 
ATOM     14  N   UNL     1       0.402   4.134  10.530  0.00  0.00    -0.234 NA
ATOM     15  C   UNL     1       0.437   6.396  11.407  0.00  0.00    +0.086 C 
ENDBRANCH   4   7
BRANCH   1  18
ATOM     16  C   UNL     1       0.635  -0.028   4.864  0.00  0.00    +0.255 C 
ATOM     17  O   UNL     1       1.153   1.067   4.796  0.00  0.00    -0.272 OA
ATOM     18  N   UNL     1       0.066  -0.433   6.017  0.00  0.00    -0.283 N 
ATOM     19  H   UNL     1      -0.406  -1.280   6.053  0.00  0.00    +0.155 HD
BRANCH  16  20
ATOM     20  C   UNL     1       0.628  -0.934   3.660  0.00  0.00    +0.324 C 
BRANCH  20  21
ATOM     21  O   UNL     1       1.286  -0.285   2.571  0.00  0.00    -0.483 OA
BRANCH  21  28
ATOM     22  C   UNL     1       2.583   0.982   0.405  0.00  0.00    +0.047 C 
ATOM     23  C   UNL     1       1.992  -0.401   0.302  0.00  0.00    -0.009 A 
ATOM     24  C   UNL     1       2.078  -1.103  -0.884  0.00  0.00    +0.007 A 
ATOM     25  C   UNL     1       1.536  -2.371  -0.979  0.00  0.00    +0.000 A 
ATOM     26  C   UNL     1       0.907  -2.940   0.113  0.00  0.00    +0.004 A 
ATOM     27  C   UNL     1       0.819  -2.242   1.302  0.00  0.00    +0.046 A 
ATOM     28  C   UNL     1       1.367  -0.971   1.401  0.00  0.00    +0.124 A 
ENDBRANCH  21  28
ENDBRANCH  20  21
ENDBRANCH  16  20
ENDBRANCH   1  18
TORSDOF 5
