REMARK  Name = ZINC20987325
REMARK  4 active torsions:
REMARK  status: ('A' for Active; 'I' for Inactive)
REMARK    1  A    between atoms: C_3  and  C_20
REMARK    2  A    between atoms: C_5  and  C_7
REMARK    3  A    between atoms: N_13  and  C_14
REMARK    4  A    between atoms: N_26  and  C_27
REMARK                            x       y       z     vdW  Elec       q    Type
REMARK                         _______ _______ _______ _____ _____    ______ ____
ROOT
ATOM      1  C   UNL     1      -4.899  -3.420   5.537  0.00  0.00    +0.001 A 
ATOM      2  C   UNL     1      -4.633  -3.100   4.221  0.00  0.00    +0.008 A 
ATOM      3  C   UNL     1      -5.422  -3.633   3.194  0.00  0.00    -0.023 A 
ATOM      4  C   UNL     1      -6.483  -4.485   3.504  0.00  0.00    +0.016 A 
ATOM      5  C   UNL     1      -6.741  -4.808   4.837  0.00  0.00    -0.023 A 
ATOM      6  C   UNL     1      -5.943  -4.267   5.853  0.00  0.00    +0.008 A 
ENDROOT
BRANCH   5   7
ATOM      7  C   UNL     1      -7.853  -5.710   5.175  0.00  0.00    +0.028 C 
ATOM      8  C   UNL     1      -7.903  -6.295   6.397  0.00  0.00    +0.078 C 
ATOM      9  C   UNL     1      -8.981  -7.102   7.006  0.00  0.00    +0.256 C 
ATOM     10  O   UNL     1     -10.016  -7.334   6.410  0.00  0.00    -0.269 OA
ATOM     11  N   UNL     1      -8.769  -7.560   8.228  0.00  0.00    -0.260 N 
ATOM     12  C   UNL     1      -7.588  -7.284   8.886  0.00  0.00    +0.161 C 
ATOM     13  N   UNL     1      -7.221  -7.654  10.082  0.00  0.00    -0.260 NA
ATOM     14  S   UNL     1      -6.681  -6.305   7.700  0.00  0.00    -0.049 S 
ATOM     15  H   UNL     1      -9.538  -8.166   8.729  0.00  0.00    +0.157 HD
BRANCH  13  16
ATOM     16  C   UNL     1      -5.912  -7.252  10.603  0.00  0.00    +0.108 C 
ATOM     17  C   UNL     1      -5.087  -8.501  10.980  0.00  0.00    +0.027 C 
ATOM     18  C   UNL     1      -4.322  -8.078  12.259  0.00  0.00    +0.002 C 
ATOM     19  C   UNL     1      -5.363  -7.214  13.012  0.00  0.00    +0.002 C 
ATOM     20  C   UNL     1      -6.087  -6.434  11.895  0.00  0.00    +0.027 C 
ENDBRANCH  13  16
ENDBRANCH   5   7
BRANCH   3  21
ATOM     21  C   UNL     1      -5.137  -3.290   1.792  0.00  0.00    +0.028 C 
ATOM     22  C   UNL     1      -5.647  -4.048   0.792  0.00  0.00    +0.078 C 
ATOM     23  C   UNL     1      -5.623  -3.815  -0.667  0.00  0.00    +0.256 C 
ATOM     24  O   UNL     1      -5.095  -2.828  -1.145  0.00  0.00    -0.269 OA
ATOM     25  N   UNL     1      -6.203  -4.727  -1.429  0.00  0.00    -0.260 N 
ATOM     26  C   UNL     1      -6.797  -5.838  -0.866  0.00  0.00    +0.161 C 
ATOM     27  N   UNL     1      -7.407  -6.823  -1.466  0.00  0.00    -0.260 NA
ATOM     28  S   UNL     1      -6.536  -5.596   0.883  0.00  0.00    -0.049 S 
ATOM     29  H   UNL     1      -6.215  -4.603  -2.522  0.00  0.00    +0.157 HD
BRANCH  27  30
ATOM     30  C   UNL     1      -7.522  -6.832  -2.926  0.00  0.00    +0.108 C 
ATOM     31  C   UNL     1      -6.836  -8.084  -3.501  0.00  0.00    +0.027 C 
ATOM     32  C   UNL     1      -7.928  -8.883  -4.243  0.00  0.00    +0.002 C 
ATOM     33  C   UNL     1      -9.250  -8.424  -3.580  0.00  0.00    +0.002 C 
ATOM     34  C   UNL     1      -9.006  -6.914  -3.339  0.00  0.00    +0.027 C 
ENDBRANCH  27  30
ENDBRANCH   3  21
TORSDOF 4
