REMARK  Name = ZINC07628069
REMARK  8 active torsions:
REMARK  status: ('A' for Active; 'I' for Inactive)
REMARK    1  A    between atoms: C_4  and  C_25
REMARK    2  A    between atoms: C_5  and  C_7
REMARK    3  A    between atoms: C_7  and  O_8
REMARK    4  A    between atoms: O_8  and  C_9
REMARK    5  A    between atoms: C_9  and  C_11
REMARK    6  A    between atoms: C_16  and  S_17
REMARK    7  A    between atoms: S_17  and  C_18
REMARK    8  A    between atoms: C_18  and  C_19
REMARK                            x       y       z     vdW  Elec       q    Type
REMARK                         _______ _______ _______ _____ _____    ______ ____
ROOT
ATOM      1  C   UNL     1       5.993   2.635  -0.040  0.00  0.00    +0.072 A 
ATOM      2  C   UNL     1       5.829   1.246  -0.045  0.00  0.00    +0.016 A 
ATOM      3  C   UNL     1       6.933   0.424  -0.059  0.00  0.00    +0.001 A 
ATOM      4  C   UNL     1       8.210   0.964  -0.068  0.00  0.00    +0.001 A 
ATOM      5  C   UNL     1       8.390   2.332  -0.063  0.00  0.00    +0.015 A 
ATOM      6  C   UNL     1       7.288   3.179  -0.055  0.00  0.00    +0.022 A 
ENDROOT
BRANCH   1   7
ATOM      7  C   UNL     1       4.817   3.521  -0.025  0.00  0.00    +0.341 C 
ATOM      8  O   UNL     1       4.965   4.727  -0.020  0.00  0.00    -0.245 OA
BRANCH   7   9
ATOM      9  O   UNL     1       3.577   2.993  -0.016  0.00  0.00    -0.456 OA
BRANCH   9  10
ATOM     10  C   UNL     1       2.464   3.926  -0.001  0.00  0.00    +0.269 C 
BRANCH  10  15
ATOM     11  C   UNL     1      -0.013   1.076   0.008  0.00  0.00    +0.000 A 
ATOM     12  C   UNL     1      -1.222   1.748   0.017  0.00  0.00    +0.001 A 
ATOM     13  C   UNL     1      -1.248   3.127   0.030  0.00  0.00    +0.019 A 
ATOM     14  C   UNL     1      -0.050   3.845   0.022  0.00  0.00    +0.058 A 
ATOM     15  C   UNL     1       1.166   3.160   0.007  0.00  0.00    +0.007 A 
ATOM     16  C   UNL     1       1.178   1.781   0.000  0.00  0.00    +0.008 A 
BRANCH  14  17
ATOM     17  C   UNL     1      -0.070   5.277   0.029  0.00  0.00    +0.100 C 
ATOM     18  N   UNL     1      -0.085   6.413   0.035  0.00  0.00    -0.191 NA
ENDBRANCH  14  17
ENDBRANCH  10  15
ENDBRANCH   9  10
ENDBRANCH   7   9
ENDBRANCH   1   7
BRANCH   6  19
ATOM     19  S   UNL     1       7.515   4.927  -0.057  0.00  0.00    -0.122 S 
BRANCH  19  20
ATOM     20  C   UNL     1       9.323   5.009  -0.078  0.00  0.00    +0.106 C 
BRANCH  20  21
ATOM     21  C   UNL     1       9.766   6.474  -0.083  0.00  0.00    +0.128 C 
ATOM     22  C   UNL     1      11.305   6.555  -0.109  0.00  0.00    +0.034 C 
ATOM     23  C   UNL     1      11.621   7.360  -1.393  0.00  0.00    +0.031 C 
ATOM     24  C   UNL     1      10.282   8.097  -1.651  0.00  0.00    +0.160 C 
ATOM     25  O   UNL     1       9.281   7.128  -1.267  0.00  0.00    -0.376 OA
ENDBRANCH  20  21
ENDBRANCH  19  20
ENDBRANCH   6  19
TORSDOF 8
