REMARK  Name = ZINC34380315
REMARK  9 active torsions:
REMARK  status: ('A' for Active; 'I' for Inactive)
REMARK    1  A    between atoms: C_1  and  C_2
REMARK    2  A    between atoms: C_2  and  O_3
REMARK    3  A    between atoms: O_3  and  C_4
REMARK    4  A    between atoms: C_9  and  C_10
REMARK    5  A    between atoms: N_11  and  N_12
REMARK    6  A    between atoms: C_13  and  C_15
REMARK    7  A    between atoms: C_15  and  N_16
REMARK    8  A    between atoms: N_19  and  S_22
REMARK    9  A    between atoms: S_22  and  C_25
REMARK                            x       y       z     vdW  Elec       q    Type
REMARK                         _______ _______ _______ _____ _____    ______ ____
ROOT
ATOM      1  N   UNL     1      -0.998   3.657   0.185  0.00  0.00    +0.387 N 
ATOM      2  C   UNL     1      -1.937   4.387  -0.677  0.00  0.00    -0.061 C 
ATOM      3  C   UNL     1      -2.051   5.837  -0.194  0.00  0.00    +0.091 C 
ATOM      4  N   UNL     1      -0.700   6.417  -0.139  0.00  0.00    -0.180 NA
ATOM      5  C   UNL     1       0.348   5.667   0.569  0.00  0.00    +0.091 C 
ATOM      6  C   UNL     1       0.349   4.226   0.051  0.00  0.00    -0.061 C 
ATOM      7  H   UNL     1      -1.299   3.732   1.145  0.00  0.00    -0.081 HD
ENDROOT
BRANCH   4   8
ATOM      8  S   UNL     1      -0.370   7.874  -0.855  0.00  0.00    +0.061 S 
ATOM      9  O   UNL     1       1.026   7.888  -1.121  0.00  0.00    -0.153 OA
ATOM     10  O   UNL     1      -1.342   8.055  -1.875  0.00  0.00    -0.153 OA
BRANCH   8  11
ATOM     11  C   UNL     1      -0.665   9.125   0.350  0.00  0.00    +0.106 A 
ATOM     12  C   UNL     1      -1.921   9.692   0.463  0.00  0.00    +0.029 A 
ATOM     13  C   UNL     1      -2.154  10.673   1.409  0.00  0.00    +0.017 A 
ATOM     14  C   UNL     1      -1.129  11.088   2.240  0.00  0.00    +0.018 A 
ATOM     15  C   UNL     1       0.127  10.521   2.126  0.00  0.00    +0.017 A 
ATOM     16  C   UNL     1       0.357   9.536   1.184  0.00  0.00    +0.029 A 
ATOM     17 BR   UNL     1      -1.446  12.431   3.533  0.00  0.00    -0.050 Br
ENDBRANCH   8  11
ENDBRANCH   4   8
BRANCH   1  18
ATOM     18  C   UNL     1      -0.972   2.243  -0.209  0.00  0.00    +0.020 C 
BRANCH  18  20
ATOM     19  N   UNL     1      -2.576   0.365  -0.361  0.00  0.00    -0.209 N 
ATOM     20  C   UNL     1      -2.324   1.626   0.044  0.00  0.00    +0.216 C 
ATOM     21  O   UNL     1      -3.185   2.264   0.612  0.00  0.00    -0.276 OA
ATOM     22  H   UNL     1      -1.866  -0.172  -0.746  0.00  0.00    +0.177 HD
BRANCH  19  24
ATOM     23  C   UNL     1      -4.076  -1.424  -0.483  0.00  0.00    +0.142 C 
ATOM     24  N   UNL     1      -3.864  -0.170  -0.225  0.00  0.00    -0.188 NA
BRANCH  23  30
ATOM     25  C   UNL     1      -3.070  -3.635  -1.044  0.00  0.00    +0.129 A 
ATOM     26  C   UNL     1      -2.018  -4.533  -0.973  0.00  0.00    +0.046 A 
ATOM     27  C   UNL     1      -0.872  -4.204  -0.273  0.00  0.00    +0.004 A 
ATOM     28  C   UNL     1      -0.766  -2.978   0.361  0.00  0.00    +0.001 A 
ATOM     29  C   UNL     1      -1.804  -2.072   0.300  0.00  0.00    +0.013 A 
ATOM     30  C   UNL     1      -2.965  -2.390  -0.409  0.00  0.00    +0.036 A 
BRANCH  25  31
ATOM     31  O   UNL     1      -4.196  -3.957  -1.731  0.00  0.00    -0.492 OA
BRANCH  31  33
ATOM     32  C   UNL     1      -5.571  -5.433  -3.062  0.00  0.00    +0.048 C 
ATOM     33  C   UNL     1      -4.276  -5.282  -2.261  0.00  0.00    +0.226 C 
ENDBRANCH  31  33
ENDBRANCH  25  31
ENDBRANCH  23  30
ENDBRANCH  19  24
ENDBRANCH  18  20
ENDBRANCH   1  18
TORSDOF 8
