REMARK  Name = ZINC40770272
REMARK  9 active torsions:
REMARK  status: ('A' for Active; 'I' for Inactive)
REMARK    1  A    between atoms: C_1  and  C_2
REMARK    2  A    between atoms: C_2  and  C_3
REMARK    3  A    between atoms: C_2  and  C_4
REMARK    4  A    between atoms: C_4  and  C_6
REMARK    5  A    between atoms: C_4  and  N_15
REMARK    6  A    between atoms: C_6  and  N_7
REMARK    7  A    between atoms: N_7  and  C_8
REMARK    8  A    between atoms: C_8  and  C_9
REMARK    9  A    between atoms: N_18  and  C_21
REMARK                            x       y       z     vdW  Elec       q    Type
REMARK                         _______ _______ _______ _____ _____    ______ ____
ROOT
ATOM      1  C   UNL     1      -1.174  -0.027   0.317  0.00  0.00    +0.042 C 
ENDROOT
BRANCH   1   2
ATOM      2  N   UNL     1      -1.392  -1.255   1.094  0.00  0.00    -0.304 NA
ATOM      3  C   UNL     1      -1.050  -1.051   2.509  0.00  0.00    +0.066 C 
ATOM      4  C   UNL     1      -1.347  -2.332   3.292  0.00  0.00    -0.064 C 
ATOM      5  N   UNL     1      -0.560  -3.440   2.735  0.00  0.00    +0.379 N 
ATOM      6  C   UNL     1      -0.930  -3.647   1.329  0.00  0.00    -0.064 C 
ATOM      7  C   UNL     1      -0.630  -2.378   0.530  0.00  0.00    +0.066 C 
ATOM      8  C   UNL     1      -0.832  -4.665   3.499  0.00  0.00    -0.096 C 
ATOM      9  H   UNL     1       0.422  -3.218   2.795  0.00  0.00    -0.082 HD
ENDBRANCH   1   2
BRANCH   1  11
ATOM     10  C   UNL     1       0.504   1.283  -0.990  0.00  0.00    +0.009 C 
ATOM     11  C   UNL     1       0.298   0.064  -0.089  0.00  0.00    -0.002 C 
ATOM     12  C   UNL     1       1.165   0.204   1.164  0.00  0.00    +0.009 C 
ENDBRANCH   1  11
BRANCH   1  13
ATOM     13  C   UNL     1      -2.048  -0.056  -0.938  0.00  0.00    -0.063 C 
BRANCH  13  14
ATOM     14  N   UNL     1      -3.450  -0.270  -0.553  0.00  0.00    +0.385 N 
ATOM     15  H   UNL     1      -3.523  -1.112  -0.002  0.00  0.00    -0.085 HD
ATOM     16  H   UNL     1      -3.774   0.516  -0.010  0.00  0.00    -0.085 HD
BRANCH  14  17
ATOM     17  C   UNL     1      -4.274  -0.403  -1.762  0.00  0.00    -0.007 C 
BRANCH  17  18
ATOM     18  C   UNL     1      -5.712  -0.623  -1.367  0.00  0.00    +0.090 A 
ATOM     19  C   UNL     1      -6.630   0.341  -1.172  0.00  0.00    +0.044 A 
ATOM     20  C   UNL     1      -7.836  -0.308  -0.818  0.00  0.00    +0.056 A 
ATOM     21  C   UNL     1      -7.582  -1.629  -0.817  0.00  0.00    +0.165 A 
ATOM     22  O   UNL     1      -6.296  -1.814  -1.157  0.00  0.00    -0.456 OA
ATOM     23  I   UNL     1      -8.961  -3.142  -0.371  0.00  0.00    -0.001 I 
ENDBRANCH  17  18
ENDBRANCH  14  17
ENDBRANCH  13  14
ENDBRANCH   1  13
TORSDOF 6
