REMARK  Name = ZINC50132315
REMARK  5 active torsions:
REMARK  status: ('A' for Active; 'I' for Inactive)
REMARK    1  A    between atoms: C_3  and  O_20
REMARK    2  A    between atoms: C_4  and  O_19
REMARK    3  A    between atoms: C_6  and  C_7
REMARK    4  A    between atoms: C_7  and  C_9
REMARK    5  A    between atoms: C_9  and  N_10
REMARK                            x       y       z     vdW  Elec       q    Type
REMARK                         _______ _______ _______ _____ _____    ______ ____
ROOT
ATOM      1  C   UNL     1      -1.258  -0.758   0.010  0.00  0.00    +0.177 C 
ATOM      2  O   UNL     1      -1.240  -1.970   0.003  0.00  0.00    -0.291 OA
ENDROOT
BRANCH   1   8
ATOM      3  C   UNL     1      -0.017   1.395   0.010  0.00  0.00    +0.015 A 
ATOM      4  C   UNL     1       1.167   2.100   0.002  0.00  0.00    +0.050 A 
ATOM      5  C   UNL     1       2.380   1.425  -0.013  0.00  0.00    +0.158 A 
ATOM      6  C   UNL     1       2.408   0.030  -0.021  0.00  0.00    +0.159 A 
ATOM      7  C   UNL     1       1.227  -0.684  -0.013  0.00  0.00    +0.060 A 
ATOM      8  C   UNL     1       0.002  -0.004   0.002  0.00  0.00    +0.022 A 
BRANCH   6   9
ATOM      9  O   UNL     1       3.599  -0.626  -0.036  0.00  0.00    -0.503 OA
ATOM     10  H   UNL     1       3.952  -0.821   0.843  0.00  0.00    +0.292 HD
ENDBRANCH   6   9
BRANCH   5  11
ATOM     11  O   UNL     1       3.543   2.125  -0.021  0.00  0.00    -0.503 OA
ATOM     12  H   UNL     1       3.889   2.323   0.860  0.00  0.00    +0.292 HD
ENDBRANCH   5  11
ENDBRANCH   1   8
BRANCH   1  13
ATOM     13  C   UNL     1      -2.575  -0.024   0.026  0.00  0.00    +0.164 C 
BRANCH  13  14
ATOM     14  N   UNL     1      -3.677  -0.996   0.032  0.00  0.00    -0.291 NA
ATOM     15  C   UNL     1      -4.964  -0.334  -0.223  0.00  0.00    +0.090 C 
ATOM     16  C   UNL     1      -6.000  -1.400  -0.615  0.00  0.00    +0.058 C 
ATOM     17  C   UNL     1      -5.885  -2.527   0.359  0.00  0.00    -0.005 A 
ATOM     18  C   UNL     1      -4.867  -2.740   1.239  0.00  0.00    -0.023 A 
ATOM     19  C   UNL     1      -4.976  -3.862   2.057  0.00  0.00    +0.013 A 
ATOM     20  C   UNL     1      -6.053  -4.675   1.950  0.00  0.00    +0.046 A 
ATOM     21  S   UNL     1      -6.992  -3.876   0.656  0.00  0.00    -0.101 S 
ATOM     22  C   UNL     1      -3.691  -1.768   1.281  0.00  0.00    +0.120 C 
ENDBRANCH  13  14
ENDBRANCH   1  13
TORSDOF 5
