REMARK  Name = ZINC39916370
REMARK  1 active torsions:
REMARK  status: ('A' for Active; 'I' for Inactive)
REMARK    1  A    between atoms: C_10  and  C_28
REMARK                            x       y       z     vdW  Elec       q    Type
REMARK                         _______ _______ _______ _____ _____    ______ ____
ROOT
ATOM      1  C   UNL     1      -0.016   1.358   0.009  0.00  0.00    +0.001 A 
ATOM      2  C   UNL     1       1.162   2.096   0.002  0.00  0.00    +0.002 A 
ATOM      3  C   UNL     1       2.385   1.495  -0.026  0.00  0.00    +0.024 A 
ATOM      4  C   UNL     1       2.480   0.094  -0.042  0.00  0.00    +0.042 A 
ATOM      5  N   UNL     1       3.682  -0.494  -0.123  0.00  0.00    -0.284 N 
ATOM      6  C   UNL     1       3.864  -1.800  -0.057  0.00  0.00    +0.228 C 
ATOM      7  O   UNL     1       4.983  -2.271  -0.154  0.00  0.00    -0.275 OA
ATOM      8  C   UNL     1       2.673  -2.703   0.142  0.00  0.00    +0.149 C 
ATOM      9  C   UNL     1       2.715  -3.829  -0.886  0.00  0.00    +0.156 C 
ATOM     10  N   UNL     1       1.544  -4.691  -0.697  0.00  0.00    -0.246 NA
ATOM     11  C   UNL     1       0.401  -4.214  -0.313  0.00  0.00    +0.188 C 
ATOM     12  N   UNL     1       0.224  -2.862  -0.079  0.00  0.00    -0.289 N 
ATOM     13  C   UNL     1       1.300  -2.069   0.062  0.00  0.00    +0.034 C 
ATOM     14  C   UNL     1       1.235  -0.682  -0.004  0.00  0.00    +0.014 A 
ATOM     15  C   UNL     1       0.002  -0.004   0.002  0.00  0.00    +0.011 A 
ATOM     16  N   UNL     1      -0.662  -5.074  -0.136  0.00  0.00    -0.241 N 
ATOM     17  C   UNL     1      -0.503  -6.426  -0.366  0.00  0.00    +0.295 A 
ATOM     18  N   UNL     1       0.611  -6.994  -0.748  0.00  0.00    -0.195 NA
ATOM     19  C   UNL     1       0.398  -8.332  -0.874  0.00  0.00    +0.111 A 
ATOM     20  C   UNL     1       1.208  -9.407  -1.243  0.00  0.00    +0.031 A 
ATOM     21  C   UNL     1       0.681 -10.680  -1.276  0.00  0.00    +0.002 A 
ATOM     22  C   UNL     1      -0.647 -10.898  -0.944  0.00  0.00    +0.004 A 
ATOM     23  C   UNL     1      -1.459  -9.844  -0.578  0.00  0.00    +0.048 A 
ATOM     24  C   UNL     1      -0.946  -8.558  -0.539  0.00  0.00    +0.157 A 
ATOM     25  O   UNL     1      -1.468  -7.350  -0.225  0.00  0.00    -0.424 OA
ATOM     26  H   UNL     1      -0.669  -2.490   0.001  0.00  0.00    +0.155 HD
ATOM     27  H   UNL     1      -1.522  -4.729   0.151  0.00  0.00    +0.159 HD
ATOM     28  H   UNL     1       4.461   0.071  -0.237  0.00  0.00    +0.155 HD
ENDROOT
BRANCH   9  29
ATOM     29  C   UNL     1       2.693  -3.244  -2.275  0.00  0.00    -0.022 A 
ATOM     30  C   UNL     1       1.498  -2.823  -2.829  0.00  0.00    +0.008 A 
ATOM     31  C   UNL     1       1.477  -2.286  -4.102  0.00  0.00    +0.038 A 
ATOM     32  C   UNL     1       2.653  -2.171  -4.823  0.00  0.00    +0.123 A 
ATOM     33  C   UNL     1       3.849  -2.593  -4.268  0.00  0.00    +0.038 A 
ATOM     34  C   UNL     1       3.869  -3.125  -2.993  0.00  0.00    +0.008 A 
ATOM     35  F   UNL     1       2.634  -1.646  -6.068  0.00  0.00    -0.205 F 
ENDBRANCH   9  29
TORSDOF 1
