REMARK  Name = ZINC00835850
REMARK  5 active torsions:
REMARK  status: ('A' for Active; 'I' for Inactive)
REMARK    1  A    between atoms: C_4  and  C_7
REMARK    2  A    between atoms: C_16  and  C_23
REMARK    3  A    between atoms: N_17  and  C_18
REMARK    4  A    between atoms: C_18  and  C_19
REMARK    5  A    between atoms: N_21  and  N_22
REMARK                            x       y       z     vdW  Elec       q    Type
REMARK                         _______ _______ _______ _____ _____    ______ ____
ROOT
ATOM      1  C   UNL     1       3.863  -0.742  -0.043  0.00  0.00    +0.138 C 
ATOM      2  C   UNL     1       3.916  -1.207  -1.478  0.00  0.00    +0.004 A 
ATOM      3  C   UNL     1       4.493  -0.421  -2.450  0.00  0.00    +0.023 A 
ATOM      4  C   UNL     1       4.533  -0.861  -3.763  0.00  0.00    +0.018 A 
ATOM      5  C   UNL     1       3.993  -2.090  -4.103  0.00  0.00    +0.017 A 
ATOM      6  C   UNL     1       3.412  -2.886  -3.138  0.00  0.00    +0.029 A 
ATOM      7  C   UNL     1       3.370  -2.449  -1.812  0.00  0.00    +0.071 A 
ATOM      8  N   UNL     1       2.801  -3.230  -0.845  0.00  0.00    -0.232 NA
ATOM      9  C   UNL     1       3.010  -2.992   0.426  0.00  0.00    +0.130 C 
ATOM     10  N   UNL     1       3.811  -1.936   0.816  0.00  0.00    -0.295 N 
ATOM     11 BR   UNL     1       5.326   0.221  -5.096  0.00  0.00    -0.050 Br
ENDROOT
BRANCH   9  12
ATOM     12  C   UNL     1       2.384  -3.856   1.449  0.00  0.00    +0.015 A 
ATOM     13  C   UNL     1       0.999  -4.032   1.466  0.00  0.00    +0.012 A 
ATOM     14  C   UNL     1       0.422  -4.840   2.423  0.00  0.00    +0.016 A 
ATOM     15  C   UNL     1       1.212  -5.476   3.365  0.00  0.00    +0.018 A 
ATOM     16  C   UNL     1       2.587  -5.305   3.353  0.00  0.00    +0.016 A 
ATOM     17  C   UNL     1       3.177  -4.505   2.398  0.00  0.00    +0.012 A 
ATOM     18 BR   UNL     1       0.412  -6.582   4.674  0.00  0.00    -0.050 Br
ENDBRANCH   9  12
BRANCH   1  22
ATOM     19  C   UNL     1       0.371   1.640   0.576  0.00  0.00    +0.000 A 
ATOM     20  C   UNL     1       1.601   2.247   0.402  0.00  0.00    +0.000 A 
ATOM     21  C   UNL     1       2.731   1.477   0.202  0.00  0.00    +0.006 A 
ATOM     22  C   UNL     1       2.631   0.098   0.176  0.00  0.00    -0.023 A 
ATOM     23  C   UNL     1       1.402  -0.510   0.351  0.00  0.00    +0.006 A 
ATOM     24  C   UNL     1       0.272   0.261   0.550  0.00  0.00    +0.000 A 
ENDBRANCH   1  22
BRANCH  10  25
ATOM     25  C   UNL     1       4.592  -2.003   2.053  0.00  0.00    +0.204 C 
BRANCH  25  26
ATOM     26  C   UNL     1       3.723  -1.605   3.218  0.00  0.00    +0.244 C 
ATOM     27  O   UNL     1       2.544  -1.377   3.045  0.00  0.00    -0.273 OA
ATOM     28  N   UNL     1       4.256  -1.501   4.452  0.00  0.00    -0.252 N 
ATOM     29  H   UNL     1       5.199  -1.683   4.590  0.00  0.00    +0.169 HD
BRANCH  28  30
ATOM     30  N   UNL     1       3.468  -1.140   5.508  0.00  0.00    -0.254 NA
ATOM     31  H   UNL     1       4.003  -1.105   6.362  0.00  0.00    +0.140 HD
ATOM     32  H   UNL     1       3.009  -0.259   5.332  0.00  0.00    +0.140 HD
ENDBRANCH  28  30
ENDBRANCH  25  26
ENDBRANCH  10  25
TORSDOF 5
