REMARK  Name = ZINC06077646
REMARK  13 active torsions:
REMARK  status: ('A' for Active; 'I' for Inactive)
REMARK    1  A    between atoms: C_1  and  C_2
REMARK    2  A    between atoms: C_2  and  C_3
REMARK    3  A    between atoms: C_3  and  C_4
REMARK    4  A    between atoms: C_3  and  C_5
REMARK    5  A    between atoms: C_3  and  N_6
REMARK    6  A    between atoms: C_7  and  C_11
REMARK    7  A    between atoms: C_11  and  C_13
REMARK    8  A    between atoms: C_11  and  N_75
REMARK    9  A    between atoms: C_16  and  C_26
REMARK   10  A    between atoms: C_18  and  C_25
REMARK   11  A    between atoms: N_29  and  C_32
REMARK   12  A    between atoms: C_37  and  O_38
REMARK   13  A    between atoms: O_38  and  C_39
REMARK                            x       y       z     vdW  Elec       q    Type
REMARK                         _______ _______ _______ _____ _____    ______ ____
ROOT
ATOM      1  C   UNL     1       5.019   4.339  -0.049  0.00  0.00    +0.039 C 
ENDROOT
BRANCH   1   2
ATOM      2  C   UNL     1       3.658   3.697   0.044  0.00  0.00    +0.011 A 
ATOM      3  C   UNL     1       3.544   2.347  -0.001  0.00  0.00    +0.018 A 
ATOM      4  C   UNL     1       2.208   1.754   0.092  0.00  0.00    +0.002 A 
ATOM      5  C   UNL     1       2.027   0.368   0.051  0.00  0.00    -0.041 A 
ATOM      6  C   UNL     1       0.768  -0.154   0.139  0.00  0.00    +0.007 A 
ATOM      7  C   UNL     1      -0.334   0.680   0.270  0.00  0.00    -0.048 A 
ATOM      8  C   UNL     1      -0.180   2.049   0.313  0.00  0.00    +0.029 A 
ATOM      9  C   UNL     1       1.093   2.603   0.224  0.00  0.00    +0.050 A 
ATOM     10  N   UNL     1       1.277   3.969   0.264  0.00  0.00    -0.322 N 
ATOM     11  H   UNL     1       0.484   4.570   0.357  0.00  0.00    +0.169 HD
ATOM     12  C   UNL     1       2.508   4.504   0.178  0.00  0.00    +0.251 A 
ATOM     13  O   UNL     1       2.633   5.715   0.216  0.00  0.00    -0.268 OA
ATOM     14  C   UNL     1      -1.714   0.082   0.367  0.00  0.00    +0.044 C 
ATOM     15  C   UNL     1       3.217  -0.547  -0.090  0.00  0.00    +0.044 C 
ENDBRANCH   1   2
BRANCH   1  21
ATOM     16  C   UNL     1       6.466   5.995   0.965  0.00  0.00    -0.058 C 
ATOM     17  C   UNL     1       6.597   6.966   2.141  0.00  0.00    +0.086 C 
ATOM     18  N   UNL     1       6.584   6.209   3.401  0.00  0.00    -0.331 N 
ATOM     19  C   UNL     1       5.337   5.444   3.538  0.00  0.00    +0.086 C 
ATOM     20  C   UNL     1       5.205   4.473   2.362  0.00  0.00    -0.058 C 
ATOM     21  N   UNL     1       5.198   5.248   1.103  0.00  0.00    +0.391 N 
ATOM     22  H   UNL     1       4.418   5.915   1.126  0.00  0.00    -0.080 HD
BRANCH  18  23
ATOM     23  C   UNL     1       6.774   7.058   4.497  0.00  0.00    +0.072 A 
ATOM     24  C   UNL     1       6.743   8.434   4.326  0.00  0.00    +0.027 A 
ATOM     25  C   UNL     1       6.927   9.270   5.411  0.00  0.00    +0.002 A 
ATOM     26  C   UNL     1       7.153   8.738   6.667  0.00  0.00    +0.004 A 
ATOM     27  C   UNL     1       7.191   7.367   6.845  0.00  0.00    +0.047 A 
ATOM     28  C   UNL     1       7.002   6.523   5.763  0.00  0.00    +0.141 A 
BRANCH  28  29
ATOM     29  O   UNL     1       7.040   5.174   5.936  0.00  0.00    -0.493 OA
ATOM     30  C   UNL     1       7.279   4.697   7.262  0.00  0.00    +0.277 C 
ENDBRANCH  28  29
ENDBRANCH  18  23
ENDBRANCH   1  21
BRANCH   1  32
ATOM     31  N   UNL     1       5.875   4.853  -2.396  0.00  0.00    -0.225 N 
ATOM     32  C   UNL     1       5.112   5.137  -1.324  0.00  0.00    +0.143 A 
ATOM     33  N   UNL     1       4.461   6.240  -1.606  0.00  0.00    -0.115 NA
ATOM     34  N   UNL     1       4.813   6.617  -2.787  0.00  0.00    -0.023 NA
ATOM     35  N   UNL     1       5.664   5.780  -3.268  0.00  0.00    -0.043 NA
BRANCH  31  36
ATOM     36  C   UNL     1       6.775   3.707  -2.544  0.00  0.00    +0.061 C 
ATOM     37  C   UNL     1       7.882   3.789  -1.491  0.00  0.00    +0.036 C 
ATOM     38  C   UNL     1       5.985   2.410  -2.354  0.00  0.00    +0.036 C 
BRANCH  36  40
ATOM     39  C   UNL     1       8.338   2.528  -4.096  0.00  0.00    +0.006 C 
ATOM     40  C   UNL     1       7.398   3.725  -3.941  0.00  0.00    +0.026 C 
ENDBRANCH  36  40
ENDBRANCH  31  36
ENDBRANCH   1  32
TORSDOF 7
