REMARK  Name = ZINC13960893
REMARK  4 active torsions:
REMARK  status: ('A' for Active; 'I' for Inactive)
REMARK    1  A    between atoms: C_1  and  N_2
REMARK    2  A    between atoms: C_5  and  C_19
REMARK    3  A    between atoms: C_7  and  C_9
REMARK    4  A    between atoms: C_23  and  C_25
REMARK                            x       y       z     vdW  Elec       q    Type
REMARK                         _______ _______ _______ _____ _____    ______ ____
ROOT
ATOM      1  C   UNL     1      -4.731  -1.643  -1.547  0.00  0.00    +0.174 C 
ATOM      2  N   UNL     1      -3.743  -0.597  -1.821  0.00  0.00    -0.249 N 
ATOM      3  C   UNL     1      -3.469  -0.070  -3.054  0.00  0.00    +0.159 A 
ATOM      4  C   UNL     1      -2.463   0.899  -2.862  0.00  0.00    +0.054 A 
ATOM      5  C   UNL     1      -1.979   1.611  -3.966  0.00  0.00    +0.069 A 
ATOM      6  C   UNL     1      -2.509   1.332  -5.198  0.00  0.00    +0.037 A 
ATOM      7  C   UNL     1      -3.497   0.365  -5.318  0.00  0.00    +0.050 A 
ATOM      8  N   UNL     1      -3.944  -0.297  -4.273  0.00  0.00    -0.232 NA
ATOM      9  C   UNL     1      -2.164   0.907  -1.435  0.00  0.00    +0.076 A 
ATOM     10  N   UNL     1      -2.927   0.017  -0.866  0.00  0.00    -0.174 NA
ENDROOT
BRANCH   7  11
ATOM     11  C   UNL     1      -4.073   0.067  -6.678  0.00  0.00    +0.014 C 
ATOM     12  C   UNL     1      -2.938  -0.047  -7.698  0.00  0.00    +0.016 C 
ATOM     13  C   UNL     1      -3.522  -0.350  -9.079  0.00  0.00    -0.010 C 
ATOM     14  C   UNL     1      -4.295  -1.669  -9.028  0.00  0.00    +0.007 C 
ATOM     15  C   UNL     1      -5.430  -1.556  -8.008  0.00  0.00    -0.010 C 
ATOM     16  C   UNL     1      -4.846  -1.253  -6.626  0.00  0.00    +0.016 C 
ATOM     17  C   UNL     1      -6.376  -0.427  -8.420  0.00  0.00    +0.007 C 
ATOM     18  C   UNL     1      -5.603   0.893  -8.472  0.00  0.00    -0.010 C 
ATOM     19  C   UNL     1      -4.468   0.779  -9.492  0.00  0.00    +0.007 C 
ATOM     20  C   UNL     1      -5.019   1.196  -7.091  0.00  0.00    +0.016 C 
ENDBRANCH   7  11
BRANCH   5  21
ATOM     21  C   UNL     1      -0.904   2.655  -3.803  0.00  0.00    +0.418 C 
ATOM     22  F   UNL     1      -0.603   3.212  -5.050  0.00  0.00    -0.166 F 
ATOM     23  F   UNL     1      -1.357   3.659  -2.940  0.00  0.00    -0.166 F 
ATOM     24  F   UNL     1       0.244   2.062  -3.266  0.00  0.00    -0.166 F 
ENDBRANCH   5  21
BRANCH   9  25
ATOM     25  C   UNL     1      -1.150   1.781  -0.743  0.00  0.00    +0.040 C 
ATOM     26  C   UNL     1      -0.013   1.086   0.008  0.00  0.00    +0.010 C 
ATOM     27  C   UNL     1      -1.136   1.773   0.788  0.00  0.00    +0.010 C 
ENDBRANCH   9  25
TORSDOF 3
