REMARK  Name = ZINC17076471
REMARK  2 active torsions:
REMARK  status: ('A' for Active; 'I' for Inactive)
REMARK    1  A    between atoms: C_4  and  C_7
REMARK    2  A    between atoms: C_12  and  C_22
REMARK                            x       y       z     vdW  Elec       q    Type
REMARK                         _______ _______ _______ _____ _____    ______ ____
ROOT
ATOM      1  C   UNL     1       3.711  -0.707  -0.038  0.00  0.00    +0.032 C 
ATOM      2  C   UNL     1       3.816  -1.612   1.190  0.00  0.00    +0.059 C 
ATOM      3  C   UNL     1       5.147  -2.346   1.169  0.00  0.00    +0.017 C 
ATOM      4  C   UNL     1       5.671  -2.778   0.011  0.00  0.00    +0.033 C 
ATOM      5  C   UNL     1       6.902  -3.625  -0.208  0.00  0.00    +0.152 C 
ATOM      6  S   UNL     1       7.551  -4.391   1.288  0.00  0.00    -0.107 S 
ATOM      7  C   UNL     1       8.030  -3.038   2.307  0.00  0.00    +0.030 A 
ATOM      8  C   UNL     1       9.346  -2.862   2.701  0.00  0.00    +0.016 A 
ATOM      9  C   UNL     1       9.672  -1.764   3.480  0.00  0.00    +0.001 A 
ATOM     10  C   UNL     1       8.698  -0.855   3.850  0.00  0.00    +0.002 A 
ATOM     11  C   UNL     1       7.381  -1.038   3.462  0.00  0.00    +0.024 A 
ATOM     12  C   UNL     1       7.052  -2.149   2.702  0.00  0.00    +0.045 A 
ATOM     13  N   UNL     1       5.749  -2.470   2.368  0.00  0.00    -0.317 N 
ATOM     14  C   UNL     1       5.035  -2.428  -1.209  0.00  0.00    +0.163 C 
ATOM     15  O   UNL     1       5.528  -2.819  -2.249  0.00  0.00    -0.292 OA
ATOM     16  C   UNL     1       3.791  -1.602  -1.279  0.00  0.00    +0.088 C 
ATOM     17  H   UNL     1       5.202  -2.829   3.083  0.00  0.00    +0.152 HD
ENDROOT
BRANCH   1  21
ATOM     18  C   UNL     1      -0.017   1.378   0.010  0.00  0.00    +0.000 A 
ATOM     19  C   UNL     1       1.171   2.086   0.002  0.00  0.00    +0.000 A 
ATOM     20  C   UNL     1       2.377   1.411  -0.013  0.00  0.00    +0.004 A 
ATOM     21  C   UNL     1       2.396   0.029  -0.020  0.00  0.00    -0.044 A 
ATOM     22  C   UNL     1       1.208  -0.679  -0.012  0.00  0.00    +0.004 A 
ATOM     23  C   UNL     1       0.002  -0.004   0.002  0.00  0.00    +0.000 A 
ENDBRANCH   1  21
BRANCH   5  24
ATOM     24  C   UNL     1       7.981  -2.757  -0.804  0.00  0.00    +0.123 A 
ATOM     25  C   UNL     1       8.574  -2.947  -1.997  0.00  0.00    +0.046 A 
ATOM     26  C   UNL     1       9.518  -1.907  -2.154  0.00  0.00    +0.041 A 
ATOM     27  C   UNL     1       9.446  -1.144  -1.049  0.00  0.00    +0.195 A 
ATOM     28  O   UNL     1       8.509  -1.661  -0.237  0.00  0.00    -0.466 OA
ENDBRANCH   5  24
TORSDOF 2
