REMARK  Name = ZINC08942536
REMARK  3 active torsions:
REMARK  status: ('A' for Active; 'I' for Inactive)
REMARK    1  A    between atoms: C_8  and  C_10
REMARK    2  A    between atoms: N_15  and  S_17
REMARK    3  A    between atoms: S_17  and  C_20
REMARK                            x       y       z     vdW  Elec       q    Type
REMARK                         _______ _______ _______ _____ _____    ______ ____
ROOT
ATOM      1  C   UNL     1      -0.610   5.461   0.035  0.00  0.00    +0.060 C 
ATOM      2  C   UNL     1      -1.450   5.780  -1.204  0.00  0.00    +0.013 C 
ATOM      3  C   UNL     1      -1.808   7.268  -1.211  0.00  0.00    +0.018 C 
ATOM      4  C   UNL     1      -2.639   7.595   0.033  0.00  0.00    +0.109 C 
ATOM      5  N   UNL     1      -1.898   7.159   1.225  0.00  0.00    -0.176 NA
ATOM      6  C   UNL     1      -1.427   5.769   1.294  0.00  0.00    +0.119 C 
ENDROOT
BRANCH   1  14
ATOM      7  C   UNL     1       2.393   0.070  -0.021  0.00  0.00    +0.002 A 
ATOM      8  C   UNL     1       1.216  -0.666  -0.013  0.00  0.00    +0.001 A 
ATOM      9  C   UNL     1       0.002  -0.004   0.002  0.00  0.00    +0.017 A 
ATOM     10  C   UNL     1      -0.017   1.370   0.010  0.00  0.00    +0.039 A 
ATOM     11  C   UNL     1       1.166   2.144   0.002  0.00  0.00    +0.078 A 
ATOM     12  C   UNL     1       2.385   1.430  -0.013  0.00  0.00    +0.029 A 
ATOM     13  N   UNL     1       0.962   3.478   0.011  0.00  0.00    -0.244 NA
ATOM     14  C   UNL     1      -0.231   4.003   0.025  0.00  0.00    +0.084 A 
ATOM     15  S   UNL     1      -1.278   2.618   0.021  0.00  0.00    -0.072 S 
ENDBRANCH   1  14
BRANCH   5  16
ATOM     16  S   UNL     1      -1.600   8.213   2.466  0.00  0.00    +0.061 S 
ATOM     17  O   UNL     1      -0.457   7.721   3.151  0.00  0.00    -0.153 OA
ATOM     18  O   UNL     1      -1.650   9.520   1.910  0.00  0.00    -0.153 OA
BRANCH  16  19
ATOM     19  C   UNL     1      -2.952   8.092   3.589  0.00  0.00    +0.106 A 
ATOM     20  C   UNL     1      -4.053   8.914   3.436  0.00  0.00    +0.029 A 
ATOM     21  C   UNL     1      -5.116   8.815   4.314  0.00  0.00    +0.017 A 
ATOM     22  C   UNL     1      -5.073   7.902   5.353  0.00  0.00    +0.018 A 
ATOM     23  C   UNL     1      -3.969   7.084   5.508  0.00  0.00    +0.017 A 
ATOM     24  C   UNL     1      -2.908   7.179   4.627  0.00  0.00    +0.029 A 
ATOM     25 BR   UNL     1      -6.524   7.773   6.559  0.00  0.00    -0.050 Br
ENDBRANCH  16  19
ENDBRANCH   5  16
TORSDOF 3
