REMARK  Name = ZINC20452368
REMARK  8 active torsions:
REMARK  status: ('A' for Active; 'I' for Inactive)
REMARK    1  A    between atoms: C_1  and  C_2
REMARK    2  A    between atoms: C_2  and  C_4
REMARK    3  A    between atoms: C_2  and  N_16
REMARK    4  A    between atoms: C_4  and  C_5
REMARK    5  A    between atoms: C_5  and  C_6
REMARK    6  A    between atoms: C_19  and  N_22
REMARK    7  A    between atoms: C_24  and  C_27
REMARK    8  A    between atoms: C_27  and  O_28
REMARK                            x       y       z     vdW  Elec       q    Type
REMARK                         _______ _______ _______ _____ _____    ______ ____
ROOT
ATOM      1  N   UNL     1       1.445   1.808  -2.452  0.00  0.00    +0.381 N 
ATOM      2  C   UNL     1       2.350   1.643  -1.308  0.00  0.00    -0.076 C 
ATOM      3  C   UNL     1       1.698   2.224  -0.051  0.00  0.00    +0.008 C 
ATOM      4  C   UNL     1       0.375   1.501   0.213  0.00  0.00    +0.105 C 
ATOM      5  C   UNL     1      -0.531   1.647  -1.013  0.00  0.00    +0.008 C 
ATOM      6  C   UNL     1       0.185   1.083  -2.242  0.00  0.00    -0.076 C 
ATOM      7  H   UNL     1       1.205   2.878  -2.537  0.00  0.00    -0.081 HD
ENDROOT
BRANCH   4   8
ATOM      8  N   UNL     1      -0.281   2.091   1.382  0.00  0.00    -0.248 N 
ATOM      9  C   UNL     1      -1.080   3.184   1.375  0.00  0.00    +0.136 A 
ATOM     10  C   UNL     1      -1.466   3.376   2.658  0.00  0.00    +0.108 A 
ATOM     11  N   UNL     1      -0.893   2.404   3.377  0.00  0.00    -0.132 NA
ATOM     12  N   UNL     1      -0.202   1.657   2.591  0.00  0.00    -0.065 NA
BRANCH  10  13
ATOM     13  C   UNL     1      -2.365   4.469   3.175  0.00  0.00    +0.214 C 
BRANCH  13  14
ATOM     14  O   UNL     1      -2.769   5.306   2.089  0.00  0.00    -0.389 OA
ATOM     15  H   UNL     1      -3.432   6.165   2.274  0.00  0.00    +0.210 HD
ENDBRANCH  13  14
ENDBRANCH  10  13
ENDBRANCH   4   8
BRANCH   1  17
ATOM     16  C   UNL     1       2.242  -0.136  -3.710  0.00  0.00    -0.013 C 
ATOM     17  C   UNL     1       2.093   1.387  -3.701  0.00  0.00    -0.071 C 
BRANCH  17  18
ATOM     18  C   UNL     1       1.236   1.823  -4.892  0.00  0.00    -0.011 C 
BRANCH  18  19
ATOM     19  C   UNL     1       1.171   3.351  -4.941  0.00  0.00    +0.036 C 
BRANCH  19  20
ATOM     20  C   UNL     1       0.328   3.780  -6.114  0.00  0.00    -0.022 A 
ATOM     21  C   UNL     1       0.771   4.115  -7.336  0.00  0.00    +0.087 A 
ATOM     22  N   UNL     1      -0.285   4.449  -8.140  0.00  0.00    -0.360 N 
ATOM     23  H   UNL     1      -0.108   4.752  -9.182  0.00  0.00    +0.165 HD
ATOM     24  C   UNL     1      -1.463   4.335  -7.436  0.00  0.00    +0.047 A 
ATOM     25  C   UNL     1      -1.132   3.905  -6.138  0.00  0.00    +0.003 A 
ATOM     26  C   UNL     1      -2.139   3.697  -5.195  0.00  0.00    +0.010 A 
ATOM     27  C   UNL     1      -3.445   3.908  -5.539  0.00  0.00    +0.001 A 
ATOM     28  C   UNL     1      -3.777   4.329  -6.819  0.00  0.00    +0.002 A 
ATOM     29  C   UNL     1      -2.798   4.548  -7.763  0.00  0.00    +0.026 A 
ENDBRANCH  19  20
ENDBRANCH  18  19
ENDBRANCH  17  18
ENDBRANCH   1  17
TORSDOF 7
