REMARK  Name = ZINC39914015
REMARK  14 active torsions:
REMARK  status: ('A' for Active; 'I' for Inactive)
REMARK    1  A    between atoms: C_1  and  C_2
REMARK    2  A    between atoms: C_2  and  O_3
REMARK    3  A    between atoms: O_3  and  C_4
REMARK    4  A    between atoms: C_6  and  C_14
REMARK    5  A    between atoms: C_9  and  O_10
REMARK    6  A    between atoms: O_10  and  C_11
REMARK    7  A    between atoms: C_11  and  C_12
REMARK    8  A    between atoms: C_17  and  C_29
REMARK    9  A    between atoms: N_24  and  C_25
REMARK   10  A    between atoms: C_25  and  C_26
REMARK   11  A    between atoms: C_26  and  C_27
REMARK   12  A    between atoms: C_27  and  O_28
REMARK   13  A    between atoms: C_32  and  C_36
REMARK   14  A    between atoms: C_34  and  O_35
REMARK                            x       y       z     vdW  Elec       q    Type
REMARK                         _______ _______ _______ _____ _____    ______ ____
ROOT
ATOM      1  C   UNL     1       0.633  -4.884   0.179  0.00  0.00    +0.141 C 
ATOM      2  C   UNL     1       0.772  -5.637   1.474  0.00  0.00    +0.035 A 
ATOM      3  C   UNL     1       0.939  -5.576   2.862  0.00  0.00    +0.102 A 
ATOM      4  N   UNL     1       0.966  -6.816   3.310  0.00  0.00    -0.173 NA
ATOM      5  N   UNL     1       0.833  -7.653   2.344  0.00  0.00    -0.272 N 
ATOM      6  H   UNL     1       0.824  -8.618   2.440  0.00  0.00    +0.189 HD
ATOM      7  C   UNL     1       0.706  -6.981   1.161  0.00  0.00    +0.126 A 
ATOM      8  C   UNL     1       0.530  -7.114  -0.289  0.00  0.00    +0.265 C 
ATOM      9  O   UNL     1       0.437  -8.171  -0.883  0.00  0.00    -0.268 OA
ATOM     10  N   UNL     1       0.487  -5.900  -0.871  0.00  0.00    -0.285 N 
ENDROOT
BRANCH   3  11
ATOM     11  C   UNL     1       1.063  -4.343   3.679  0.00  0.00    +0.045 A 
ATOM     12  C   UNL     1       1.145  -3.099   3.059  0.00  0.00    +0.034 A 
ATOM     13  C   UNL     1       1.261  -1.955   3.823  0.00  0.00    +0.045 A 
ATOM     14  C   UNL     1       1.296  -2.040   5.205  0.00  0.00    -0.029 A 
ATOM     15  C   UNL     1       1.216  -3.271   5.829  0.00  0.00    +0.050 A 
ATOM     16  C   UNL     1       1.093  -4.426   5.073  0.00  0.00    +0.126 A 
ATOM     17  C   UNL     1       1.423  -0.787   6.032  0.00  0.00    +0.045 C 
ATOM     18 CL   UNL     1       1.364  -0.404   3.050  0.00  0.00    -0.083 Cl
BRANCH  16  19
ATOM     19  O   UNL     1       1.008  -5.636   5.686  0.00  0.00    -0.506 OA
ATOM     20  H   UNL     1       1.864  -6.059   5.841  0.00  0.00    +0.292 HD
ENDBRANCH  16  19
ENDBRANCH   3  11
BRANCH   1  23
ATOM     21  C   UNL     1      -2.972  -3.759   0.261  0.00  0.00    +0.162 A 
ATOM     22  C   UNL     1      -1.848  -4.569   0.223  0.00  0.00    +0.055 A 
ATOM     23  C   UNL     1      -0.588  -4.001   0.221  0.00  0.00    -0.019 A 
ATOM     24  C   UNL     1      -0.445  -2.627   0.256  0.00  0.00    +0.009 A 
ATOM     25  C   UNL     1      -1.562  -1.813   0.294  0.00  0.00    +0.050 A 
ATOM     26  C   UNL     1      -2.828  -2.375   0.291  0.00  0.00    +0.162 A 
BRANCH  21  27
ATOM     27  O   UNL     1      -4.213  -4.315   0.263  0.00  0.00    -0.489 OA
BRANCH  27  29
ATOM     28  C   UNL     1      -5.750  -6.177   0.373  0.00  0.00    +0.048 C 
ATOM     29  C   UNL     1      -4.285  -5.741   0.312  0.00  0.00    +0.226 C 
ENDBRANCH  27  29
ENDBRANCH  21  27
BRANCH  26  30
ATOM     30  O   UNL     1      -3.928  -1.576   0.323  0.00  0.00    -0.484 OA
BRANCH  30  31
ATOM     31  C   UNL     1      -3.704  -0.165   0.352  0.00  0.00    +0.256 C 
BRANCH  31  32
ATOM     32  C   UNL     1      -5.029   0.553   0.384  0.00  0.00    +0.006 C 
ATOM     33  C   UNL     1      -5.212   1.552   1.212  0.00  0.00    +0.007 C 
ENDBRANCH  31  32
ENDBRANCH  30  31
ENDBRANCH  26  30
ENDBRANCH   1  23
BRANCH  10  34
ATOM     34  C   UNL     1       0.323  -5.638  -2.302  0.00  0.00    +0.111 C 
BRANCH  34  35
ATOM     35  C   UNL     1       1.697  -5.576  -2.971  0.00  0.00    +0.047 C 
BRANCH  35  36
ATOM     36  C   UNL     1       1.525  -5.302  -4.466  0.00  0.00    +0.157 C 
BRANCH  36  37
ATOM     37  O   UNL     1       2.809  -5.244  -5.091  0.00  0.00    -0.395 OA
ATOM     38  H   UNL     1       2.777  -5.073  -6.042  0.00  0.00    +0.209 HD
ENDBRANCH  36  37
ENDBRANCH  35  36
ENDBRANCH  34  35
ENDBRANCH  10  34
TORSDOF 12
