REMARK  Name = ZINC11898490
REMARK  8 active torsions:
REMARK  status: ('A' for Active; 'I' for Inactive)
REMARK    1  A    between atoms: C_1  and  N_2
REMARK    2  A    between atoms: C_6  and  C_7
REMARK    3  A    between atoms: C_7  and  C_9
REMARK    4  A    between atoms: C_7  and  N_59
REMARK    5  A    between atoms: C_9  and  N_10
REMARK    6  A    between atoms: C_11  and  C_13
REMARK    7  A    between atoms: N_15  and  C_16
REMARK    8  A    between atoms: C_16  and  C_17
REMARK                            x       y       z     vdW  Elec       q    Type
REMARK                         _______ _______ _______ _____ _____    ______ ____
ROOT
ATOM      1  C   UNL     1       6.033   1.906  -0.171  0.00  0.00    -0.003 C 
ENDROOT
BRANCH   1  11
ATOM      2  C   UNL     1       4.707   3.789  -0.927  0.00  0.00    -0.073 C 
ATOM      3  C   UNL     1       4.718   4.920  -1.955  0.00  0.00    +0.017 C 
ATOM      4  C   UNL     1       4.684   4.349  -3.349  0.00  0.00    -0.048 A 
ATOM      5  C   UNL     1       4.336   5.186  -4.399  0.00  0.00    +0.004 A 
ATOM      6  C   UNL     1       4.301   4.705  -5.692  0.00  0.00    +0.000 A 
ATOM      7  C   UNL     1       4.615   3.382  -5.943  0.00  0.00    +0.000 A 
ATOM      8  C   UNL     1       4.959   2.547  -4.899  0.00  0.00    +0.002 A 
ATOM      9  C   UNL     1       4.994   3.029  -3.598  0.00  0.00    -0.061 A 
ATOM     10  C   UNL     1       5.371   2.079  -2.491  0.00  0.00    -0.042 C 
ATOM     11  N   UNL     1       5.774   2.836  -1.294  0.00  0.00    +0.389 N 
ATOM     12  H   UNL     1       6.633   3.358  -1.500  0.00  0.00    -0.080 HD
ENDBRANCH   1  11
BRANCH   1  18
ATOM     13  C   UNL     1       7.265  -0.339   1.576  0.00  0.00    +0.148 C 
ATOM     14  N   UNL     1       7.871   0.210   0.360  0.00  0.00    -0.355 N 
ATOM     15  C   UNL     1       9.057  -0.184  -0.184  0.00  0.00    +0.085 A 
ATOM     16  C   UNL     1       9.279   0.554  -1.290  0.00  0.00    +0.019 A 
ATOM     17  C   UNL     1       8.187   1.432  -1.438  0.00  0.00    +0.021 A 
ATOM     18  C   UNL     1       7.339   1.196  -0.416  0.00  0.00    +0.006 A 
ENDBRANCH   1  18
BRANCH   1  19
ATOM     19  C   UNL     1       4.906   0.877  -0.063  0.00  0.00    +0.095 C 
BRANCH  19  20
ATOM     20  N   UNL     1       3.652   1.559   0.266  0.00  0.00    -0.309 N 
ATOM     21  C   UNL     1       2.493   0.871   0.276  0.00  0.00    +0.299 C 
ATOM     22  O   UNL     1       2.488  -0.313   0.013  0.00  0.00    -0.265 OA
ATOM     23  H   UNL     1       3.655   2.506   0.476  0.00  0.00    +0.149 HD
BRANCH  21  24
ATOM     24  C   UNL     1       1.213   1.567   0.611  0.00  0.00    +0.299 C 
ATOM     25  O   UNL     1       1.218   2.752   0.875  0.00  0.00    -0.265 OA
ATOM     26  N   UNL     1       0.055   0.879   0.622  0.00  0.00    -0.303 N 
ATOM     27  H   UNL     1       0.051  -0.068   0.411  0.00  0.00    +0.149 HD
BRANCH  26  28
ATOM     28  C   UNL     1      -1.200   1.562   0.945  0.00  0.00    +0.141 C 
BRANCH  28  29
ATOM     29  C   UNL     1      -2.339   0.578   0.880  0.00  0.00    -0.012 A 
ATOM     30  C   UNL     1      -3.154   0.535  -0.236  0.00  0.00    +0.006 A 
ATOM     31  C   UNL     1      -4.196  -0.371  -0.297  0.00  0.00    +0.000 A 
ATOM     32  C   UNL     1      -4.430  -1.228   0.763  0.00  0.00    +0.001 A 
ATOM     33  C   UNL     1      -3.620  -1.183   1.881  0.00  0.00    +0.020 A 
ATOM     34  C   UNL     1      -2.574  -0.280   1.940  0.00  0.00    +0.046 A 
ATOM     35 CL   UNL     1      -1.555  -0.222   3.345  0.00  0.00    -0.083 Cl
ENDBRANCH  28  29
ENDBRANCH  26  28
ENDBRANCH  21  24
ENDBRANCH  19  20
ENDBRANCH   1  19
TORSDOF 7
