REMARK  Name = ZINC08791859
REMARK  12 active torsions:
REMARK  status: ('A' for Active; 'I' for Inactive)
REMARK    1  A    between atoms: C_1  and  C_2
REMARK    2  A    between atoms: C_2  and  C_3
REMARK    3  A    between atoms: C_3  and  C_4
REMARK    4  A    between atoms: C_11  and  O_21
REMARK    5  A    between atoms: C_17  and  C_19
REMARK    6  A    between atoms: C_17  and  C_20
REMARK    7  A    between atoms: O_21  and  C_22
REMARK    8  A    between atoms: C_22  and  C_23
REMARK    9  A    between atoms: N_25  and  C_26
REMARK   10  A    between atoms: C_26  and  C_27
REMARK   11  A    between atoms: C_27  and  C_28
REMARK   12  A    between atoms: C_28  and  N_29
REMARK                            x       y       z     vdW  Elec       q    Type
REMARK                         _______ _______ _______ _____ _____    ______ ____
ROOT
ATOM      1  C   UNL     1       1.032  -1.989  -1.241  0.00  0.00    -0.026 A 
ATOM      2  C   UNL     1       0.187  -2.780  -1.952  0.00  0.00    +0.096 A 
ATOM      3  C   UNL     1       0.305  -4.182  -1.874  0.00  0.00    +0.337 A 
ATOM      4  O   UNL     1      -0.457  -4.884  -2.514  0.00  0.00    -0.245 OA
ATOM      5  O   UNL     1       1.245  -4.757  -1.104  0.00  0.00    -0.422 OA
ATOM      6  C   UNL     1       2.103  -4.004  -0.379  0.00  0.00    +0.149 A 
ATOM      7  C   UNL     1       2.024  -2.602  -0.433  0.00  0.00    +0.063 A 
ATOM      8  C   UNL     1       2.923  -1.824   0.317  0.00  0.00    +0.136 A 
ATOM      9  C   UNL     1       3.876  -2.448   1.094  0.00  0.00    +0.092 A 
ATOM     10  C   UNL     1       3.953  -3.841   1.143  0.00  0.00    +0.131 A 
ATOM     11  C   UNL     1       3.063  -4.614   0.418  0.00  0.00    +0.038 A 
ATOM     12  C   UNL     1       3.115  -6.121   0.460  0.00  0.00    +0.046 C 
ATOM     13  C   UNL     1       4.466  -6.576   1.015  0.00  0.00    +0.052 C 
ATOM     14  C   UNL     1       4.756  -5.777   2.292  0.00  0.00    +0.105 C 
ATOM     15  O   UNL     1       4.915  -4.401   1.921  0.00  0.00    -0.486 OA
ATOM     16  C   UNL     1       6.049  -6.283   2.934  0.00  0.00    +0.055 C 
ATOM     17  C   UNL     1       3.594  -5.937   3.274  0.00  0.00    +0.055 C 
ENDROOT
BRANCH   1  18
ATOM     18  C   UNL     1       0.922  -0.487  -1.313  0.00  0.00    +0.036 C 
BRANCH  18  20
ATOM     19  C   UNL     1       1.717   1.554  -2.515  0.00  0.00    +0.004 C 
ATOM     20  C   UNL     1       1.927   0.049  -2.335  0.00  0.00    +0.001 C 
ENDBRANCH  18  20
ENDBRANCH   1  18
BRANCH   8  21
ATOM     21  O   UNL     1       2.854  -0.469   0.276  0.00  0.00    -0.482 OA
BRANCH  21  22
ATOM     22  C   UNL     1       3.758   0.252   1.115  0.00  0.00    +0.324 C 
BRANCH  22  23
ATOM     23  C   UNL     1       3.446   1.724   1.042  0.00  0.00    +0.251 C 
ATOM     24  O   UNL     1       2.473   2.108   0.428  0.00  0.00    -0.272 OA
ATOM     25  N   UNL     1       4.248   2.615   1.659  0.00  0.00    -0.312 N 
ATOM     26  H   UNL     1       5.026   2.308   2.150  0.00  0.00    +0.149 HD
BRANCH  25  27
ATOM     27  C   UNL     1       3.944   4.046   1.588  0.00  0.00    +0.106 C 
BRANCH  27  28
ATOM     28  C   UNL     1       5.002   4.832   2.365  0.00  0.00    +0.040 C 
BRANCH  28  29
ATOM     29  C   UNL     1       4.685   6.327   2.291  0.00  0.00    +0.124 C 
BRANCH  29  30
ATOM     30  N   UNL     1       5.698   7.079   3.036  0.00  0.00    -0.338 N 
ATOM     31  C   UNL     1       5.653   7.406   4.364  0.00  0.00    +0.104 A 
ATOM     32  C   UNL     1       6.779   8.093   4.634  0.00  0.00    +0.101 A 
ATOM     33  N   UNL     1       7.492   8.182   3.502  0.00  0.00    -0.352 N 
ATOM     34  C   UNL     1       6.853   7.572   2.541  0.00  0.00    +0.173 A 
ATOM     35  H   UNL     1       8.350   8.627   3.412  0.00  0.00    +0.166 HD
ENDBRANCH  29  30
ENDBRANCH  28  29
ENDBRANCH  27  28
ENDBRANCH  25  27
ENDBRANCH  22  23
ENDBRANCH  21  22
ENDBRANCH   8  21
TORSDOF 9
