REMARK  Name = ZINC03259357
REMARK  5 active torsions:
REMARK  status: ('A' for Active; 'I' for Inactive)
REMARK    1  A    between atoms: C_4  and  C_7
REMARK    2  A    between atoms: C_11  and  C_12
REMARK    3  A    between atoms: C_12  and  N_14
REMARK    4  A    between atoms: N_14  and  C_15
REMARK    5  A    between atoms: C_21  and  C_27
REMARK                            x       y       z     vdW  Elec       q    Type
REMARK                         _______ _______ _______ _____ _____    ______ ____
ROOT
ATOM      1  C   UNL     1       2.840   3.277   0.229  0.00  0.00    +0.015 A 
ATOM      2  C   UNL     1       1.685   3.898   0.656  0.00  0.00    +0.003 A 
ATOM      3  C   UNL     1       0.651   3.066   0.271  0.00  0.00    +0.123 A 
ATOM      4  N   UNL     1       1.089   1.910  -0.242  0.00  0.00    -0.298 N 
ATOM      5  C   UNL     1       2.462   2.049  -0.361  0.00  0.00    +0.084 A 
ATOM      6  C   UNL     1      -0.045   1.128  -0.369  0.00  0.00    +0.119 A 
ATOM      7  C   UNL     1      -1.132   1.847   0.017  0.00  0.00    +0.067 A 
ATOM      8  N   UNL     1      -0.709   3.112   0.356  0.00  0.00    -0.325 N 
ATOM      9  C   UNL     1      -1.433   4.375   0.603  0.00  0.00    +0.124 C 
ATOM     10  C   UNL     1      -0.688   5.448  -0.203  0.00  0.00    +0.022 C 
ATOM     11  C   UNL     1       0.534   6.086   0.472  0.00  0.00    +0.006 C 
ATOM     12  C   UNL     1       1.331   5.167   1.384  0.00  0.00    +0.039 C 
ENDROOT
BRANCH   7  13
ATOM     13  C   UNL     1      -2.527   1.355   0.067  0.00  0.00    +0.000 A 
ATOM     14  C   UNL     1      -3.497   2.069   0.771  0.00  0.00    +0.011 A 
ATOM     15  C   UNL     1      -4.797   1.608   0.809  0.00  0.00    +0.020 A 
ATOM     16  C   UNL     1      -5.137   0.433   0.161  0.00  0.00    +0.041 A 
ATOM     17  C   UNL     1      -4.177  -0.283  -0.535  0.00  0.00    +0.020 A 
ATOM     18  C   UNL     1      -2.875   0.171  -0.585  0.00  0.00    +0.011 A 
ATOM     19 CL   UNL     1      -6.773  -0.145   0.220  0.00  0.00    -0.084 Cl
ENDBRANCH   7  13
BRANCH   1  23
ATOM     20  C   UNL     1       6.799   4.774   0.618  0.00  0.00    +0.000 A 
ATOM     21  C   UNL     1       6.428   3.624   1.291  0.00  0.00    +0.001 A 
ATOM     22  C   UNL     1       5.144   3.133   1.169  0.00  0.00    +0.008 A 
ATOM     23  C   UNL     1       4.220   3.799   0.365  0.00  0.00    -0.015 A 
ATOM     24  C   UNL     1       4.601   4.955  -0.316  0.00  0.00    +0.008 A 
ATOM     25  C   UNL     1       5.886   5.439  -0.181  0.00  0.00    +0.001 A 
ENDBRANCH   1  23
BRANCH   5  26
ATOM     26  C   UNL     1       3.335   1.123  -0.968  0.00  0.00    +0.097 C 
ATOM     27  S   UNL     1       5.015   1.446  -1.033  0.00  0.00    -0.033 S 
BRANCH  26  28
ATOM     28  N   UNL     1       2.847  -0.017  -1.497  0.00  0.00    -0.334 N 
ATOM     29  H   UNL     1       1.895  -0.199  -1.460  0.00  0.00    +0.147 HD
BRANCH  28  30
ATOM     30  C   UNL     1       3.754  -0.979  -2.127  0.00  0.00    +0.071 C 
ATOM     31  C   UNL     1       3.946  -0.626  -3.617  0.00  0.00    +0.022 C 
ATOM     32  C   UNL     1       4.022  -2.001  -4.326  0.00  0.00    +0.002 C 
ATOM     33  C   UNL     1       2.979  -2.844  -3.551  0.00  0.00    +0.002 C 
ATOM     34  C   UNL     1       3.139  -2.389  -2.085  0.00  0.00    +0.022 C 
ENDBRANCH  28  30
ENDBRANCH  26  28
ENDBRANCH   5  26
TORSDOF 5
