REMARK  Name = ZINC63043344
REMARK  6 active torsions:
REMARK  status: ('A' for Active; 'I' for Inactive)
REMARK    1  A    between atoms: C_1  and  C_2
REMARK    2  A    between atoms: C_2  and  C_3
REMARK    3  A    between atoms: C_2  and  C_4
REMARK    4  A    between atoms: C_4  and  C_6
REMARK    5  A    between atoms: C_6  and  C_7
REMARK    6  A    between atoms: C_10  and  N_14
REMARK                            x       y       z     vdW  Elec       q    Type
REMARK                         _______ _______ _______ _____ _____    ______ ____
ROOT
ATOM      1  C   UNL     1      -2.822  -2.584  -0.109  0.00  0.00    -0.032 A 
ATOM      2  C   UNL     1      -3.527  -2.924   1.031  0.00  0.00    +0.007 A 
ATOM      3  C   UNL     1      -4.820  -3.401   0.927  0.00  0.00    +0.033 A 
ATOM      4  C   UNL     1      -5.409  -3.539  -0.316  0.00  0.00    +0.127 A 
ATOM      5  C   UNL     1      -4.705  -3.200  -1.456  0.00  0.00    +0.048 A 
ATOM      6  C   UNL     1      -3.413  -2.718  -1.352  0.00  0.00    +0.023 A 
ATOM      7 BR   UNL     1      -2.451  -2.247  -2.911  0.00  0.00    -0.050 Br
ENDROOT
BRANCH   4   8
ATOM      8  N   UNL     1      -6.793  -4.051  -0.426  0.00  0.00    +0.056 N 
ATOM      9  O   UNL     1      -7.410  -4.348   0.571  0.00  0.00    -0.126 OA
ATOM     10  O   UNL     1      -7.308  -4.172  -1.514  0.00  0.00    -0.126 OA
ENDBRANCH   4   8
BRANCH   1  11
ATOM     11  C   UNL     1      -1.413  -2.063   0.004  0.00  0.00    +0.055 C 
BRANCH  11  12
ATOM     12  C   UNL     1      -1.433  -0.534   0.013  0.00  0.00    +0.087 C 
ATOM     13 CL   UNL     1      -2.277   0.048   1.496  0.00  0.00    -0.121 Cl
BRANCH  12  15
ATOM     14  C   UNL     1      -0.019   1.526   0.010  0.00  0.00    +0.009 C 
ATOM     15  C   UNL     1       0.002  -0.004   0.002  0.00  0.00    +0.001 C 
ATOM     16  C   UNL     1       0.742  -0.511   1.242  0.00  0.00    +0.009 C 
ENDBRANCH  12  15
ENDBRANCH  11  12
ENDBRANCH   1  11
TORSDOF 4
