REMARK  Name = ZINC07885339
REMARK  6 active torsions:
REMARK  status: ('A' for Active; 'I' for Inactive)
REMARK    1  A    between atoms: C_1  and  C_2
REMARK    2  A    between atoms: C_2  and  C_3
REMARK    3  A    between atoms: C_3  and  C_5
REMARK    4  A    between atoms: C_3  and  N_6
REMARK    5  A    between atoms: C_7  and  C_18
REMARK    6  A    between atoms: C_22  and  C_24
REMARK                            x       y       z     vdW  Elec       q    Type
REMARK                         _______ _______ _______ _____ _____    ______ ____
ROOT
ATOM      1  N   UNL     1      -2.008  -0.015  -0.795  0.00  0.00    -0.272 N 
ATOM      2  C   UNL     1      -3.087   0.961  -0.947  0.00  0.00    +0.193 C 
ATOM      3  N   UNL     1      -3.885   0.656  -2.140  0.00  0.00    -0.321 N 
ATOM      4  C   UNL     1      -3.228   0.300  -3.312  0.00  0.00    +0.041 A 
ATOM      5  C   UNL     1      -3.772   0.560  -4.559  0.00  0.00    +0.024 A 
ATOM      6  C   UNL     1      -3.087   0.178  -5.697  0.00  0.00    +0.002 A 
ATOM      7  C   UNL     1      -1.861  -0.463  -5.599  0.00  0.00    +0.001 A 
ATOM      8  C   UNL     1      -1.304  -0.725  -4.365  0.00  0.00    +0.015 A 
ATOM      9  C   UNL     1      -1.982  -0.341  -3.210  0.00  0.00    +0.058 A 
ATOM     10  C   UNL     1      -1.414  -0.572  -1.869  0.00  0.00    +0.250 C 
ATOM     11  O   UNL     1      -0.421  -1.260  -1.733  0.00  0.00    -0.270 OA
ATOM     12  H   UNL     1      -4.854   0.701  -2.110  0.00  0.00    +0.148 HD
ENDROOT
BRANCH   2  13
ATOM     13  C   UNL     1      -2.495   2.340  -1.087  0.00  0.00    -0.009 A 
ATOM     14  C   UNL     1      -1.219   2.595  -0.621  0.00  0.00    +0.007 A 
ATOM     15  C   UNL     1      -0.677   3.860  -0.748  0.00  0.00    +0.001 A 
ATOM     16  C   UNL     1      -1.411   4.870  -1.343  0.00  0.00    +0.003 A 
ATOM     17  C   UNL     1      -2.686   4.615  -1.810  0.00  0.00    -0.050 A 
ATOM     18  C   UNL     1      -3.227   3.349  -1.685  0.00  0.00    +0.010 A 
ATOM     19  C   UNL     1      -3.486   5.716  -2.457  0.00  0.00    +0.044 C 
ENDBRANCH   2  13
BRANCH   1  20
ATOM     20  C   UNL     1      -1.562  -0.391   0.549  0.00  0.00    +0.075 C 
ATOM     21  C   UNL     1      -2.093   0.623   1.565  0.00  0.00    +0.028 C 
BRANCH  20  23
ATOM     22  C   UNL     1      -1.500  -2.809  -0.074  0.00  0.00    +0.006 C 
ATOM     23  C   UNL     1      -2.094  -1.783   0.893  0.00  0.00    +0.019 C 
ENDBRANCH  20  23
ENDBRANCH   1  20
TORSDOF 3
