REMARK  Name = ZINC39795747
REMARK  11 active torsions:
REMARK  status: ('A' for Active; 'I' for Inactive)
REMARK    1  A    between atoms: C_1  and  C_2
REMARK    2  A    between atoms: C_2  and  C_3
REMARK    3  A    between atoms: C_3  and  C_17
REMARK    4  A    between atoms: C_4  and  C_5
REMARK    5  A    between atoms: N_6  and  C_15
REMARK    6  A    between atoms: C_9  and  C_14
REMARK    7  A    between atoms: C_15  and  C_16
REMARK    8  A    between atoms: N_19  and  C_35
REMARK    9  A    between atoms: C_22  and  C_27
REMARK   10  A    between atoms: C_28  and  C_29
REMARK   11  A    between atoms: C_35  and  C_36
REMARK                            x       y       z     vdW  Elec       q    Type
REMARK                         _______ _______ _______ _____ _____    ______ ____
ROOT
ATOM      1  C   UNL     1      -0.032  -0.605  -2.432  0.00  0.00    +0.034 C 
ATOM      2  C   UNL     1      -1.359  -0.234  -2.460  0.00  0.00    +0.073 C 
ATOM      3  N   UNL     1      -2.269  -0.369  -3.480  0.00  0.00    -0.294 N 
ATOM      4  C   UNL     1      -3.571   0.072  -3.309  0.00  0.00    +0.049 A 
ATOM      5  C   UNL     1      -4.617   0.012  -4.241  0.00  0.00    +0.032 A 
ATOM      6  C   UNL     1      -5.880   0.499  -3.925  0.00  0.00    -0.023 A 
ATOM      7  C   UNL     1      -6.139   1.062  -2.670  0.00  0.00    +0.009 A 
ATOM      8  C   UNL     1      -5.119   1.128  -1.743  0.00  0.00    +0.017 A 
ATOM      9  C   UNL     1      -3.870   0.643  -2.062  0.00  0.00    +0.035 A 
ATOM     10  S   UNL     1      -2.332   0.536  -1.177  0.00  0.00    -0.072 S 
ENDROOT
BRANCH   1  11
ATOM     11  C   UNL     1       0.770  -0.255  -1.339  0.00  0.00    -0.043 C 
ATOM     12  C   UNL     1       1.338  -1.228  -0.571  0.00  0.00    +0.037 C 
BRANCH  12  13
ATOM     13  C   UNL     1       1.172  -2.588  -0.917  0.00  0.00    +0.081 A 
ATOM     14  N   UNL     1       1.715  -3.659  -0.360  0.00  0.00    -0.335 N 
ATOM     15  C   UNL     1       1.462  -4.907  -0.802  0.00  0.00    +0.057 A 
ATOM     16  C   UNL     1       1.972  -6.129  -0.302  0.00  0.00    +0.030 A 
ATOM     17  C   UNL     1       1.611  -7.322  -0.872  0.00  0.00    -0.048 A 
ATOM     18  C   UNL     1       0.740  -7.378  -1.950  0.00  0.00    +0.004 A 
ATOM     19  C   UNL     1       0.222  -6.202  -2.464  0.00  0.00    +0.017 A 
ATOM     20  C   UNL     1       0.577  -5.002  -1.901  0.00  0.00    +0.038 A 
ATOM     21  S   UNL     1       0.170  -3.301  -2.214  0.00  0.00    -0.070 S 
ATOM     22  C   UNL     1       2.174  -8.604  -0.314  0.00  0.00    +0.044 C 
BRANCH  14  23
ATOM     23  C   UNL     1       2.623  -3.482   0.776  0.00  0.00    +0.119 C 
ATOM     24  C   UNL     1       1.822  -3.515   2.079  0.00  0.00    +0.027 C 
ENDBRANCH  14  23
ENDBRANCH  12  13
BRANCH  11  26
ATOM     25  C   UNL     1       2.124   1.745  -1.900  0.00  0.00    +0.009 C 
ATOM     26  C   UNL     1       1.006   1.197  -1.011  0.00  0.00    +0.032 C 
ENDBRANCH  11  26
ENDBRANCH   1  11
BRANCH   6  27
ATOM     27  C   UNL     1      -6.959   0.422  -4.924  0.00  0.00    +0.008 C 
ATOM     28  C   UNL     1      -8.183   0.890  -4.628  0.00  0.00    +0.008 C 
BRANCH  28  29
ATOM     29  C   UNL     1      -9.263   0.813  -5.628  0.00  0.00    -0.025 A 
ATOM     30  C   UNL     1      -9.019   0.248  -6.883  0.00  0.00    +0.008 A 
ATOM     31  C   UNL     1     -10.035   0.179  -7.813  0.00  0.00    +0.001 A 
ATOM     32  C   UNL     1     -11.293   0.668  -7.507  0.00  0.00    +0.000 A 
ATOM     33  C   UNL     1     -11.542   1.228  -6.266  0.00  0.00    +0.001 A 
ATOM     34  C   UNL     1     -10.537   1.298  -5.323  0.00  0.00    +0.008 A 
ENDBRANCH  28  29
ENDBRANCH   6  27
BRANCH   3  35
ATOM     35  C   UNL     1      -1.863  -0.979  -4.748  0.00  0.00    +0.108 C 
ATOM     36  C   UNL     1      -2.095  -2.490  -4.685  0.00  0.00    +0.025 C 
ENDBRANCH   3  35
TORSDOF 7
