REMARK  Name = ZINC14457577
REMARK  9 active torsions:
REMARK  status: ('A' for Active; 'I' for Inactive)
REMARK    1  A    between atoms: C_1  and  C_2
REMARK    2  A    between atoms: C_4  and  C_37
REMARK    3  A    between atoms: C_5  and  C_9
REMARK    4  A    between atoms: C_6  and  C_8
REMARK    5  A    between atoms: C_20  and  S_25
REMARK    6  A    between atoms: S_25  and  N_28
REMARK    7  A    between atoms: N_28  and  C_29
REMARK    8  A    between atoms: C_32  and  O_35
REMARK    9  A    between atoms: O_35  and  C_36
REMARK                            x       y       z     vdW  Elec       q    Type
REMARK                         _______ _______ _______ _____ _____    ______ ____
ROOT
ATOM      1  C   UNL     1       4.933   2.502   3.714  0.00  0.00    +0.105 C 
ATOM      2  C   UNL     1       4.437   2.401   2.284  0.00  0.00    +0.029 C 
ATOM      3  C   UNL     1       3.302   1.357   2.162  0.00  0.00    +0.033 C 
ATOM      4  C   UNL     1       3.431   0.883   0.725  0.00  0.00    -0.030 C 
ATOM      5  C   UNL     1       4.637   1.118   0.272  0.00  0.00    -0.023 C 
ATOM      6  C   UNL     1       5.489   1.781   1.346  0.00  0.00    +0.049 C 
ATOM      7  C   UNL     1       6.289   0.698   2.019  0.00  0.00    -0.018 A 
ATOM      8  C   UNL     1       7.155  -0.055   1.237  0.00  0.00    +0.034 A 
ATOM      9  C   UNL     1       7.910  -1.063   1.802  0.00  0.00    +0.109 A 
ATOM     10  C   UNL     1       7.811  -1.335   3.154  0.00  0.00    +0.030 A 
ATOM     11  C   UNL     1       6.954  -0.592   3.941  0.00  0.00    +0.025 A 
ATOM     12  C   UNL     1       6.196   0.425   3.372  0.00  0.00    +0.031 A 
ATOM     13  N   UNL     1       5.339   1.174   4.187  0.00  0.00    -0.336 N 
ATOM     14  H   UNL     1       5.026   0.827   5.037  0.00  0.00    +0.147 HD
ENDROOT
BRANCH   1  19
ATOM     15  C   UNL     1       9.457   6.091   3.931  0.00  0.00    +0.044 C 
ATOM     16  C   UNL     1       8.277   5.155   3.875  0.00  0.00    -0.050 A 
ATOM     17  C   UNL     1       7.099   5.564   3.279  0.00  0.00    +0.007 A 
ATOM     18  C   UNL     1       6.017   4.706   3.227  0.00  0.00    -0.045 A 
ATOM     19  C   UNL     1       6.113   3.438   3.770  0.00  0.00    -0.021 A 
ATOM     20  C   UNL     1       7.290   3.031   4.370  0.00  0.00    -0.045 A 
ATOM     21  C   UNL     1       8.374   3.888   4.418  0.00  0.00    +0.007 A 
ATOM     22  C   UNL     1       7.393   1.651   4.968  0.00  0.00    +0.044 C 
ATOM     23  C   UNL     1       4.732   5.151   2.578  0.00  0.00    +0.044 C 
ENDBRANCH   1  19
BRANCH   9  24
ATOM     24  S   UNL     1       9.005  -2.007   0.794  0.00  0.00    +0.072 S 
ATOM     25  O   UNL     1       9.274  -3.209   1.503  0.00  0.00    -0.150 OA
ATOM     26  O   UNL     1       8.457  -2.002  -0.517  0.00  0.00    -0.150 OA
BRANCH  24  27
ATOM     27  N   UNL     1      10.435  -1.176   0.713  0.00  0.00    -0.216 N 
ATOM     28  H   UNL     1      11.243  -1.562   1.087  0.00  0.00    +0.174 HD
BRANCH  27  29
ATOM     29  C   UNL     1      10.479   0.084   0.106  0.00  0.00    +0.048 A 
ATOM     30  C   UNL     1      10.414   0.192  -1.277  0.00  0.00    +0.028 A 
ATOM     31  C   UNL     1      10.452   1.436  -1.875  0.00  0.00    +0.047 A 
ATOM     32  C   UNL     1      10.565   2.577  -1.095  0.00  0.00    +0.120 A 
ATOM     33  C   UNL     1      10.635   2.471   0.286  0.00  0.00    +0.047 A 
ATOM     34  C   UNL     1      10.592   1.228   0.886  0.00  0.00    +0.028 A 
BRANCH  32  35
ATOM     35  O   UNL     1      10.607   3.802  -1.685  0.00  0.00    -0.495 OA
ATOM     36  C   UNL     1      10.530   3.838  -3.112  0.00  0.00    +0.277 C 
ENDBRANCH  32  35
ENDBRANCH  27  29
ENDBRANCH  24  27
ENDBRANCH   9  24
TORSDOF 5
