REMARK  Name = ZINC67391832
REMARK  6 active torsions:
REMARK  status: ('A' for Active; 'I' for Inactive)
REMARK    1  A    between atoms: C_3  and  C_8
REMARK    2  A    between atoms: N_17  and  C_18
REMARK    3  A    between atoms: C_18  and  C_19
REMARK    4  A    between atoms: C_19  and  N_20
REMARK    5  A    between atoms: N_20  and  C_21
REMARK    6  A    between atoms: C_26  and  C_27
REMARK                            x       y       z     vdW  Elec       q    Type
REMARK                         _______ _______ _______ _____ _____    ______ ____
ROOT
ATOM      1  C   UNL     1       3.669   2.183  -0.017  0.00  0.00    +0.166 C 
ATOM      2  C   UNL     1       4.256   2.220   1.399  0.00  0.00    +0.145 C 
ATOM      3  N   UNL     1       5.599   2.817   1.329  0.00  0.00    -0.281 N 
ATOM      4  C   UNL     1       6.545   2.277   0.338  0.00  0.00    +0.137 C 
ATOM      5  C   UNL     1       5.846   2.237  -1.026  0.00  0.00    +0.179 C 
ATOM      6  O   UNL     1       4.600   1.549  -0.897  0.00  0.00    -0.369 OA
ATOM      7  C   UNL     1       5.954   3.828   2.147  0.00  0.00    +0.302 C 
ATOM      8  O   UNL     1       5.131   4.324   2.892  0.00  0.00    -0.253 OA
ATOM      9  N   UNL     1       7.220   4.289   2.139  0.00  0.00    -0.298 N 
ATOM     10  H   UNL     1       7.858   3.943   1.495  0.00  0.00    +0.150 HD
ENDROOT
BRANCH   1  13
ATOM     11  C   UNL     1      -0.017   1.367   0.024  0.00  0.00    +0.003 A 
ATOM     12  C   UNL     1       1.169   2.078   0.014  0.00  0.00    +0.006 A 
ATOM     13  C   UNL     1       2.377   1.407  -0.006  0.00  0.00    -0.015 A 
ATOM     14  C   UNL     1       2.401   0.025  -0.016  0.00  0.00    +0.044 A 
ATOM     15  C   UNL     1       1.215  -0.687  -0.006  0.00  0.00    +0.124 A 
ATOM     16  C   UNL     1       0.004  -0.015   0.014  0.00  0.00    +0.038 A 
ATOM     17  F   UNL     1       1.237  -2.038  -0.016  0.00  0.00    -0.205 F 
ENDBRANCH   1  13
BRANCH   9  18
ATOM     18  C   UNL     1       7.633   5.312   3.103  0.00  0.00    +0.124 C 
BRANCH  18  19
ATOM     19  C   UNL     1       9.107   5.656   2.881  0.00  0.00    +0.120 C 
BRANCH  19  20
ATOM     20  N   UNL     1       9.520   6.679   3.845  0.00  0.00    -0.341 N 
ATOM     21  H   UNL     1       8.882   7.024   4.489  0.00  0.00    +0.146 HD
BRANCH  20  22
ATOM     22  C   UNL     1      10.826   7.155   3.837  0.00  0.00    +0.048 A 
ATOM     23  C   UNL     1      11.741   6.667   2.913  0.00  0.00    +0.024 A 
ATOM     24  C   UNL     1      13.038   7.140   2.905  0.00  0.00    +0.005 A 
ATOM     25  C   UNL     1      13.439   8.103   3.816  0.00  0.00    +0.040 A 
ATOM     26  C   UNL     1      12.545   8.601   4.743  0.00  0.00    +0.142 A 
ATOM     27  C   UNL     1      11.226   8.135   4.759  0.00  0.00    +0.108 A 
ATOM     28  F   UNL     1      12.942   9.541   5.629  0.00  0.00    -0.204 F 
BRANCH  27  29
ATOM     29  C   UNL     1      10.291   8.651   5.713  0.00  0.00    +0.104 C 
ATOM     30  N   UNL     1       9.549   9.060   6.470  0.00  0.00    -0.191 NA
ENDBRANCH  27  29
ENDBRANCH  20  22
ENDBRANCH  19  20
ENDBRANCH  18  19
ENDBRANCH   9  18
TORSDOF 6
