REMARK  Name = ZINC20059127
REMARK  9 active torsions:
REMARK  status: ('A' for Active; 'I' for Inactive)
REMARK    1  A    between atoms: C_1  and  C_2
REMARK    2  A    between atoms: C_9  and  C_11
REMARK    3  A    between atoms: C_12  and  C_35
REMARK    4  A    between atoms: C_16  and  C_18
REMARK    5  A    between atoms: C_21  and  O_26
REMARK    6  A    between atoms: C_23  and  O_24
REMARK    7  A    between atoms: O_24  and  C_25
REMARK    8  A    between atoms: O_26  and  C_27
REMARK    9  A    between atoms: C_31  and  C_34
REMARK                            x       y       z     vdW  Elec       q    Type
REMARK                         _______ _______ _______ _____ _____    ______ ____
ROOT
ATOM      1  C   UNL     1      -0.417   4.626  -0.470  0.00  0.00    +0.043 C 
ATOM      2  C   UNL     1      -1.307   3.627  -0.345  0.00  0.00    +0.014 C 
ATOM      3  N   UNL     1      -0.910   2.398   0.104  0.00  0.00    -0.321 N 
ATOM      4  C   UNL     1       0.408   2.031   0.065  0.00  0.00    +0.016 C 
ATOM      5  C   UNL     1       1.376   2.965  -0.051  0.00  0.00    +0.024 C 
ATOM      6  C   UNL     1       1.027   4.431  -0.115  0.00  0.00    +0.094 C 
ATOM      7  C   UNL     1       2.732   2.601  -0.112  0.00  0.00    +0.162 C 
ATOM      8  O   UNL     1       3.579   3.467  -0.205  0.00  0.00    -0.292 OA
ATOM      9  C   UNL     1       3.154   1.158  -0.065  0.00  0.00    +0.083 C 
ATOM     10  C   UNL     1       2.031   0.290  -0.643  0.00  0.00    -0.001 C 
ATOM     11  C   UNL     1       0.750   0.564   0.148  0.00  0.00    +0.055 C 
ATOM     12  C   UNL     1       2.404  -1.189  -0.521  0.00  0.00    +0.008 C 
ATOM     13  C   UNL     1      -2.751   3.862  -0.704  0.00  0.00    +0.061 C 
ATOM     14  H   UNL     1      -1.654   1.692   0.501  0.00  0.00    +0.152 HD
ENDROOT
BRANCH   1  23
ATOM     15  C   UNL     1      -1.915  11.996  -2.468  0.00  0.00    +0.045 C 
ATOM     16  C   UNL     1      -1.366  10.653  -2.060  0.00  0.00    -0.032 A 
ATOM     17  C   UNL     1      -0.049  10.531  -1.640  0.00  0.00    +0.008 A 
ATOM     18  C   UNL     1       0.414   9.281  -1.270  0.00  0.00    +0.044 A 
ATOM     19  C   UNL     1      -0.449   8.193  -1.341  0.00  0.00    +0.125 A 
ATOM     20  N   UNL     1      -1.699   8.349  -1.748  0.00  0.00    -0.240 NA
ATOM     21  C   UNL     1      -2.169   9.530  -2.101  0.00  0.00    +0.116 A 
ATOM     22  N   UNL     1       0.005   6.927  -0.977  0.00  0.00    -0.267 N 
ATOM     23  C   UNL     1      -0.852   5.887  -0.946  0.00  0.00    +0.248 C 
ATOM     24  O   UNL     1      -1.999   6.032  -1.327  0.00  0.00    -0.270 OA
ATOM     25  H   UNL     1       1.063   6.777  -0.715  0.00  0.00    +0.157 HD
ENDBRANCH   1  23
BRANCH   6  26
ATOM     26  C   UNL     1       1.296   5.062   1.227  0.00  0.00    +0.007 A 
ATOM     27  C   UNL     1       0.629   4.609   2.350  0.00  0.00    +0.012 A 
ATOM     28  C   UNL     1       0.877   5.183   3.582  0.00  0.00    +0.046 A 
ATOM     29  C   UNL     1       1.789   6.223   3.693  0.00  0.00    +0.124 A 
ATOM     30  C   UNL     1       2.456   6.683   2.568  0.00  0.00    +0.091 A 
ATOM     31  C   UNL     1       2.209   6.102   1.334  0.00  0.00    +0.128 A 
BRANCH  31  32
ATOM     32  O   UNL     1       2.860   6.551   0.229  0.00  0.00    -0.495 OA
ATOM     33  C   UNL     1       3.786   7.624   0.412  0.00  0.00    +0.277 C 
ENDBRANCH  31  32
BRANCH  29  34
ATOM     34  O   UNL     1       2.029   6.790   4.905  0.00  0.00    -0.495 OA
ATOM     35  C   UNL     1       1.307   6.266   6.021  0.00  0.00    +0.277 C 
ENDBRANCH  29  34
ENDBRANCH   6  26
TORSDOF 4
