REMARK  Name = ZINC43730787
REMARK  5 active torsions:
REMARK  status: ('A' for Active; 'I' for Inactive)
REMARK    1  A    between atoms: C_1  and  N_2
REMARK    2  A    between atoms: C_4  and  C_27
REMARK    3  A    between atoms: C_6  and  C_19
REMARK    4  A    between atoms: C_19  and  C_21
REMARK    5  A    between atoms: C_31  and  N_33
REMARK                            x       y       z     vdW  Elec       q    Type
REMARK                         _______ _______ _______ _____ _____    ______ ____
ROOT
ATOM      1  C   UNL     1       1.177   1.292   1.306  0.00  0.00    +0.106 C 
ATOM      2  N   UNL     1       0.760   0.020   0.701  0.00  0.00    -0.287 NA
ATOM      3  C   UNL     1      -0.696   0.013   0.432  0.00  0.00    +0.094 C 
ATOM      4  C   UNL     1      -1.133  -1.456   0.660  0.00  0.00    +0.046 C 
ATOM      5  C   UNL     1      -0.236  -1.871   1.857  0.00  0.00    +0.103 C 
ATOM      6  C   UNL     1       1.071  -1.110   1.584  0.00  0.00    +0.136 C 
ATOM      7  C   UNL     1       1.698  -0.645   2.871  0.00  0.00    +0.005 A 
ATOM      8  C   UNL     1       1.277   0.195   3.877  0.00  0.00    +0.027 A 
ATOM      9  C   UNL     1       2.097   0.436   4.966  0.00  0.00    +0.041 A 
ATOM     10  C   UNL     1       3.339  -0.170   5.040  0.00  0.00    +0.022 A 
ATOM     11  C   UNL     1       3.764  -1.012   4.033  0.00  0.00    +0.025 A 
ATOM     12  C   UNL     1       2.945  -1.258   2.933  0.00  0.00    +0.039 A 
ATOM     13  N   UNL     1       3.148  -2.055   1.804  0.00  0.00    -0.283 N 
ATOM     14  C   UNL     1       2.098  -2.022   0.963  0.00  0.00    +0.243 C 
ATOM     15  O   UNL     1       1.997  -2.613  -0.091  0.00  0.00    -0.273 OA
ATOM     16 CL   UNL     1       1.569   1.495   6.236  0.00  0.00    -0.084 Cl
ATOM     17  H   UNL     1       3.953  -2.572   1.645  0.00  0.00    +0.155 HD
ENDROOT
BRANCH   4  18
ATOM     18  C   UNL     1      -2.593  -1.534   1.026  0.00  0.00    -0.040 A 
ATOM     19  C   UNL     1      -3.254  -0.407   1.476  0.00  0.00    +0.004 A 
ATOM     20  C   UNL     1      -4.593  -0.478   1.812  0.00  0.00    +0.002 A 
ATOM     21  C   UNL     1      -5.271  -1.677   1.697  0.00  0.00    +0.033 A 
ATOM     22  C   UNL     1      -4.611  -2.804   1.246  0.00  0.00    +0.126 A 
ATOM     23  C   UNL     1      -3.273  -2.732   0.906  0.00  0.00    +0.036 A 
BRANCH  22  24
ATOM     24  N   UNL     1      -5.337  -4.088   1.123  0.00  0.00    +0.056 N 
ATOM     25  O   UNL     1      -6.508  -4.151   1.418  0.00  0.00    -0.126 OA
ATOM     26  O   UNL     1      -4.760  -5.074   0.728  0.00  0.00    -0.126 OA
ENDBRANCH  22  24
ENDBRANCH   4  18
BRANCH   5  27
ATOM     27  C   UNL     1      -0.851  -1.433   3.162  0.00  0.00    +0.169 C 
ATOM     28  O   UNL     1      -1.439  -0.374   3.229  0.00  0.00    -0.292 OA
BRANCH  27  29
ATOM     29  C   UNL     1      -0.737  -2.289   4.353  0.00  0.00    +0.018 A 
ATOM     30  C   UNL     1      -0.054  -3.507   4.281  0.00  0.00    +0.011 A 
ATOM     31  C   UNL     1       0.048  -4.304   5.402  0.00  0.00    +0.001 A 
ATOM     32  C   UNL     1      -0.522  -3.900   6.596  0.00  0.00    +0.000 A 
ATOM     33  C   UNL     1      -1.200  -2.696   6.676  0.00  0.00    +0.001 A 
ATOM     34  C   UNL     1      -1.306  -1.885   5.566  0.00  0.00    +0.011 A 
ENDBRANCH  27  29
ENDBRANCH   5  27
TORSDOF 4
