REMARK  Name = ZINC51185931
REMARK  4 active torsions:
REMARK  status: ('A' for Active; 'I' for Inactive)
REMARK    1  A    between atoms: C_4  and  C_7
REMARK    2  A    between atoms: C_17  and  C_19
REMARK    3  A    between atoms: C_19  and  N_20
REMARK    4  A    between atoms: C_23  and  C_26
REMARK                            x       y       z     vdW  Elec       q    Type
REMARK                         _______ _______ _______ _____ _____    ______ ____
ROOT
ATOM      1  C   UNL     1       3.711  -0.707  -0.038  0.00  0.00    +0.137 C 
ATOM      2  C   UNL     1       3.957  -1.294  -1.426  0.00  0.00    -0.012 A 
ATOM      3  C   UNL     1       4.311  -0.521  -2.530  0.00  0.00    +0.013 A 
ATOM      4  C   UNL     1       4.510  -1.109  -3.733  0.00  0.00    +0.046 A 
ATOM      5  S   UNL     1       4.199  -2.828  -3.357  0.00  0.00    -0.101 S 
ATOM      6  C   UNL     1       3.833  -2.634  -1.633  0.00  0.00    -0.003 A 
ATOM      7  C   UNL     1       3.476  -3.687  -0.635  0.00  0.00    +0.062 C 
ATOM      8  C   UNL     1       2.866  -3.009   0.601  0.00  0.00    +0.114 C 
ATOM      9  N   UNL     1       3.672  -1.820   0.921  0.00  0.00    -0.292 N 
ATOM     10  C   UNL     1       4.364  -1.752   2.075  0.00  0.00    +0.200 C 
ATOM     11  O   UNL     1       5.026  -0.768   2.329  0.00  0.00    -0.278 OA
ENDROOT
BRANCH   1  15
ATOM     12  C   UNL     1      -0.016   1.379   0.010  0.00  0.00    +0.000 A 
ATOM     13  C   UNL     1       1.141   2.022   0.408  0.00  0.00    +0.000 A 
ATOM     14  C   UNL     1       2.347   1.347   0.393  0.00  0.00    +0.006 A 
ATOM     15  C   UNL     1       2.396   0.029  -0.020  0.00  0.00    -0.023 A 
ATOM     16  C   UNL     1       1.239  -0.615  -0.418  0.00  0.00    +0.006 A 
ATOM     17  C   UNL     1       0.033   0.061  -0.404  0.00  0.00    +0.000 A 
ENDBRANCH   1  15
BRANCH  10  18
ATOM     18  C   UNL     1       4.316  -2.900   3.051  0.00  0.00    +0.019 C 
BRANCH  18  19
ATOM     19  N   UNL     1       5.148  -2.583   4.220  0.00  0.00    +0.385 N 
ATOM     20  C   UNL     1       4.574  -1.434   4.931  0.00  0.00    -0.077 C 
ATOM     21  C   UNL     1       5.480  -1.050   6.102  0.00  0.00    -0.006 C 
ATOM     22  C   UNL     1       5.597  -2.238   7.061  0.00  0.00    +0.071 C 
ATOM     23  C   UNL     1       6.127  -3.452   6.292  0.00  0.00    -0.006 C 
ATOM     24  C   UNL     1       5.197  -3.747   5.113  0.00  0.00    -0.077 C 
ATOM     25  H   UNL     1       6.082  -2.355   3.915  0.00  0.00    -0.081 HD
BRANCH  22  26
ATOM     26  C   UNL     1       6.550  -1.894   8.176  0.00  0.00    +0.213 C 
ATOM     27  O   UNL     1       7.084  -0.805   8.203  0.00  0.00    -0.276 OA
ATOM     28  N   UNL     1       6.809  -2.795   9.144  0.00  0.00    -0.329 N 
ATOM     29  H   UNL     1       6.382  -3.666   9.123  0.00  0.00    +0.145 HD
ATOM     30  H   UNL     1       7.423  -2.574   9.862  0.00  0.00    +0.145 HD
ENDBRANCH  22  26
ENDBRANCH  18  19
ENDBRANCH  10  18
TORSDOF 4
