REMARK  Name = ZINC66907807
REMARK  7 active torsions:
REMARK  status: ('A' for Active; 'I' for Inactive)
REMARK    1  A    between atoms: C_5  and  C_7
REMARK    2  A    between atoms: C_7  and  C_8
REMARK    3  A    between atoms: N_10  and  N_11
REMARK    4  A    between atoms: N_14  and  C_15
REMARK    5  A    between atoms: C_15  and  C_16
REMARK    6  A    between atoms: C_16  and  C_18
REMARK    7  A    between atoms: C_16  and  N_23
REMARK                            x       y       z     vdW  Elec       q    Type
REMARK                         _______ _______ _______ _____ _____    ______ ____
ROOT
ATOM      1  N   UNL     1       1.439  -4.497   2.956  0.00  0.00    -0.218 N 
ATOM      2  C   UNL     1       1.359  -5.821   3.196  0.00  0.00    +0.316 C 
ATOM      3  O   UNL     1       1.227  -6.226   4.334  0.00  0.00    -0.251 OA
ATOM      4  N   UNL     1       1.425  -6.696   2.172  0.00  0.00    -0.299 N 
ATOM      5  H   UNL     1       1.392  -3.867   3.692  0.00  0.00    +0.174 HD
ATOM      6  H   UNL     1       1.531  -6.372   1.264  0.00  0.00    +0.150 HD
ENDROOT
BRANCH   1   9
ATOM      7  C   UNL     1       1.672  -2.706   1.405  0.00  0.00    +0.234 C 
ATOM      8  O   UNL     1       1.612  -1.919   2.325  0.00  0.00    -0.274 OA
ATOM      9  N   UNL     1       1.591  -4.030   1.644  0.00  0.00    -0.233 N 
ATOM     10  H   UNL     1       1.639  -4.660   0.908  0.00  0.00    +0.173 HD
BRANCH   7  11
ATOM     11  C   UNL     1       1.835  -2.204  -0.007  0.00  0.00    +0.135 C 
BRANCH  11  16
ATOM     12  C   UNL     1       0.810   1.424  -0.215  0.00  0.00    +0.000 A 
ATOM     13  C   UNL     1       2.014   2.066   0.011  0.00  0.00    +0.003 A 
ATOM     14  C   UNL     1       3.160   1.327   0.232  0.00  0.00    +0.038 A 
ATOM     15  C   UNL     1       3.104  -0.057   0.227  0.00  0.00    +0.127 A 
ATOM     16  C   UNL     1       1.898  -0.698  -0.000  0.00  0.00    -0.003 A 
ATOM     17  C   UNL     1       0.752   0.043  -0.221  0.00  0.00    +0.007 A 
ATOM     18  F   UNL     1       4.224  -0.780   0.442  0.00  0.00    -0.205 F 
ENDBRANCH  11  16
ENDBRANCH   7  11
ENDBRANCH   1   9
BRANCH   4  19
ATOM     19  C   UNL     1       1.338  -8.135   2.433  0.00  0.00    +0.098 C 
BRANCH  19  20
ATOM     20  C   UNL     1       1.304  -8.892   1.103  0.00  0.00    +0.016 C 
BRANCH  20  21
ATOM     21  N   UNL     1       1.350 -10.337   1.362  0.00  0.00    +0.387 N 
ATOM     22  C   UNL     1       1.324 -11.088   0.081  0.00  0.00    -0.078 C 
ATOM     23  C   UNL     1       1.930 -12.462   0.463  0.00  0.00    -0.020 C 
ATOM     24  C   UNL     1       3.034 -12.083   1.477  0.00  0.00    -0.020 C 
ATOM     25  C   UNL     1       2.626 -10.699   2.016  0.00  0.00    -0.078 C 
ATOM     26  H   UNL     1       0.572 -10.612   1.943  0.00  0.00    -0.081 HD
ENDBRANCH  20  21
BRANCH  20  27
ATOM     27  C   UNL     1       0.035  -8.553   0.364  0.00  0.00    +0.093 A 
ATOM     28  C   UNL     1      -0.075  -7.674  -0.647  0.00  0.00    +0.043 A 
ATOM     29  C   UNL     1      -1.433  -7.669  -1.040  0.00  0.00    +0.041 A 
ATOM     30  C   UNL     1      -2.072  -8.546  -0.244  0.00  0.00    +0.195 A 
ATOM     31  O   UNL     1      -1.176  -9.083   0.601  0.00  0.00    -0.469 OA
ENDBRANCH  20  27
ENDBRANCH  19  20
ENDBRANCH   4  19
TORSDOF 7
