REMARK  Name = ZINC23862183
REMARK  3 active torsions:
REMARK  status: ('A' for Active; 'I' for Inactive)
REMARK    1  A    between atoms: C_5  and  S_7
REMARK    2  A    between atoms: S_7  and  O_10
REMARK    3  A    between atoms: O_10  and  C_11
REMARK                            x       y       z     vdW  Elec       q    Type
REMARK                         _______ _______ _______ _____ _____    ______ ____
ROOT
ATOM      1  O   UNL     1      -0.082  -2.849   0.627  0.00  0.00    -0.342 OA
ENDROOT
BRANCH   1   2
ATOM      2  C   UNL     1      -1.161  -2.736  -0.190  0.00  0.00    +0.160 A 
ATOM      3  C   UNL     1      -1.810  -1.509  -0.312  0.00  0.00    +0.049 A 
ATOM      4  C   UNL     1      -2.896  -1.380  -1.129  0.00  0.00    +0.015 A 
ATOM      5  C   UNL     1      -3.360  -2.487  -1.849  0.00  0.00    +0.018 A 
ATOM      6  C   UNL     1      -4.522  -2.377  -2.733  0.00  0.00    +0.018 A 
ATOM      7  C   UNL     1      -4.924  -3.487  -3.405  0.00  0.00    +0.092 A 
ATOM      8  C   UNL     1      -4.224  -4.700  -3.238  0.00  0.00    +0.337 A 
ATOM      9  O   UNL     1      -4.594  -5.688  -3.847  0.00  0.00    -0.245 OA
ATOM     10  O   UNL     1      -3.159  -4.793  -2.427  0.00  0.00    -0.422 OA
ATOM     11  C   UNL     1      -2.708  -3.728  -1.730  0.00  0.00    +0.143 A 
ATOM     12  C   UNL     1      -1.603  -3.841  -0.899  0.00  0.00    +0.095 A 
ENDBRANCH   1   2
BRANCH   1  13
ATOM     13  S   UNL     1       1.231  -2.434  -0.021  0.00  0.00    +0.152 S 
ATOM     14  O   UNL     1       2.201  -2.393   1.016  0.00  0.00    -0.131 OA
ATOM     15  O   UNL     1       0.943  -1.309  -0.840  0.00  0.00    -0.131 OA
BRANCH  13  20
ATOM     16  C   UNL     1       1.677  -6.055  -1.706  0.00  0.00    +0.002 A 
ATOM     17  C   UNL     1       2.463  -5.782  -2.810  0.00  0.00    +0.001 A 
ATOM     18  C   UNL     1       2.873  -4.487  -3.063  0.00  0.00    +0.017 A 
ATOM     19  C   UNL     1       2.497  -3.463  -2.211  0.00  0.00    +0.046 A 
ATOM     20  C   UNL     1       1.710  -3.737  -1.107  0.00  0.00    +0.142 A 
ATOM     21  C   UNL     1       1.301  -5.033  -0.855  0.00  0.00    +0.031 A 
ATOM     22 BR   UNL     1       3.058  -1.691  -2.556  0.00  0.00    -0.048 Br
ENDBRANCH  13  20
ENDBRANCH   1  13
TORSDOF 3
