REMARK  Name = ZINC12577968
REMARK  7 active torsions:
REMARK  status: ('A' for Active; 'I' for Inactive)
REMARK    1  A    between atoms: C_1  and  O_2
REMARK    2  A    between atoms: O_2  and  C_3
REMARK    3  A    between atoms: C_5  and  C_13
REMARK    4  A    between atoms: C_19  and  C_22
REMARK    5  A    between atoms: C_22  and  N_23
REMARK    6  A    between atoms: N_23  and  S_24
REMARK    7  A    between atoms: S_24  and  C_27
REMARK                            x       y       z     vdW  Elec       q    Type
REMARK                         _______ _______ _______ _____ _____    ______ ____
ROOT
ATOM      1  C   UNL     1       6.139   3.951   1.170  0.00  0.00    +0.247 C 
ATOM      2  O   UNL     1       5.393   4.076   2.121  0.00  0.00    -0.270 OA
ATOM      3  N   UNL     1       5.764   3.205   0.112  0.00  0.00    -0.297 N 
ATOM      4  C   UNL     1       6.599   3.148  -1.096  0.00  0.00    +0.108 C 
ATOM      5  C   UNL     1       5.736   3.510  -2.309  0.00  0.00    +0.019 C 
ATOM      6  C   UNL     1       4.508   2.597  -2.348  0.00  0.00    +0.008 C 
ATOM      7  C   UNL     1       3.674   2.805  -1.082  0.00  0.00    +0.022 C 
ATOM      8  C   UNL     1       4.513   2.436   0.145  0.00  0.00    +0.113 C 
ENDROOT
BRANCH   1  11
ATOM      9  C   UNL     1       9.857   4.578   0.962  0.00  0.00    +0.216 A 
ATOM     10  C   UNL     1       8.629   3.906   0.950  0.00  0.00    +0.081 A 
ATOM     11  C   UNL     1       7.460   4.618   1.174  0.00  0.00    +0.051 A 
ATOM     12  C   UNL     1       7.585   6.057   1.409  0.00  0.00    +0.013 A 
ATOM     13  C   UNL     1       6.465   6.860   1.651  0.00  0.00    +0.011 A 
ATOM     14  C   UNL     1       6.628   8.195   1.871  0.00  0.00    +0.001 A 
ATOM     15  C   UNL     1       7.897   8.769   1.864  0.00  0.00    +0.002 A 
ATOM     16  C   UNL     1       9.008   8.015   1.637  0.00  0.00    +0.028 A 
ATOM     17  C   UNL     1       8.878   6.635   1.406  0.00  0.00    +0.076 A 
ATOM     18  N   UNL     1       9.950   5.869   1.180  0.00  0.00    -0.213 NA
BRANCH   9  20
ATOM     19  C   UNL     1      12.223   4.594   0.762  0.00  0.00    +0.279 C 
ATOM     20  O   UNL     1      10.992   3.870   0.741  0.00  0.00    -0.480 OA
ENDBRANCH   9  20
ENDBRANCH   1  11
BRANCH   7  21
ATOM     21  C   UNL     1       2.431   1.916  -1.137  0.00  0.00    +0.111 C 
BRANCH  21  22
ATOM     22  N   UNL     1       1.574   2.202   0.016  0.00  0.00    -0.189 NA
ATOM     23  H   UNL     1       1.927   2.700   0.770  0.00  0.00    +0.148 HD
BRANCH  22  24
ATOM     24  S   UNL     1       0.005   1.674   0.033  0.00  0.00    +0.065 S 
ATOM     25  O   UNL     1      -0.565   2.054  -1.212  0.00  0.00    -0.153 OA
ATOM     26  O   UNL     1      -0.546   2.078   1.279  0.00  0.00    -0.153 OA
BRANCH  24  27
ATOM     27  C   UNL     1       0.048  -0.088   0.050  0.00  0.00    +0.142 A 
ATOM     28  C   UNL     1       0.077  -0.931   1.111  0.00  0.00    +0.036 A 
ATOM     29  C   UNL     1       0.107  -2.294   0.883  0.00  0.00    +0.010 A 
ATOM     30  C   UNL     1       0.108  -2.747  -0.394  0.00  0.00    +0.047 A 
ATOM     31  S   UNL     1       0.057  -1.225  -1.326  0.00  0.00    -0.077 S 
ENDBRANCH  24  27
ENDBRANCH  22  24
ENDBRANCH  21  22
ENDBRANCH   7  21
TORSDOF 6
