REMARK  Name = ZINC45621548
REMARK  7 active torsions:
REMARK  status: ('A' for Active; 'I' for Inactive)
REMARK    1  A    between atoms: C_1  and  C_2
REMARK    2  A    between atoms: C_2  and  C_3
REMARK    3  A    between atoms: C_2  and  C_4
REMARK    4  A    between atoms: C_4  and  C_6
REMARK    5  A    between atoms: C_4  and  N_18
REMARK    6  A    between atoms: N_8  and  C_9
REMARK    7  A    between atoms: C_12  and  N_16
REMARK                            x       y       z     vdW  Elec       q    Type
REMARK                         _______ _______ _______ _____ _____    ______ ____
ROOT
ATOM      1  C   UNL     1      -0.979  -0.309  -0.256  0.00  0.00    +0.161 C 
ENDROOT
BRANCH   1   2
ATOM      2  N   UNL     1      -1.377  -0.167  -1.658  0.00  0.00    -0.316 N 
ATOM      3  C   UNL     1      -0.841  -1.001  -2.615  0.00  0.00    +0.150 C 
ATOM      4  N   UNL     1       0.012  -1.917  -2.281  0.00  0.00    -0.113 NA
ATOM      5  S   UNL     1       0.417  -2.703  -3.701  0.00  0.00    +0.101 S 
ATOM      6  O   UNL     1       1.778  -2.408  -3.987  0.00  0.00    -0.146 OA
ATOM      7  O   UNL     1      -0.099  -4.025  -3.627  0.00  0.00    -0.146 OA
ATOM      8  C   UNL     1      -0.584  -1.796  -4.848  0.00  0.00    +0.123 A 
ATOM      9  C   UNL     1      -1.235  -0.866  -4.026  0.00  0.00    +0.043 A 
ATOM     10  C   UNL     1      -2.128   0.025  -4.640  0.00  0.00    +0.013 A 
ATOM     11  C   UNL     1      -2.344  -0.034  -5.999  0.00  0.00    +0.001 A 
ATOM     12  C   UNL     1      -1.689  -0.966  -6.784  0.00  0.00    +0.002 A 
ATOM     13  C   UNL     1      -0.795  -1.849  -6.194  0.00  0.00    +0.030 A 
ATOM     14  H   UNL     1      -2.019   0.515  -1.914  0.00  0.00    +0.148 HD
ENDBRANCH   1   2
BRANCH   1  15
ATOM     15  C   UNL     1      -2.072   0.226   0.633  0.00  0.00    +0.238 C 
ATOM     16  O   UNL     1      -2.828   1.079   0.219  0.00  0.00    -0.273 OA
ATOM     17  N   UNL     1      -2.209  -0.244   1.889  0.00  0.00    -0.284 N 
ATOM     18  H   UNL     1      -1.661  -0.984   2.193  0.00  0.00    +0.155 HD
BRANCH  17  19
ATOM     19  C   UNL     1      -3.145   0.336   2.756  0.00  0.00    +0.036 A 
ATOM     20  C   UNL     1      -4.309   0.895   2.247  0.00  0.00    +0.045 A 
ATOM     21  C   UNL     1      -5.232   1.468   3.101  0.00  0.00    +0.065 A 
ATOM     22  C   UNL     1      -4.995   1.484   4.470  0.00  0.00    +0.062 A 
ATOM     23  C   UNL     1      -3.829   0.924   4.979  0.00  0.00    +0.065 A 
ATOM     24  C   UNL     1      -2.910   0.347   4.124  0.00  0.00    +0.045 A 
ATOM     25 CL   UNL     1      -3.531   0.945   6.689  0.00  0.00    -0.082 Cl
ATOM     26 CL   UNL     1      -6.688   2.167   2.465  0.00  0.00    -0.082 Cl
BRANCH  22  27
ATOM     27  N   UNL     1      -5.929   2.065   5.337  0.00  0.00    -0.356 N 
ATOM     28  H   UNL     1      -6.743   2.455   4.981  0.00  0.00    +0.142 HD
ATOM     29  H   UNL     1      -5.763   2.076   6.292  0.00  0.00    +0.142 HD
ENDBRANCH  22  27
ENDBRANCH  17  19
ENDBRANCH   1  15
BRANCH   1  31
ATOM     30  C   UNL     1       1.463  -0.181  -0.768  0.00  0.00    +0.009 C 
ATOM     31  C   UNL     1       0.310   0.478  -0.009  0.00  0.00    +0.012 C 
ATOM     32  C   UNL     1       0.132   1.916  -0.502  0.00  0.00    +0.009 C 
ENDBRANCH   1  31
TORSDOF 5
