REMARK  Name = ZINC21242051
REMARK  5 active torsions:
REMARK  status: ('A' for Active; 'I' for Inactive)
REMARK    1  A    between atoms: C_1  and  C_2
REMARK    2  A    between atoms: C_2  and  O_3
REMARK    3  A    between atoms: O_3  and  C_4
REMARK    4  A    between atoms: C_7  and  C_10
REMARK    5  A    between atoms: C_15  and  C_21
REMARK                            x       y       z     vdW  Elec       q    Type
REMARK                         _______ _______ _______ _____ _____    ______ ____
ROOT
ATOM      1  C   UNL     1       2.524   5.321   0.231  0.00  0.00    +0.032 C 
ATOM      2  C   UNL     1       2.397   3.976  -0.488  0.00  0.00    +0.059 C 
ATOM      3  C   UNL     1       1.152   3.266  -0.018  0.00  0.00    +0.018 C 
ATOM      4  C   UNL     1       0.065   3.964   0.375  0.00  0.00    +0.020 C 
ATOM      5  C   UNL     1      -1.175   3.232   0.832  0.00  0.00    +0.063 C 
ATOM      6  C   UNL     1      -1.330   1.942   0.019  0.00  0.00    +0.109 C 
ATOM      7  C   UNL     1      -0.014   1.208   0.009  0.00  0.00    +0.218 C 
ATOM      8  O   UNL     1       0.002  -0.004   0.002  0.00  0.00    -0.275 OA
ATOM      9  N   UNL     1       1.141   1.895   0.001  0.00  0.00    -0.289 N 
ATOM     10  C   UNL     1       0.057   5.369   0.369  0.00  0.00    +0.162 C 
ATOM     11  O   UNL     1      -0.945   5.962   0.716  0.00  0.00    -0.292 OA
ATOM     12  C   UNL     1       1.269   6.150  -0.060  0.00  0.00    +0.088 C 
ATOM     13  H   UNL     1       2.090   1.338   0.011  0.00  0.00    +0.155 HD
ENDROOT
BRANCH   5  14
ATOM     14  C   UNL     1      -1.049   2.897   2.296  0.00  0.00    -0.039 A 
ATOM     15  C   UNL     1      -0.012   2.095   2.735  0.00  0.00    +0.007 A 
ATOM     16  C   UNL     1       0.107   1.791   4.078  0.00  0.00    +0.038 A 
ATOM     17  C   UNL     1      -0.819   2.282   4.983  0.00  0.00    +0.123 A 
ATOM     18  C   UNL     1      -1.860   3.081   4.542  0.00  0.00    +0.038 A 
ATOM     19  C   UNL     1      -1.974   3.388   3.199  0.00  0.00    +0.007 A 
ATOM     20  F   UNL     1      -0.707   1.982   6.295  0.00  0.00    -0.205 F 
ENDBRANCH   5  14
BRANCH   1  24
ATOM     21  C   UNL     1       5.978   7.398  -1.192  0.00  0.00    +0.121 A 
ATOM     22  C   UNL     1       5.862   7.082   0.154  0.00  0.00    +0.046 A 
ATOM     23  C   UNL     1       4.745   6.410   0.611  0.00  0.00    +0.007 A 
ATOM     24  C   UNL     1       3.742   6.053  -0.271  0.00  0.00    -0.043 A 
ATOM     25  C   UNL     1       3.857   6.363  -1.614  0.00  0.00    +0.007 A 
ATOM     26  C   UNL     1       4.970   7.039  -2.075  0.00  0.00    +0.046 A 
BRANCH  21  27
ATOM     27  O   UNL     1       7.075   8.059  -1.644  0.00  0.00    -0.492 OA
BRANCH  27  29
ATOM     28  C   UNL     1       8.426   9.093  -3.361  0.00  0.00    +0.048 C 
ATOM     29  C   UNL     1       7.126   8.352  -3.042  0.00  0.00    +0.225 C 
ENDBRANCH  27  29
ENDBRANCH  21  27
ENDBRANCH   1  24
TORSDOF 4
