REMARK  Name = ZINC24901971
REMARK  10 active torsions:
REMARK  status: ('A' for Active; 'I' for Inactive)
REMARK    1  A    between atoms: C_1  and  C_2
REMARK    2  A    between atoms: C_9  and  C_11
REMARK    3  A    between atoms: C_14  and  N_17
REMARK    4  A    between atoms: C_18  and  C_20
REMARK    5  A    between atoms: C_20  and  C_22
REMARK    6  A    between atoms: C_20  and  S_23
REMARK    7  A    between atoms: S_23  and  C_24
REMARK    8  A    between atoms: C_26  and  C_33
REMARK    9  A    between atoms: C_27  and  C_29
REMARK   10  A    between atoms: C_29  and  C_30
REMARK                            x       y       z     vdW  Elec       q    Type
REMARK                         _______ _______ _______ _____ _____    ______ ____
ROOT
ATOM      1  N   UNL     1      -0.641   0.916  -2.378  0.00  0.00    -0.285 N 
ATOM      2  C   UNL     1      -0.611   1.679  -1.268  0.00  0.00    +0.230 C 
ATOM      3  O   UNL     1      -1.162   2.760  -1.260  0.00  0.00    -0.274 OA
ATOM      4  H   UNL     1      -0.069  -0.023  -2.416  0.00  0.00    +0.155 HD
ENDROOT
BRANCH   1   8
ATOM      5  C   UNL     1      -2.899   2.112  -5.671  0.00  0.00    +0.007 A 
ATOM      6  C   UNL     1      -1.705   1.413  -5.858  0.00  0.00    +0.012 A 
ATOM      7  C   UNL     1      -0.961   1.020  -4.768  0.00  0.00    +0.024 A 
ATOM      8  C   UNL     1      -1.397   1.317  -3.482  0.00  0.00    +0.033 A 
ATOM      9  C   UNL     1      -2.589   2.009  -3.292  0.00  0.00    +0.024 A 
ATOM     10  C   UNL     1      -3.335   2.410  -4.378  0.00  0.00    +0.012 A 
BRANCH   5  19
ATOM     11  C   UNL     1      -7.208   4.399 -11.830  0.00  0.00    +0.044 C 
ATOM     12  C   UNL     1      -6.194   3.844 -10.864  0.00  0.00    -0.049 A 
ATOM     13  C   UNL     1      -5.071   3.176 -11.333  0.00  0.00    +0.005 A 
ATOM     14  C   UNL     1      -4.139   2.664 -10.486  0.00  0.00    +0.029 A 
ATOM     15  C   UNL     1      -4.283   2.796  -9.084  0.00  0.00    +0.079 A 
ATOM     16  C   UNL     1      -5.437   3.480  -8.637  0.00  0.00    +0.040 A 
ATOM     17  C   UNL     1      -6.373   3.994  -9.501  0.00  0.00    +0.020 A 
ATOM     18  S   UNL     1      -5.247   3.431  -6.871  0.00  0.00    -0.067 S 
ATOM     19  C   UNL     1      -3.700   2.536  -6.838  0.00  0.00    +0.109 A 
ATOM     20  N   UNL     1      -3.454   2.354  -8.117  0.00  0.00    -0.239 NA
ENDBRANCH   5  19
ENDBRANCH   1   8
BRANCH   2  21
ATOM     21  C   UNL     1       0.107   1.191  -0.037  0.00  0.00    +0.136 C 
ATOM     22  C   UNL     1       1.593   1.541  -0.140  0.00  0.00    +0.029 C 
BRANCH  21  23
ATOM     23  S   UNL     1      -0.599   1.984   1.429  0.00  0.00    -0.086 S 
BRANCH  23  24
ATOM     24  C   UNL     1       0.294   1.143   2.693  0.00  0.00    +0.136 A 
ATOM     25  N   UNL     1       1.214   0.203   2.574  0.00  0.00    -0.238 NA
ATOM     26  C   UNL     1       1.790  -0.326   3.636  0.00  0.00    +0.050 A 
ATOM     27  C   UNL     1       1.417   0.116   4.861  0.00  0.00    +0.022 A 
ATOM     28  S   UNL     1       0.196   1.342   4.415  0.00  0.00    -0.065 S 
ATOM     29  C   UNL     1       2.839  -1.399   3.490  0.00  0.00    +0.066 C 
BRANCH  27  30
ATOM     30  C   UNL     1       1.903  -0.305   6.224  0.00  0.00    +0.139 C 
BRANCH  30  31
ATOM     31  C   UNL     1       3.076   0.551   6.626  0.00  0.00    +0.215 C 
ATOM     32  O   UNL     1       3.478   1.419   5.879  0.00  0.00    -0.276 OA
ATOM     33  N   UNL     1       3.679   0.354   7.815  0.00  0.00    -0.329 N 
ATOM     34  H   UNL     1       4.535   0.979   8.109  0.00  0.00    +0.145 HD
ATOM     35  H   UNL     1       3.314  -0.432   8.493  0.00  0.00    +0.145 HD
ENDBRANCH  30  31
ENDBRANCH  27  30
ENDBRANCH  23  24
ENDBRANCH  21  23
ENDBRANCH   2  21
TORSDOF 7
