REMARK  Name = ZINC00294962
REMARK  4 active torsions:
REMARK  status: ('A' for Active; 'I' for Inactive)
REMARK    1  A    between atoms: C_4  and  C_7
REMARK    2  A    between atoms: C_7  and  C_9
REMARK    3  A    between atoms: C_9  and  S_10
REMARK    4  A    between atoms: S_10  and  C_11
REMARK                            x       y       z     vdW  Elec       q    Type
REMARK                         _______ _______ _______ _____ _____    ______ ____
ROOT
ATOM      1  C   UNL     1       2.563   4.654   0.003  0.00  0.00    +0.191 A 
ATOM      2  N   UNL     1       3.590   3.812  -0.012  0.00  0.00    -0.207 NA
ATOM      3  C   UNL     1       4.844   4.233  -0.022  0.00  0.00    +0.129 A 
ATOM      4  C   UNL     1       5.104   5.632  -0.017  0.00  0.00    +0.051 A 
ATOM      5  C   UNL     1       6.408   6.318  -0.028  0.00  0.00    -0.025 A 
ATOM      6  C   UNL     1       6.387   7.660  -0.019  0.00  0.00    -0.004 A 
ATOM      7  S   UNL     1       4.663   8.096  -0.000  0.00  0.00    -0.073 S 
ATOM      8  C   UNL     1       3.972   6.464  -0.002  0.00  0.00    +0.115 A 
ATOM      9  N   UNL     1       2.749   5.967   0.002  0.00  0.00    -0.215 NA
ATOM     10  C   UNL     1       7.772   8.250  -0.027  0.00  0.00    +0.043 C 
ATOM     11  C   UNL     1       8.693   7.084   0.394  0.00  0.00    +0.010 C 
ATOM     12  C   UNL     1       7.869   5.859  -0.051  0.00  0.00    +0.037 C 
ATOM     13  N   UNL     1       5.888   3.326  -0.037  0.00  0.00    -0.343 N 
ATOM     14  H   UNL     1       5.703   2.374  -0.041  0.00  0.00    +0.144 HD
ATOM     15  H   UNL     1       6.805   3.642  -0.045  0.00  0.00    +0.144 HD
ENDROOT
BRANCH   1  16
ATOM     16  S   UNL     1       0.922   4.013   0.015  0.00  0.00    -0.078 S 
BRANCH  16  17
ATOM     17  C   UNL     1       1.277   2.239   0.002  0.00  0.00    +0.157 C 
BRANCH  17  18
ATOM     18  C   UNL     1      -0.018   1.467   0.010  0.00  0.00    +0.173 C 
ATOM     19  O   UNL     1      -1.076   2.059   0.018  0.00  0.00    -0.291 OA
BRANCH  18  23
ATOM     20  C   UNL     1       0.040  -2.774  -0.014  0.00  0.00    +0.000 A 
ATOM     21  C   UNL     1      -1.170  -2.102   0.002  0.00  0.00    +0.001 A 
ATOM     22  C   UNL     1      -1.197  -0.723   0.010  0.00  0.00    +0.011 A 
ATOM     23  C   UNL     1       0.002  -0.004   0.002  0.00  0.00    +0.018 A 
ATOM     24  C   UNL     1       1.220  -0.690  -0.019  0.00  0.00    +0.011 A 
ATOM     25  C   UNL     1       1.231  -2.069  -0.021  0.00  0.00    +0.001 A 
ENDBRANCH  18  23
ENDBRANCH  17  18
ENDBRANCH  16  17
ENDBRANCH   1  16
TORSDOF 4
