REMARK  Name = ZINC67512282
REMARK  4 active torsions:
REMARK  status: ('A' for Active; 'I' for Inactive)
REMARK    1  A    between atoms: C_4  and  C_7
REMARK    2  A    between atoms: C_10  and  N_12
REMARK    3  A    between atoms: C_13  and  C_15
REMARK    4  A    between atoms: C_15  and  N_16
REMARK                            x       y       z     vdW  Elec       q    Type
REMARK                         _______ _______ _______ _____ _____    ______ ____
ROOT
ATOM      1  C   UNL     1       7.028  -2.198  -3.472  0.00  0.00    +0.213 C 
ENDROOT
BRANCH   1   2
ATOM      2  N   UNL     1       7.026  -2.607  -4.879  0.00  0.00    -0.215 N 
ATOM      3  C   UNL     1       7.054  -3.890  -5.295  0.00  0.00    +0.247 C 
ATOM      4  O   UNL     1       7.085  -4.886  -4.604  0.00  0.00    -0.273 OA
ATOM      5  C   UNL     1       7.039  -3.825  -6.805  0.00  0.00    +0.113 C 
ATOM      6  C   UNL     1       8.305  -4.454  -7.377  0.00  0.00    +0.035 C 
ATOM      7  C   UNL     1       8.284  -4.350  -8.904  0.00  0.00    +0.003 C 
ATOM      8  C   UNL     1       7.047  -5.069  -9.446  0.00  0.00    +0.000 C 
ATOM      9  C   UNL     1       5.785  -4.412  -8.883  0.00  0.00    +0.003 C 
ATOM     10  C   UNL     1       5.796  -4.516  -7.355  0.00  0.00    +0.035 C 
ATOM     11  N   UNL     1       7.001  -2.387  -7.100  0.00  0.00    -0.285 N 
ATOM     12  C   UNL     1       6.990  -1.755  -5.911  0.00  0.00    +0.310 C 
ATOM     13  O   UNL     1       6.956  -0.546  -5.788  0.00  0.00    -0.252 OA
ATOM     14  H   UNL     1       6.984  -1.974  -7.977  0.00  0.00    +0.151 HD
ENDBRANCH   1   2
BRANCH   1  16
ATOM     15  N   UNL     1       5.363  -1.736  -1.702  0.00  0.00    -0.311 N 
ATOM     16  C   UNL     1       5.608  -2.099  -2.976  0.00  0.00    +0.231 C 
ATOM     17  O   UNL     1       4.686  -2.346  -3.724  0.00  0.00    -0.274 OA
ATOM     18  H   UNL     1       6.101  -1.538  -1.104  0.00  0.00    +0.149 HD
BRANCH  15  21
ATOM     19  C   UNL     1       3.711  -0.707  -0.038  0.00  0.00    +0.041 C 
ATOM     20  C   UNL     1       3.675  -2.224   0.162  0.00  0.00    +0.033 C 
ATOM     21  C   UNL     1       3.983  -1.640  -1.219  0.00  0.00    +0.081 C 
BRANCH  19  25
ATOM     22  C   UNL     1      -0.017   1.378   0.010  0.00  0.00    +0.000 A 
ATOM     23  C   UNL     1       1.171   2.086   0.002  0.00  0.00    +0.000 A 
ATOM     24  C   UNL     1       2.377   1.411  -0.013  0.00  0.00    +0.004 A 
ATOM     25  C   UNL     1       2.396   0.029  -0.020  0.00  0.00    -0.042 A 
ATOM     26  C   UNL     1       1.208  -0.679  -0.012  0.00  0.00    +0.004 A 
ATOM     27  C   UNL     1       0.002  -0.004   0.002  0.00  0.00    +0.000 A 
ENDBRANCH  19  25
ENDBRANCH  15  21
ENDBRANCH   1  16
TORSDOF 4
