REMARK  Name = ZINC22441986
REMARK  3 active torsions:
REMARK  status: ('A' for Active; 'I' for Inactive)
REMARK    1  A    between atoms: C_1  and  C_2
REMARK    2  A    between atoms: C_5  and  N_8
REMARK    3  A    between atoms: C_28  and  C_33
REMARK                            x       y       z     vdW  Elec       q    Type
REMARK                         _______ _______ _______ _____ _____    ______ ____
ROOT
ATOM      1  N   UNL     1      -2.860   2.263  -5.330  0.00  0.00    -0.299 N 
ATOM      2  C   UNL     1      -1.979   3.182  -4.801  0.00  0.00    +0.139 A 
ATOM      3  C   UNL     1      -2.192   4.567  -4.969  0.00  0.00    +0.079 A 
ATOM      4  C   UNL     1      -1.276   5.465  -4.413  0.00  0.00    +0.059 A 
ATOM      5  N   UNL     1      -0.240   4.980  -3.748  0.00  0.00    -0.218 NA
ATOM      6  C   UNL     1      -0.064   3.671  -3.614  0.00  0.00    +0.220 A 
ATOM      7  N   UNL     1      -0.908   2.784  -4.121  0.00  0.00    -0.199 NA
ATOM      8  N   UNL     1       1.035   3.218  -2.917  0.00  0.00    -0.297 N 
ATOM      9  C   UNL     1       1.059   1.749  -2.868  0.00  0.00    +0.127 C 
ATOM     10  C   UNL     1       2.332   1.286  -2.156  0.00  0.00    +0.125 C 
ATOM     11  N   UNL     1       2.369   1.855  -0.802  0.00  0.00    -0.314 N 
ATOM     12  C   UNL     1       2.345   3.324  -0.851  0.00  0.00    +0.125 C 
ATOM     13  C   UNL     1       1.071   3.788  -1.563  0.00  0.00    +0.127 C 
ATOM     14  C   UNL     1       3.477   1.398  -0.099  0.00  0.00    +0.099 A 
ATOM     15  C   UNL     1       3.690   1.826   1.208  0.00  0.00    +0.042 A 
ATOM     16  C   UNL     1       4.797   1.363   1.895  0.00  0.00    +0.005 A 
ATOM     17  C   UNL     1       5.658   0.484   1.251  0.00  0.00    +0.018 A 
ATOM     18  C   UNL     1       5.386   0.102  -0.047  0.00  0.00    +0.084 A 
ATOM     19  N   UNL     1       4.319   0.555  -0.677  0.00  0.00    -0.350 N 
ATOM     20  C   UNL     1      -1.449   6.951  -4.548  0.00  0.00    +0.068 C 
ATOM     21  C   UNL     1      -2.331   7.296  -5.746  0.00  0.00    +0.068 C 
ATOM     22  C   UNL     1      -3.662   6.540  -5.635  0.00  0.00    +0.091 C 
ATOM     23  C   UNL     1      -3.352   5.059  -5.716  0.00  0.00    +0.169 C 
ATOM     24  O   UNL     1      -4.039   4.308  -6.377  0.00  0.00    -0.292 OA
ATOM     25  H   UNL     1      -3.760   2.606  -5.861  0.00  0.00    +0.154 HD
ATOM     26  H   UNL     1       4.137   0.216  -1.708  0.00  0.00    +0.166 HD
ENDROOT
BRANCH   1  31
ATOM     27  C   UNL     1      -1.844  -3.289  -4.768  0.00  0.00    +0.044 C 
ATOM     28  C   UNL     1      -2.114  -1.814  -4.917  0.00  0.00    -0.050 A 
ATOM     29  C   UNL     1      -2.718  -1.336  -6.066  0.00  0.00    +0.005 A 
ATOM     30  C   UNL     1      -2.966   0.015  -6.206  0.00  0.00    +0.023 A 
ATOM     31  C   UNL     1      -2.610   0.894  -5.191  0.00  0.00    +0.032 A 
ATOM     32  C   UNL     1      -1.999   0.411  -4.041  0.00  0.00    +0.023 A 
ATOM     33  C   UNL     1      -1.758  -0.942  -3.905  0.00  0.00    +0.005 A 
ENDBRANCH   1  31
BRANCH  21  34
ATOM     34  C   UNL     1      -2.596   8.779  -5.765  0.00  0.00    +0.109 A 
ATOM     35  C   UNL     1      -2.258   9.626  -6.754  0.00  0.00    +0.045 A 
ATOM     36  C   UNL     1      -2.696  10.912  -6.360  0.00  0.00    +0.041 A 
ATOM     37  C   UNL     1      -3.266  10.775  -5.149  0.00  0.00    +0.195 A 
ATOM     38  O   UNL     1      -3.203   9.481  -4.794  0.00  0.00    -0.468 OA
ENDBRANCH  21  34
TORSDOF 2
