REMARK  Name = ZINC00489515
REMARK  6 active torsions:
REMARK  status: ('A' for Active; 'I' for Inactive)
REMARK    1  A    between atoms: C_1  and  C_2
REMARK    2  A    between atoms: C_3  and  C_20
REMARK    3  A    between atoms: C_9  and  C_19
REMARK    4  A    between atoms: C_10  and  C_16
REMARK    5  A    between atoms: C_16  and  C_17
REMARK    6  A    between atoms: C_16  and  C_18
REMARK                            x       y       z     vdW  Elec       q    Type
REMARK                         _______ _______ _______ _____ _____    ______ ____
ROOT
ATOM      1  C   UNL     1      -3.231   4.931   0.058  0.00  0.00    +0.048 C 
ATOM      2  C   UNL     1      -2.663   3.535   0.046  0.00  0.00    -0.002 A 
ATOM      3  C   UNL     1      -3.350   2.387   0.031  0.00  0.00    +0.106 A 
ATOM      4  O   UNL     1      -2.508   1.339   0.022  0.00  0.00    -0.460 OA
ATOM      5  C   UNL     1      -1.224   1.752   0.017  0.00  0.00    +0.139 A 
ATOM      6  C   UNL     1      -1.241   3.161   0.030  0.00  0.00    +0.024 A 
ATOM      7  C   UNL     1      -0.054   3.880   0.022  0.00  0.00    +0.023 A 
ATOM      8  C   UNL     1       1.160   3.193   0.008  0.00  0.00    +0.022 A 
ATOM      9  C   UNL     1       2.433   3.920  -0.001  0.00  0.00    -0.030 A 
ATOM     10  C   UNL     1       3.583   3.200  -0.015  0.00  0.00    +0.043 A 
ATOM     11  C   UNL     1       3.528   1.790  -0.022  0.00  0.00    +0.341 A 
ATOM     12  O   UNL     1       4.568   1.157  -0.036  0.00  0.00    -0.245 OA
ATOM     13  O   UNL     1       2.361   1.129  -0.014  0.00  0.00    -0.422 OA
ATOM     14  C   UNL     1       1.177   1.783   0.000  0.00  0.00    +0.143 A 
ATOM     15  C   UNL     1      -0.013   1.076   0.008  0.00  0.00    +0.093 A 
ATOM     16  C   UNL     1       2.463   5.427   0.007  0.00  0.00    +0.045 C 
ATOM     17  C   UNL     1      -4.854   2.283   0.038  0.00  0.00    +0.086 C 
ENDROOT
BRANCH  10  18
ATOM     18  C   UNL     1       4.915   3.904  -0.024  0.00  0.00    +0.020 C 
ATOM     19  C   UNL     1       5.715   3.498   1.216  0.00  0.00    +0.012 C 
ATOM     20  C   UNL     1       5.692   3.511  -1.282  0.00  0.00    +0.012 C 
ENDBRANCH  10  18
TORSDOF 1
