REMARK  Name = ZINC11898514
REMARK  9 active torsions:
REMARK  status: ('A' for Active; 'I' for Inactive)
REMARK    1  A    between atoms: C_1  and  C_2
REMARK    2  A    between atoms: C_4  and  N_32
REMARK    3  A    between atoms: C_7  and  N_8
REMARK    4  A    between atoms: C_9  and  C_11
REMARK    5  A    between atoms: N_13  and  C_14
REMARK    6  A    between atoms: C_14  and  C_15
REMARK    7  A    between atoms: C_15  and  C_17
REMARK    8  A    between atoms: C_15  and  N_61
REMARK    9  A    between atoms: N_21  and  C_22
REMARK                            x       y       z     vdW  Elec       q    Type
REMARK                         _______ _______ _______ _____ _____    ______ ____
ROOT
ATOM      1  C   UNL     1      -2.348  -0.668   0.918  0.00  0.00    +0.095 C 
ENDROOT
BRANCH   1   4
ATOM      2  C   UNL     1      -4.580  -1.597   1.220  0.00  0.00    +0.299 C 
ATOM      3  O   UNL     1      -4.757  -0.804   2.121  0.00  0.00    -0.265 OA
ATOM      4  N   UNL     1      -3.408  -1.611   0.554  0.00  0.00    -0.309 N 
ATOM      5  H   UNL     1      -3.267  -2.245  -0.166  0.00  0.00    +0.149 HD
BRANCH   2   7
ATOM      6  N   UNL     1      -6.833  -2.545   1.514  0.00  0.00    -0.278 N 
ATOM      7  C   UNL     1      -5.661  -2.559   0.848  0.00  0.00    +0.303 C 
ATOM      8  O   UNL     1      -5.484  -3.352  -0.053  0.00  0.00    -0.265 OA
ATOM      9  H   UNL     1      -6.998  -1.871   2.191  0.00  0.00    +0.155 HD
BRANCH   6  16
ATOM     10  C   UNL     1      -8.644  -3.273   3.584  0.00  0.00    +0.046 C 
ATOM     11  C   UNL     1      -8.714  -3.888   2.209  0.00  0.00    -0.027 A 
ATOM     12  C   UNL     1      -9.682  -4.831   1.922  0.00  0.00    +0.038 A 
ATOM     13  C   UNL     1      -9.744  -5.399   0.663  0.00  0.00    +0.127 A 
ATOM     14  C   UNL     1      -8.841  -5.021  -0.315  0.00  0.00    +0.034 A 
ATOM     15  C   UNL     1      -7.875  -4.075  -0.036  0.00  0.00    +0.026 A 
ATOM     16  C   UNL     1      -7.810  -3.502   1.228  0.00  0.00    +0.037 A 
BRANCH  13  17
ATOM     17  N   UNL     1     -10.778  -6.414   0.361  0.00  0.00    +0.056 N 
ATOM     18  O   UNL     1     -10.834  -6.915  -0.748  0.00  0.00    -0.126 OA
ATOM     19  O   UNL     1     -11.574  -6.747   1.221  0.00  0.00    -0.126 OA
ENDBRANCH  13  17
ENDBRANCH   6  16
ENDBRANCH   2   7
ENDBRANCH   1   4
BRANCH   1  20
ATOM     20  C   UNL     1      -1.078  -0.999   0.131  0.00  0.00    -0.003 C 
BRANCH  20  30
ATOM     21  C   UNL     1      -1.418  -3.395  -0.007  0.00  0.00    -0.073 C 
ATOM     22  C   UNL     1      -0.664  -4.718   0.132  0.00  0.00    +0.017 C 
ATOM     23  C   UNL     1      -0.163  -4.878   1.545  0.00  0.00    -0.048 A 
ATOM     24  C   UNL     1       0.229  -6.140   1.968  0.00  0.00    +0.004 A 
ATOM     25  C   UNL     1       0.698  -6.330   3.252  0.00  0.00    +0.000 A 
ATOM     26  C   UNL     1       0.776  -5.258   4.121  0.00  0.00    +0.000 A 
ATOM     27  C   UNL     1       0.384  -4.003   3.702  0.00  0.00    +0.002 A 
ATOM     28  C   UNL     1      -0.088  -3.810   2.412  0.00  0.00    -0.061 A 
ATOM     29  C   UNL     1      -0.508  -2.423   2.002  0.00  0.00    -0.042 C 
ATOM     30  N   UNL     1      -0.556  -2.325   0.534  0.00  0.00    +0.389 N 
ATOM     31  H   UNL     1       0.393  -2.438   0.159  0.00  0.00    -0.080 HD
ENDBRANCH  20  30
BRANCH  20  32
ATOM     32  C   UNL     1      -0.028   0.045   0.409  0.00  0.00    +0.006 A 
ATOM     33  C   UNL     1       1.196  -0.183   0.926  0.00  0.00    +0.021 A 
ATOM     34  C   UNL     1       1.853   1.060   1.020  0.00  0.00    +0.019 A 
ATOM     35  C   UNL     1       1.004   2.001   0.557  0.00  0.00    +0.085 A 
ATOM     36  N   UNL     1      -0.152   1.384   0.181  0.00  0.00    -0.355 N 
ATOM     37  C   UNL     1      -1.330   2.048  -0.383  0.00  0.00    +0.148 C 
ENDBRANCH  20  32
ENDBRANCH   1  20
TORSDOF 7
