REMARK  Name = ZINC39482630
REMARK  7 active torsions:
REMARK  status: ('A' for Active; 'I' for Inactive)
REMARK    1  A    between atoms: C_4  and  S_7
REMARK    2  A    between atoms: S_7  and  C_10
REMARK    3  A    between atoms: C_13  and  N_24
REMARK    4  A    between atoms: C_14  and  N_16
REMARK    5  A    between atoms: N_24  and  S_25
REMARK    6  A    between atoms: S_25  and  C_28
REMARK    7  A    between atoms: C_33  and  O_34
REMARK                            x       y       z     vdW  Elec       q    Type
REMARK                         _______ _______ _______ _____ _____    ______ ____
ROOT
ATOM      1  C   UNL     1       3.315  -0.787   2.408  0.00  0.00    +0.095 A 
ATOM      2  C   UNL     1       4.290   0.093   2.841  0.00  0.00    +0.029 A 
ATOM      3  C   UNL     1       4.986  -0.160   4.008  0.00  0.00    +0.028 A 
ATOM      4  C   UNL     1       4.707  -1.299   4.749  0.00  0.00    +0.069 A 
ATOM      5  C   UNL     1       3.723  -2.186   4.313  0.00  0.00    +0.054 A 
ATOM      6  C   UNL     1       3.026  -1.922   3.143  0.00  0.00    +0.052 A 
ENDROOT
BRANCH   5   7
ATOM      7  N   UNL     1       3.437  -3.338   5.056  0.00  0.00    -0.323 N 
ATOM      8  C   UNL     1       2.411  -3.321   6.109  0.00  0.00    +0.120 C 
ATOM      9  C   UNL     1       3.019  -3.899   7.391  0.00  0.00    +0.102 C 
ATOM     10  N   UNL     1       3.593  -5.221   7.104  0.00  0.00    -0.285 NA
ATOM     11  C   UNL     1       4.695  -5.125   6.137  0.00  0.00    +0.252 C 
ATOM     12  C   UNL     1       4.151  -4.598   4.800  0.00  0.00    +0.158 C 
ATOM     13  F   UNL     1       5.670  -4.249   6.626  0.00  0.00    -0.227 F 
ATOM     14  H   UNL     1       3.896  -5.676   7.953  0.00  0.00    +0.125 HD
ENDBRANCH   5   7
BRANCH   1  15
ATOM     15  S   UNL     1       2.432  -0.457   0.920  0.00  0.00    +0.025 S 
ATOM     16  O   UNL     1       1.948  -1.707   0.449  0.00  0.00    -0.164 OA
ATOM     17  O   UNL     1       3.264   0.383   0.132  0.00  0.00    -0.164 OA
BRANCH  15  21
ATOM     18  C   UNL     1      -1.202   2.001   2.033  0.00  0.00    +0.000 A 
ATOM     19  C   UNL     1      -0.014   2.631   1.712  0.00  0.00    +0.002 A 
ATOM     20  C   UNL     1       1.096   1.880   1.372  0.00  0.00    +0.027 A 
ATOM     21  C   UNL     1       1.018   0.500   1.354  0.00  0.00    +0.094 A 
ATOM     22  C   UNL     1      -0.170  -0.130   1.676  0.00  0.00    +0.027 A 
ATOM     23  C   UNL     1      -1.280   0.621   2.015  0.00  0.00    +0.002 A 
ENDBRANCH  15  21
ENDBRANCH   1  15
BRANCH   4  24
ATOM     24  N   UNL     1       5.411  -1.558   5.931  0.00  0.00    -0.214 N 
ATOM     25  H   UNL     1       5.631  -2.470   6.175  0.00  0.00    +0.174 HD
BRANCH  24  26
ATOM     26  S   UNL     1       5.869  -0.305   6.913  0.00  0.00    +0.076 S 
ATOM     27  O   UNL     1       4.734   0.540   7.049  0.00  0.00    -0.150 OA
ATOM     28  O   UNL     1       6.525  -0.885   8.032  0.00  0.00    -0.150 OA
BRANCH  26  29
ATOM     29  C   UNL     1       7.086   0.623   6.041  0.00  0.00    +0.150 A 
ATOM     30  C   UNL     1       6.835   1.936   5.690  0.00  0.00    +0.032 A 
ATOM     31  C   UNL     1       7.789   2.664   5.005  0.00  0.00    +0.002 A 
ATOM     32  C   UNL     1       8.998   2.082   4.670  0.00  0.00    +0.004 A 
ATOM     33  C   UNL     1       9.254   0.771   5.019  0.00  0.00    +0.047 A 
ATOM     34  C   UNL     1       8.300   0.039   5.711  0.00  0.00    +0.143 A 
BRANCH  34  35
ATOM     35  O   UNL     1       8.552  -1.250   6.060  0.00  0.00    -0.505 OA
ATOM     36  H   UNL     1       8.314  -1.896   5.381  0.00  0.00    +0.292 HD
ENDBRANCH  34  35
ENDBRANCH  26  29
ENDBRANCH  24  26
ENDBRANCH   4  24
TORSDOF 7
