REMARK  Name = ZINC00894168
REMARK  6 active torsions:
REMARK  status: ('A' for Active; 'I' for Inactive)
REMARK    1  A    between atoms: C_1  and  C_2
REMARK    2  A    between atoms: C_5  and  C_35
REMARK    3  A    between atoms: C_9  and  C_14
REMARK    4  A    between atoms: C_14  and  C_16
REMARK    5  A    between atoms: C_14  and  N_26
REMARK    6  A    between atoms: N_20  and  C_21
REMARK                            x       y       z     vdW  Elec       q    Type
REMARK                         _______ _______ _______ _____ _____    ______ ____
ROOT
ATOM      1  C   UNL     1       1.964  -2.768   0.831  0.00  0.00    +0.179 C 
ENDROOT
BRANCH   1  10
ATOM      2  C   UNL     1       5.703  -5.961  -0.883  0.00  0.00    +0.044 C 
ATOM      3  C   UNL     1       6.222  -4.552  -1.016  0.00  0.00    -0.041 A 
ATOM      4  C   UNL     1       7.473  -4.326  -1.516  0.00  0.00    +0.004 A 
ATOM      5  C   UNL     1       7.960  -3.032  -1.643  0.00  0.00    +0.005 A 
ATOM      6  C   UNL     1       7.191  -1.951  -1.267  0.00  0.00    -0.026 A 
ATOM      7  C   UNL     1       5.915  -2.157  -0.754  0.00  0.00    +0.052 A 
ATOM      8  C   UNL     1       5.424  -3.471  -0.627  0.00  0.00    +0.002 A 
ATOM      9  C   UNL     1       4.079  -3.677  -0.088  0.00  0.00    +0.021 A 
ATOM     10  C   UNL     1       3.352  -2.591   0.272  0.00  0.00    +0.045 A 
ATOM     11  C   UNL     1       3.888  -1.294   0.119  0.00  0.00    +0.255 A 
ATOM     12  O   UNL     1       3.215  -0.331   0.443  0.00  0.00    -0.268 OA
ATOM     13  N   UNL     1       5.124  -1.095  -0.370  0.00  0.00    -0.322 N 
ATOM     14  H   UNL     1       5.463  -0.190  -0.459  0.00  0.00    +0.169 HD
ATOM     15  C   UNL     1       7.732  -0.552  -1.410  0.00  0.00    +0.046 C 
ENDBRANCH   1  10
BRANCH   1  16
ATOM     16  N   UNL     1       1.016  -1.957   0.054  0.00  0.00    -0.315 N 
ATOM     17  C   UNL     1       1.143  -2.234  -1.393  0.00  0.00    +0.111 C 
ATOM     18  C   UNL     1      -0.296  -2.001  -1.909  0.00  0.00    +0.056 C 
ATOM     19  C   UNL     1      -1.142  -2.263  -0.679  0.00  0.00    -0.025 A 
ATOM     20  C   UNL     1      -0.305  -2.232   0.431  0.00  0.00    +0.034 A 
ATOM     21  C   UNL     1      -0.847  -2.457   1.695  0.00  0.00    +0.023 A 
ATOM     22  C   UNL     1      -2.197  -2.702   1.837  0.00  0.00    +0.002 A 
ATOM     23  C   UNL     1      -3.021  -2.728   0.727  0.00  0.00    +0.000 A 
ATOM     24  C   UNL     1      -2.490  -2.508  -0.531  0.00  0.00    +0.005 A 
ENDBRANCH   1  16
BRANCH   1  25
ATOM     25  C   UNL     1       1.941  -2.325   2.271  0.00  0.00    +0.177 A 
ATOM     26  N   UNL     1       1.962  -1.091   2.711  0.00  0.00    -0.111 NA
ATOM     27  N   UNL     1       1.929  -1.126   3.998  0.00  0.00    -0.023 NA
ATOM     28  N   UNL     1       1.897  -2.352   4.391  0.00  0.00    -0.044 NA
ATOM     29  N   UNL     1       1.903  -3.121   3.356  0.00  0.00    -0.224 N 
BRANCH  29  30
ATOM     30  C   UNL     1       1.874  -4.586   3.360  0.00  0.00    +0.111 C 
ATOM     31  C   UNL     1       0.620  -5.087   4.106  0.00  0.00    +0.027 C 
ATOM     32  C   UNL     1       1.107  -6.350   4.860  0.00  0.00    +0.002 C 
ATOM     33  C   UNL     1       2.534  -5.951   5.310  0.00  0.00    +0.002 C 
ATOM     34  C   UNL     1       3.091  -5.136   4.125  0.00  0.00    +0.027 C 
ENDBRANCH  29  30
ENDBRANCH   1  25
TORSDOF 4
