REMARK  Name = ZINC03205879
REMARK  8 active torsions:
REMARK  status: ('A' for Active; 'I' for Inactive)
REMARK    1  A    between atoms: C_2  and  C_3
REMARK    2  A    between atoms: C_3  and  N_4
REMARK    3  A    between atoms: N_4  and  C_5
REMARK    4  A    between atoms: C_5  and  N_7
REMARK    5  A    between atoms: N_7  and  N_8
REMARK    6  A    between atoms: N_8  and  P_9
REMARK    7  A    between atoms: C_12  and  C_22
REMARK    8  A    between atoms: C_14  and  C_16
REMARK                            x       y       z     vdW  Elec       q    Type
REMARK                         _______ _______ _______ _____ _____    ______ ____
ROOT
ATOM      1  P   UNL     1      -0.018   1.476   0.010  0.00  0.00    +0.214 P 
ATOM      2  O   UNL     1       0.002  -0.004   0.002  0.00  0.00    -0.294 OA
ATOM      3  C   UNL     1      -0.921   2.089   1.477  0.00  0.00    +0.107 C 
ATOM      4  C   UNL     1      -1.844   3.032   1.241  0.00  0.00    +0.140 C 
ATOM      5  O   UNL     1      -2.114   3.544   0.038  0.00  0.00    -0.454 OA
ATOM      6  C   UNL     1      -1.863   3.046  -1.174  0.00  0.00    +0.140 C 
ATOM      7  C   UNL     1      -0.949   2.104  -1.432  0.00  0.00    +0.107 C 
ENDROOT
BRANCH   6   8
ATOM      8  C   UNL     1      -2.653   3.570  -2.312  0.00  0.00    +0.017 A 
ATOM      9  C   UNL     1      -2.428   3.088  -3.601  0.00  0.00    +0.011 A 
ATOM     10  C   UNL     1      -3.170   3.577  -4.657  0.00  0.00    +0.001 A 
ATOM     11  C   UNL     1      -4.128   4.551  -4.439  0.00  0.00    +0.000 A 
ATOM     12  C   UNL     1      -4.352   5.037  -3.164  0.00  0.00    +0.001 A 
ATOM     13  C   UNL     1      -3.620   4.552  -2.099  0.00  0.00    +0.011 A 
ENDBRANCH   6   8
BRANCH   4  14
ATOM     14  C   UNL     1      -2.615   3.544   2.397  0.00  0.00    +0.017 A 
ATOM     15  C   UNL     1      -2.377   3.039   3.676  0.00  0.00    +0.011 A 
ATOM     16  C   UNL     1      -3.095   3.524   4.750  0.00  0.00    +0.001 A 
ATOM     17  C   UNL     1      -4.057   4.500   4.559  0.00  0.00    +0.000 A 
ATOM     18  C   UNL     1      -4.301   5.000   3.293  0.00  0.00    +0.001 A 
ATOM     19  C   UNL     1      -3.585   4.528   2.211  0.00  0.00    +0.011 A 
ENDBRANCH   4  14
BRANCH   1  20
ATOM     20  N   UNL     1       1.553   2.079  -0.002  0.00  0.00    -0.182 NA
ATOM     21  H   UNL     1       1.553   3.086  -0.061  0.00  0.00    +0.153 HD
BRANCH  20  22
ATOM     22  N   UNL     1       2.249   1.653   1.094  0.00  0.00    -0.256 N 
ATOM     23  H   UNL     1       1.898   1.814   1.984  0.00  0.00    +0.168 HD
BRANCH  22  24
ATOM     24  C   UNL     1       3.423   1.010   0.938  0.00  0.00    +0.145 C 
ATOM     25  S   UNL     1       4.296   0.477   2.311  0.00  0.00    -0.018 S 
BRANCH  24  26
ATOM     26  N   UNL     1       3.911   0.787  -0.298  0.00  0.00    -0.322 N 
ATOM     27  H   UNL     1       3.416   1.089  -1.076  0.00  0.00    +0.148 HD
BRANCH  26  28
ATOM     28  C   UNL     1       5.187   0.088  -0.468  0.00  0.00    +0.130 C 
BRANCH  28  30
ATOM     29  C   UNL     1       6.643   0.418  -2.400  0.00  0.00    +0.005 C 
ATOM     30  C   UNL     1       5.503  -0.032  -1.936  0.00  0.00    -0.016 C 
ENDBRANCH  28  30
ENDBRANCH  26  28
ENDBRANCH  24  26
ENDBRANCH  22  24
ENDBRANCH  20  22
ENDBRANCH   1  20
TORSDOF 8
