REMARK  Name = ZINC08941397
REMARK  5 active torsions:
REMARK  status: ('A' for Active; 'I' for Inactive)
REMARK    1  A    between atoms: C_1  and  C_2
REMARK    2  A    between atoms: C_8  and  N_10
REMARK    3  A    between atoms: C_14  and  C_16
REMARK    4  A    between atoms: C_16  and  N_17
REMARK    5  A    between atoms: C_25  and  C_27
REMARK                            x       y       z     vdW  Elec       q    Type
REMARK                         _______ _______ _______ _____ _____    ______ ____
ROOT
ATOM      1  N   UNL     1      -2.109   1.512   1.280  0.00  0.00    -0.296 N 
ATOM      2  C   UNL     1      -2.765   1.368   2.448  0.00  0.00    +0.306 C 
ATOM      3  O   UNL     1      -2.217   1.659   3.493  0.00  0.00    -0.252 OA
ATOM      4  N   UNL     1      -4.030   0.901   2.458  0.00  0.00    -0.239 N 
ATOM      5  C   UNL     1      -4.686   0.757   3.626  0.00  0.00    +0.238 C 
ATOM      6  O   UNL     1      -4.139   1.048   4.668  0.00  0.00    -0.274 OA
ATOM      7  H   UNL     1      -2.547   1.280   0.446  0.00  0.00    +0.151 HD
ATOM      8  H   UNL     1      -4.468   0.669   1.624  0.00  0.00    +0.159 HD
ENDROOT
BRANCH   1  15
ATOM      9  C   UNL     1       0.002  -0.004   0.002  0.00  0.00    +0.009 C 
ATOM     10  C   UNL     1      -0.019   1.526   0.010  0.00  0.00    +0.006 C 
ATOM     11  C   UNL     1       1.417   2.055  -0.000  0.00  0.00    +0.005 C 
ATOM     12  C   UNL     1       1.396   3.585   0.008  0.00  0.00    +0.000 C 
ATOM     13  C   UNL     1       0.680   4.079   1.267  0.00  0.00    +0.002 C 
ATOM     14  C   UNL     1      -0.756   3.549   1.278  0.00  0.00    +0.022 C 
ATOM     15  C   UNL     1      -0.735   2.019   1.269  0.00  0.00    +0.077 C 
ENDBRANCH   1  15
BRANCH   5  16
ATOM     16  C   UNL     1      -6.100   0.236   3.636  0.00  0.00    +0.214 C 
BRANCH  16  17
ATOM     17  N   UNL     1      -6.587   0.172   5.017  0.00  0.00    -0.215 N 
ATOM     18  C   UNL     1      -7.224   1.183   5.643  0.00  0.00    +0.247 C 
ATOM     19  O   UNL     1      -7.492   2.275   5.190  0.00  0.00    -0.273 OA
ATOM     20  C   UNL     1      -7.533   0.667   7.030  0.00  0.00    +0.115 C 
ATOM     21  C   UNL     1      -9.039   0.642   7.265  0.00  0.00    +0.035 C 
ATOM     22  C   UNL     1      -9.588   2.070   7.217  0.00  0.00    +0.003 C 
ATOM     23  C   UNL     1      -8.901   2.916   8.291  0.00  0.00    +0.000 C 
ATOM     24  C   UNL     1      -7.394   2.949   8.031  0.00  0.00    +0.006 C 
ATOM     25  C   UNL     1      -6.837   1.524   8.082  0.00  0.00    +0.018 C 
ATOM     26  C   UNL     1      -5.333   1.554   7.802  0.00  0.00    +0.010 C 
ATOM     27  N   UNL     1      -6.988  -0.696   7.033  0.00  0.00    -0.285 N 
ATOM     28  C   UNL     1      -6.459  -0.898   5.811  0.00  0.00    +0.310 C 
ATOM     29  O   UNL     1      -5.923  -1.933   5.469  0.00  0.00    -0.252 OA
ATOM     30  H   UNL     1      -7.008  -1.328   7.769  0.00  0.00    +0.151 HD
ENDBRANCH  16  17
ENDBRANCH   5  16
TORSDOF 3
