REMARK  Name = ZINC24847582
REMARK  9 active torsions:
REMARK  status: ('A' for Active; 'I' for Inactive)
REMARK    1  A    between atoms: C_1  and  C_2
REMARK    2  A    between atoms: C_9  and  C_16
REMARK    3  A    between atoms: C_11  and  O_12
REMARK    4  A    between atoms: C_16  and  O_17
REMARK    5  A    between atoms: O_17  and  C_18
REMARK    6  A    between atoms: C_18  and  C_20
REMARK    7  A    between atoms: C_21  and  C_22
REMARK    8  A    between atoms: C_25  and  O_28
REMARK    9  A    between atoms: O_28  and  C_29
REMARK                            x       y       z     vdW  Elec       q    Type
REMARK                         _______ _______ _______ _____ _____    ______ ____
ROOT
ATOM      1  C   UNL     1      -0.617   1.507  -2.165  0.00  0.00    +0.109 C 
ATOM      2  C   UNL     1      -0.606  -0.000  -2.168  0.00  0.00    +0.214 C 
ATOM      3  O   UNL     1      -1.141  -0.609  -3.070  0.00  0.00    -0.276 OA
ATOM      4  N   UNL     1       0.000  -0.672  -1.169  0.00  0.00    -0.286 N 
ATOM      5  C   UNL     1      -0.071  -2.064  -1.121  0.00  0.00    +0.037 A 
ATOM      6  C   UNL     1      -0.140  -2.712   0.113  0.00  0.00    +0.024 A 
ATOM      7  C   UNL     1      -0.216  -4.072   0.175  0.00  0.00    +0.014 A 
ATOM      8  C   UNL     1      -0.211  -4.825  -1.005  0.00  0.00    +0.024 A 
ATOM      9  C   UNL     1      -0.286  -6.287  -0.967  0.00  0.00    +0.007 A 
ATOM     10  C   UNL     1      -0.279  -6.961  -2.147  0.00  0.00    +0.095 A 
ATOM     11  C   UNL     1      -0.200  -6.248  -3.361  0.00  0.00    +0.285 A 
ATOM     12  O   UNL     1      -0.132  -4.908  -3.389  0.00  0.00    -0.425 OA
ATOM     13  C   UNL     1      -0.136  -4.178  -2.253  0.00  0.00    +0.141 A 
ATOM     14  C   UNL     1      -0.065  -2.794  -2.300  0.00  0.00    +0.070 A 
ATOM     15  H   UNL     1       0.550  -0.122  -0.391  0.00  0.00    +0.155 HD
ENDROOT
BRANCH  11  16
ATOM     16  O   UNL     1      -0.194  -6.865  -4.412  0.00  0.00    -0.480 OA
ATOM     17  H   UNL     1      -0.133  -6.323  -5.367  0.00  0.00    +0.295 HD
ENDBRANCH  11  16
BRANCH   9  18
ATOM     18  C   UNL     1      -0.370  -7.024   0.344  0.00  0.00    +0.268 C 
BRANCH  18  19
ATOM     19  O   UNL     1      -0.432  -8.430   0.098  0.00  0.00    -0.457 OA
BRANCH  19  20
ATOM     20  C   UNL     1      -0.511  -9.238   1.176  0.00  0.00    +0.332 C 
ATOM     21  O   UNL     1      -0.526  -8.760   2.294  0.00  0.00    -0.246 OA
BRANCH  20  22
ATOM     22  C   UNL     1      -0.576 -10.644   1.004  0.00  0.00    +0.092 C 
ATOM     23  C   UNL     1      -0.655 -11.453   2.083  0.00  0.00    +0.015 C 
BRANCH  23  24
ATOM     24  C   UNL     1      -0.722 -12.910   1.906  0.00  0.00    -0.025 A 
ATOM     25  C   UNL     1      -0.711 -13.462   0.619  0.00  0.00    +0.011 A 
ATOM     26  C   UNL     1      -0.769 -14.828   0.459  0.00  0.00    +0.046 A 
ATOM     27  C   UNL     1      -0.850 -15.658   1.571  0.00  0.00    +0.130 A 
ATOM     28  C   UNL     1      -0.868 -15.115   2.850  0.00  0.00    +0.046 A 
ATOM     29  C   UNL     1      -0.804 -13.751   3.022  0.00  0.00    +0.011 A 
BRANCH  27  30
ATOM     30  O   UNL     1      -0.913 -17.004   1.407  0.00  0.00    -0.406 OA
BRANCH  30  31
ATOM     31  C   UNL     1      -0.891 -17.496   0.065  0.00  0.00    +0.575 C 
ATOM     32  F   UNL     1       0.295 -17.096  -0.558  0.00  0.00    -0.133 F 
ATOM     33  F   UNL     1      -0.963 -18.893   0.079  0.00  0.00    -0.133 F 
ATOM     34  F   UNL     1      -1.985 -16.980  -0.639  0.00  0.00    -0.133 F 
ENDBRANCH  30  31
ENDBRANCH  27  30
ENDBRANCH  23  24
ENDBRANCH  20  22
ENDBRANCH  19  20
ENDBRANCH  18  19
ENDBRANCH   9  18
TORSDOF 8
