REMARK  Name = ZINC42926015
REMARK  4 active torsions:
REMARK  status: ('A' for Active; 'I' for Inactive)
REMARK    1  A    between atoms: C_2  and  C_3
REMARK    2  A    between atoms: C_3  and  N_4
REMARK    3  A    between atoms: N_7  and  N_8
REMARK    4  A    between atoms: C_9  and  C_11
REMARK                            x       y       z     vdW  Elec       q    Type
REMARK                         _______ _______ _______ _____ _____    ______ ____
ROOT
ATOM      1  N   UNL     1       1.419  -3.401   3.217  0.00  0.00    -0.229 N 
ATOM      2  C   UNL     1       1.465  -4.262   4.253  0.00  0.00    +0.267 C 
ATOM      3  O   UNL     1       2.448  -4.958   4.422  0.00  0.00    -0.268 OA
ATOM      4  H   UNL     1       0.635  -2.846   3.082  0.00  0.00    +0.173 HD
ENDROOT
BRANCH   2   5
ATOM      5  C   UNL     1       0.330  -4.360   5.176  0.00  0.00    +0.076 A 
ATOM      6  C   UNL     1       0.179  -5.163   6.289  0.00  0.00    +0.024 A 
ATOM      7  C   UNL     1      -1.018  -5.051   6.991  0.00  0.00    -0.036 A 
ATOM      8  C   UNL     1      -1.923  -4.159   6.508  0.00  0.00    -0.006 A 
ATOM      9  S   UNL     1      -1.213  -3.468   5.160  0.00  0.00    -0.088 S 
ATOM     10  C   UNL     1      -3.283  -3.842   7.056  0.00  0.00    +0.043 C 
ATOM     11  C   UNL     1      -3.294  -4.085   8.569  0.00  0.00    +0.005 C 
ATOM     12  C   UNL     1      -3.687  -5.537   8.826  0.00  0.00    +0.001 C 
ATOM     13  C   UNL     1      -2.680  -6.488   8.186  0.00  0.00    +0.005 C 
ATOM     14  C   UNL     1      -1.277  -5.891   8.237  0.00  0.00    +0.036 C 
ENDBRANCH   2   5
BRANCH   1  18
ATOM     15  N   UNL     1       1.367  -1.676   1.111  0.00  0.00    -0.295 N 
ATOM     16  C   UNL     1       2.457  -2.447   1.299  0.00  0.00    +0.316 C 
ATOM     17  O   UNL     1       3.398  -2.366   0.533  0.00  0.00    -0.251 OA
ATOM     18  N   UNL     1       2.503  -3.308   2.335  0.00  0.00    -0.218 N 
ATOM     19  H   UNL     1       0.617  -1.740   1.722  0.00  0.00    +0.151 HD
ATOM     20  H   UNL     1       3.287  -3.863   2.469  0.00  0.00    +0.174 HD
BRANCH  15  21
ATOM     21  C   UNL     1       1.317  -0.740  -0.015  0.00  0.00    +0.132 C 
BRANCH  21  23
ATOM     22  C   UNL     1      -0.016   1.306   0.009  0.00  0.00    +0.005 C 
ATOM     23  C   UNL     1       0.002  -0.004   0.002  0.00  0.00    -0.016 C 
ENDBRANCH  21  23
ENDBRANCH  15  21
ENDBRANCH   1  18
TORSDOF 4
