REMARK  Name = ZINC13640419
REMARK  7 active torsions:
REMARK  status: ('A' for Active; 'I' for Inactive)
REMARK    1  A    between atoms: C_1  and  C_2
REMARK    2  A    between atoms: C_2  and  N_3
REMARK    3  A    between atoms: N_3  and  C_4
REMARK    4  A    between atoms: C_10  and  C_12
REMARK    5  A    between atoms: C_19  and  C_28
REMARK    6  A    between atoms: C_31  and  O_35
REMARK    7  A    between atoms: C_33  and  O_34
REMARK                            x       y       z     vdW  Elec       q    Type
REMARK                         _______ _______ _______ _____ _____    ______ ____
ROOT
ATOM      1  C   UNL     1      -2.333  -1.031   1.805  0.00  0.00    +0.058 A 
ATOM      2  C   UNL     1      -3.243  -0.969   0.748  0.00  0.00    +0.015 A 
ATOM      3  C   UNL     1      -3.135   0.040  -0.184  0.00  0.00    +0.001 A 
ATOM      4  C   UNL     1      -2.133   0.987  -0.073  0.00  0.00    +0.006 A 
ATOM      5  C   UNL     1      -1.221   0.944   0.971  0.00  0.00    -0.019 A 
ATOM      6  C   UNL     1      -1.314  -0.066   1.914  0.00  0.00    +0.044 A 
ATOM      7  N   UNL     1      -0.428  -0.172   2.975  0.00  0.00    -0.336 N 
ATOM      8  C   UNL     1       0.158   1.117   3.342  0.00  0.00    +0.108 C 
ATOM      9  C   UNL     1       0.875   1.715   2.129  0.00  0.00    +0.029 C 
ATOM     10  C   UNL     1      -0.166   2.009   1.027  0.00  0.00    +0.049 C 
ATOM     11  C   UNL     1      -0.769   3.334   1.433  0.00  0.00    -0.023 C 
ATOM     12  C   UNL     1       0.034   3.973   2.246  0.00  0.00    -0.030 C 
ATOM     13  C   UNL     1       1.294   3.167   2.492  0.00  0.00    +0.033 C 
ATOM     14  H   UNL     1       0.291  -0.853   2.779  0.00  0.00    +0.147 HD
ENDROOT
BRANCH   8  15
ATOM     15  C   UNL     1      -0.932   2.055   3.792  0.00  0.00    +0.015 A 
ATOM     16  C   UNL     1      -2.196   1.959   3.242  0.00  0.00    +0.012 A 
ATOM     17  C   UNL     1      -3.198   2.816   3.653  0.00  0.00    +0.046 A 
ATOM     18  C   UNL     1      -2.938   3.776   4.621  0.00  0.00    +0.120 A 
ATOM     19  C   UNL     1      -1.671   3.875   5.175  0.00  0.00    +0.091 A 
ATOM     20  C   UNL     1      -0.668   3.009   4.764  0.00  0.00    +0.125 A 
BRANCH  20  21
ATOM     21  O   UNL     1       0.574   3.099   5.309  0.00  0.00    -0.506 OA
ATOM     22  H   UNL     1       1.131   3.779   4.907  0.00  0.00    +0.292 HD
ENDBRANCH  20  21
BRANCH  18  23
ATOM     23  O   UNL     1      -3.924   4.620   5.025  0.00  0.00    -0.507 OA
ATOM     24  H   UNL     1      -4.441   4.291   5.773  0.00  0.00    +0.292 HD
ENDBRANCH  18  23
ENDBRANCH   8  15
BRANCH   1  26
ATOM     25  N   UNL     1      -3.648  -2.619   3.119  0.00  0.00    -0.268 N 
ATOM     26  C   UNL     1      -2.441  -2.107   2.807  0.00  0.00    +0.253 C 
ATOM     27  O   UNL     1      -1.441  -2.531   3.353  0.00  0.00    -0.270 OA
BRANCH  25  28
ATOM     28  C   UNL     1      -3.772  -3.519   4.182  0.00  0.00    +0.037 A 
ATOM     29  C   UNL     1      -4.980  -4.166   4.408  0.00  0.00    +0.023 A 
ATOM     30  C   UNL     1      -5.098  -5.059   5.456  0.00  0.00    +0.002 A 
ATOM     31  C   UNL     1      -4.018  -5.300   6.285  0.00  0.00    +0.000 A 
ATOM     32  C   UNL     1      -2.816  -4.653   6.066  0.00  0.00    +0.002 A 
ATOM     33  C   UNL     1      -2.690  -3.764   5.017  0.00  0.00    +0.023 A 
ENDBRANCH  25  28
BRANCH  25  35
ATOM     34  C   UNL     1      -5.148  -3.326   1.321  0.00  0.00    +0.025 C 
ATOM     35  C   UNL     1      -4.830  -2.233   2.344  0.00  0.00    +0.110 C 
ENDBRANCH  25  35
ENDBRANCH   1  26
TORSDOF 6
