REMARK  Name = ZINC04178725
REMARK  6 active torsions:
REMARK  status: ('A' for Active; 'I' for Inactive)
REMARK    1  A    between atoms: C_1  and  C_2
REMARK    2  A    between atoms: C_2  and  N_3
REMARK    3  A    between atoms: C_4  and  C_33
REMARK    4  A    between atoms: C_5  and  C_8
REMARK    5  A    between atoms: C_23  and  C_32
REMARK    6  A    between atoms: C_28  and  C_31
REMARK                            x       y       z     vdW  Elec       q    Type
REMARK                         _______ _______ _______ _____ _____    ______ ____
ROOT
ATOM      1  C   UNL     1      -0.402   4.342  -2.294  0.00  0.00    +0.018 C 
ATOM      2  C   UNL     1      -0.027   3.400  -1.395  0.00  0.00    -0.003 C 
ATOM      3  C   UNL     1       1.055   3.571  -0.324  0.00  0.00    +0.043 C 
ATOM      4  C   UNL     1       1.458   2.109  -0.084  0.00  0.00    +0.010 C 
ATOM      5  C   UNL     1       2.274   1.767   1.113  0.00  0.00    -0.003 C 
ATOM      6  C   UNL     1       2.460   2.903   2.116  0.00  0.00    +0.004 C 
ATOM      7  C   UNL     1       3.560   2.462   3.092  0.00  0.00    +0.004 C 
ATOM      8  C   UNL     1       3.155   1.175   3.807  0.00  0.00    -0.005 C 
ATOM      9  C   UNL     1       4.281   0.748   4.750  0.00  0.00    +0.004 C 
ATOM     10  C   UNL     1       5.519   0.352   3.946  0.00  0.00    +0.000 C 
ATOM     11  C   UNL     1       5.177  -0.803   3.005  0.00  0.00    +0.001 C 
ATOM     12  C   UNL     1       4.059  -0.379   2.051  0.00  0.00    +0.007 C 
ATOM     13  C   UNL     1       2.821   0.051   2.825  0.00  0.00    -0.026 C 
ATOM     14  C   UNL     1       1.733   0.548   1.861  0.00  0.00    -0.001 C 
ATOM     15  C   UNL     1       1.247  -0.532   0.916  0.00  0.00    +0.005 C 
ATOM     16  C   UNL     1       0.200  -0.040  -0.092  0.00  0.00    +0.015 C 
ATOM     17  C   UNL     1       0.057   1.457  -0.059  0.00  0.00    +0.034 C 
ATOM     18  C   UNL     1      -0.567   2.090  -1.287  0.00  0.00    +0.165 C 
ATOM     19  O   UNL     1      -1.371   1.563  -2.022  0.00  0.00    -0.292 OA
ATOM     20  C   UNL     1      -0.792   1.909   1.127  0.00  0.00    +0.020 C 
ATOM     21  C   UNL     1       2.259  -1.143   3.610  0.00  0.00    +0.012 C 
ENDROOT
BRANCH   1  24
ATOM     22  N   UNL     1      -2.914   4.096  -4.893  0.00  0.00    -0.268 N 
ATOM     23  C   UNL     1      -1.703   4.502  -4.478  0.00  0.00    +0.043 A 
ATOM     24  C   UNL     1      -1.567   4.111  -3.156  0.00  0.00    +0.016 A 
ATOM     25  C   UNL     1      -2.760   3.441  -2.796  0.00  0.00    +0.142 A 
ATOM     26  N   UNL     1      -3.553   3.443  -3.832  0.00  0.00    -0.179 NA
ATOM     27  C   UNL     1      -0.682   5.246  -5.299  0.00  0.00    +0.066 C 
BRANCH  22  29
ATOM     28  C   UNL     1      -3.100   3.119  -7.127  0.00  0.00    +0.029 C 
ATOM     29  C   UNL     1      -3.474   4.302  -6.231  0.00  0.00    +0.140 C 
ENDBRANCH  22  29
ENDBRANCH   1  24
TORSDOF 2
