REMARK  Name = ZINC38684717
REMARK  17 active torsions:
REMARK  status: ('A' for Active; 'I' for Inactive)
REMARK    1  A    between atoms: C_1  and  C_2
REMARK    2  A    between atoms: C_2  and  C_3
REMARK    3  A    between atoms: C_6  and  O_9
REMARK    4  A    between atoms: O_9  and  C_10
REMARK    5  A    between atoms: C_10  and  C_12
REMARK    6  A    between atoms: C_10  and  C_13
REMARK    7  A    between atoms: C_13  and  O_15
REMARK    8  A    between atoms: O_15  and  C_16
REMARK    9  A    between atoms: C_23  and  N_41
REMARK   10  A    between atoms: C_24  and  C_39
REMARK   11  A    between atoms: C_25  and  C_27
REMARK   12  A    between atoms: C_31  and  O_33
REMARK   13  A    between atoms: O_33  and  C_34
REMARK   14  A    between atoms: C_34  and  C_35
REMARK   15  A    between atoms: C_35  and  C_36
REMARK   16  A    between atoms: C_36  and  C_37
REMARK   17  A    between atoms: C_36  and  C_38
REMARK                            x       y       z     vdW  Elec       q    Type
REMARK                         _______ _______ _______ _____ _____    ______ ____
ROOT
ATOM      1  C   UNL     1      -9.521  -1.813  -1.511  0.00  0.00    +0.135 A 
ATOM      2  C   UNL     1      -9.849  -1.569  -0.185  0.00  0.00    +0.047 A 
ATOM      3  C   UNL     1     -11.161  -1.321   0.167  0.00  0.00    +0.012 A 
ATOM      4  C   UNL     1     -12.152  -1.316  -0.799  0.00  0.00    +0.008 A 
ATOM      5  C   UNL     1     -11.830  -1.559  -2.124  0.00  0.00    +0.138 A 
ATOM      6  C   UNL     1     -10.510  -1.802  -2.481  0.00  0.00    +0.093 A 
ATOM      7  O   UNL     1     -12.788  -1.558  -3.085  0.00  0.00    -0.441 OA
ATOM      8  C   UNL     1     -14.079  -1.706  -2.744  0.00  0.00    +0.199 C 
ATOM      9  C   UNL     1     -14.518  -1.478  -1.484  0.00  0.00    +0.098 C 
ATOM     10  C   UNL     1     -13.577  -1.044  -0.395  0.00  0.00    +0.098 C 
ENDROOT
BRANCH  10  11
ATOM     11  C   UNL     1     -13.752   0.432  -0.143  0.00  0.00    -0.031 A 
ATOM     12  C   UNL     1     -13.516   1.339  -1.161  0.00  0.00    +0.005 A 
ATOM     13  C   UNL     1     -13.675   2.693  -0.933  0.00  0.00    +0.004 A 
ATOM     14  C   UNL     1     -14.070   3.144   0.312  0.00  0.00    +0.045 A 
ATOM     15  C   UNL     1     -14.306   2.237   1.334  0.00  0.00    +0.121 A 
ATOM     16  C   UNL     1     -14.152   0.877   1.101  0.00  0.00    +0.050 A 
BRANCH  15  17
ATOM     17  O   UNL     1     -14.694   2.678   2.559  0.00  0.00    -0.492 OA
BRANCH  17  18
ATOM     18  C   UNL     1     -14.839   4.090   2.725  0.00  0.00    +0.229 C 
BRANCH  18  19
ATOM     19  C   UNL     1     -15.278   4.393   4.159  0.00  0.00    +0.044 C 
BRANCH  19  20
ATOM     20  C   UNL     1     -15.433   5.905   4.336  0.00  0.00    -0.014 C 
ATOM     21  C   UNL     1     -15.992   6.200   5.729  0.00  0.00    +0.007 C 
ATOM     22  C   UNL     1     -14.069   6.579   4.179  0.00  0.00    +0.007 C 
ENDBRANCH  19  20
ENDBRANCH  18  19
ENDBRANCH  17  18
ENDBRANCH  15  17
ENDBRANCH  10  11
BRANCH   8  23
ATOM     23  N   UNL     1     -14.979  -2.100  -3.702  0.00  0.00    -0.328 N 
ATOM     24  H   UNL     1     -14.680  -2.267  -4.609  0.00  0.00    +0.145 HD
ATOM     25  H   UNL     1     -15.915  -2.211  -3.471  0.00  0.00    +0.145 HD
ENDBRANCH   8  23
BRANCH   9  26
ATOM     26  C   UNL     1     -15.907  -1.653  -1.182  0.00  0.00    +0.101 C 
ATOM     27  N   UNL     1     -17.009  -1.792  -0.943  0.00  0.00    -0.191 NA
ENDBRANCH   9  26
BRANCH   1  28
ATOM     28  O   UNL     1      -8.229  -2.057  -1.859  0.00  0.00    -0.423 OA
BRANCH  28  29
ATOM     29  C   UNL     1      -7.657  -3.183  -1.405  0.00  0.00    +0.353 C 
ATOM     30  O   UNL     1      -8.313  -3.989  -0.789  0.00  0.00    -0.246 OA
BRANCH  29  31
ATOM     31  C   UNL     1      -6.195  -3.443  -1.665  0.00  0.00    +0.279 C 
ATOM     32  C   UNL     1      -5.944  -3.482  -3.174  0.00  0.00    +0.064 C 
BRANCH  31  33
ATOM     33  O   UNL     1      -5.824  -4.696  -1.088  0.00  0.00    -0.478 OA
BRANCH  33  37
ATOM     34  C   UNL     1      -1.995  -5.003   0.419  0.00  0.00    -0.047 A 
ATOM     35  C   UNL     1      -2.377  -3.866  -0.269  0.00  0.00    +0.007 A 
ATOM     36  C   UNL     1      -3.659  -3.761  -0.774  0.00  0.00    +0.046 A 
ATOM     37  C   UNL     1      -4.562  -4.798  -0.592  0.00  0.00    +0.122 A 
ATOM     38  C   UNL     1      -4.176  -5.938   0.098  0.00  0.00    +0.046 A 
ATOM     39  C   UNL     1      -2.892  -6.040   0.597  0.00  0.00    +0.007 A 
BRANCH  34  41
ATOM     40  C   UNL     1       0.317  -5.747  -0.083  0.00  0.00    +0.009 C 
ATOM     41  C   UNL     1      -0.597  -5.115   0.969  0.00  0.00    +0.032 C 
ENDBRANCH  34  41
ENDBRANCH  33  37
ENDBRANCH  31  33
ENDBRANCH  29  31
ENDBRANCH  28  29
ENDBRANCH   1  28
TORSDOF 13
