REMARK  Name = ZINC24821661
REMARK  10 active torsions:
REMARK  status: ('A' for Active; 'I' for Inactive)
REMARK    1  A    between atoms: C_1  and  C_2
REMARK    2  A    between atoms: C_2  and  C_27
REMARK    3  A    between atoms: N_5  and  N_9
REMARK    4  A    between atoms: C_10  and  C_12
REMARK    5  A    between atoms: C_12  and  N_13
REMARK    6  A    between atoms: C_17  and  C_19
REMARK    7  A    between atoms: C_22  and  O_25
REMARK    8  A    between atoms: O_25  and  C_26
REMARK    9  A    between atoms: C_27  and  C_28
REMARK   10  A    between atoms: C_28  and  C_29
REMARK                            x       y       z     vdW  Elec       q    Type
REMARK                         _______ _______ _______ _____ _____    ______ ____
ROOT
ATOM      1  N   UNL     1       3.547   0.848  -0.126  0.00  0.00    -0.225 N 
ATOM      2  C   UNL     1       4.204   0.484  -1.244  0.00  0.00    +0.213 C 
ATOM      3  O   UNL     1       3.618   0.444  -2.306  0.00  0.00    -0.276 OA
ATOM      4  H   UNL     1       4.078   0.885   0.837  0.00  0.00    +0.173 HD
ENDROOT
BRANCH   1   9
ATOM      5  C   UNL     1      -0.309   3.049  -1.468  0.00  0.00    +0.041 C 
ATOM      6  C   UNL     1       0.205   2.316  -0.228  0.00  0.00    +0.112 C 
ATOM      7  C   UNL     1       1.712   2.440  -0.120  0.00  0.00    +0.263 C 
ATOM      8  O   UNL     1       2.355   3.460   0.001  0.00  0.00    -0.271 OA
ATOM      9  N   UNL     1       2.187   1.181  -0.188  0.00  0.00    -0.137 N 
ATOM     10  C   UNL     1       1.200   0.287  -0.322  0.00  0.00    +0.326 C 
ATOM     11  O   UNL     1       1.381  -0.912  -0.405  0.00  0.00    -0.251 OA
ATOM     12  N   UNL     1      -0.015   0.864  -0.356  0.00  0.00    -0.284 N 
ATOM     13  H   UNL     1      -1.036   0.469  -0.453  0.00  0.00    +0.151 HD
BRANCH   6  14
ATOM     14  C   UNL     1      -0.471   2.853   1.035  0.00  0.00    +0.040 C 
BRANCH  14  15
ATOM     15  C   UNL     1      -1.961   2.505   1.004  0.00  0.00    +0.038 C 
BRANCH  15  16
ATOM     16  C   UNL     1      -2.627   3.034   2.248  0.00  0.00    -0.047 A 
ATOM     17  C   UNL     1      -2.708   2.243   3.378  0.00  0.00    +0.003 A 
ATOM     18  C   UNL     1      -3.314   2.730   4.521  0.00  0.00    +0.000 A 
ATOM     19  C   UNL     1      -3.849   4.005   4.530  0.00  0.00    +0.000 A 
ATOM     20  C   UNL     1      -3.772   4.795   3.398  0.00  0.00    +0.000 A 
ATOM     21  C   UNL     1      -3.161   4.309   2.257  0.00  0.00    +0.003 A 
ENDBRANCH  15  16
ENDBRANCH  14  15
ENDBRANCH   6  14
ENDBRANCH   1   9
BRANCH   2  22
ATOM     22  C   UNL     1       5.666   0.126  -1.177  0.00  0.00    +0.021 C 
BRANCH  22  23
ATOM     23  N   UNL     1       6.109  -0.374  -2.485  0.00  0.00    +0.390 N 
ATOM     24  C   UNL     1       5.442  -1.652  -2.817  0.00  0.00    -0.077 C 
ATOM     25  C   UNL     1       6.456  -2.498  -3.609  0.00  0.00    -0.020 C 
ATOM     26  C   UNL     1       7.737  -1.636  -3.675  0.00  0.00    -0.013 C 
ATOM     27  C   UNL     1       7.565  -0.667  -2.478  0.00  0.00    -0.037 C 
ATOM     28  H   UNL     1       5.853   0.413  -3.209  0.00  0.00    -0.080 HD
BRANCH  27  29
ATOM     29  C   UNL     1       8.362   0.593  -2.695  0.00  0.00    -0.061 A 
ATOM     30  C   UNL     1       7.931   1.532  -3.614  0.00  0.00    +0.005 A 
ATOM     31  C   UNL     1       8.657   2.691  -3.811  0.00  0.00    +0.046 A 
ATOM     32  C   UNL     1       9.825   2.907  -3.094  0.00  0.00    +0.120 A 
ATOM     33  C   UNL     1      10.258   1.960  -2.177  0.00  0.00    +0.046 A 
ATOM     34  C   UNL     1       9.525   0.806  -1.980  0.00  0.00    +0.005 A 
BRANCH  32  35
ATOM     35  O   UNL     1      10.543   4.044  -3.289  0.00  0.00    -0.495 OA
ATOM     36  C   UNL     1      10.038   4.974  -4.249  0.00  0.00    +0.277 C 
ENDBRANCH  32  35
ENDBRANCH  27  29
ENDBRANCH  22  23
ENDBRANCH   2  22
TORSDOF 8
