REMARK  Name = ZINC13363077
REMARK  7 active torsions:
REMARK  status: ('A' for Active; 'I' for Inactive)
REMARK    1  A    between atoms: C_1  and  O_2
REMARK    2  A    between atoms: O_2  and  C_3
REMARK    3  A    between atoms: C_6  and  S_11
REMARK    4  A    between atoms: C_8  and  O_9
REMARK    5  A    between atoms: O_9  and  C_10
REMARK    6  A    between atoms: S_11  and  N_14
REMARK    7  A    between atoms: C_23  and  C_25
REMARK                            x       y       z     vdW  Elec       q    Type
REMARK                         _______ _______ _______ _____ _____    ______ ____
ROOT
ATOM      1  N   UNL     1       1.361   7.802   0.031  0.00  0.00    -0.176 NA
ATOM      2  C   UNL     1       1.508   7.078  -1.239  0.00  0.00    +0.113 C 
ATOM      3  C   UNL     1       2.861   6.361  -1.244  0.00  0.00    +0.067 C 
ATOM      4  C   UNL     1       2.975   5.484   0.003  0.00  0.00    +0.130 C 
ATOM      5  C   UNL     1       2.885   6.347   1.262  0.00  0.00    +0.067 C 
ATOM      6  C   UNL     1       1.531   7.064   1.290  0.00  0.00    +0.113 C 
ATOM      7  N   UNL     1       4.249   4.756  -0.013  0.00  0.00    -0.286 N 
ATOM      8  C   UNL     1       3.944   3.442  -0.011  0.00  0.00    +0.265 C 
ATOM      9  O   UNL     1       4.744   2.528  -0.018  0.00  0.00    -0.268 OA
ATOM     10  C   UNL     1       2.465   3.299  -0.004  0.00  0.00    +0.136 C 
ATOM     11  N   UNL     1       1.911   4.477   0.007  0.00  0.00    -0.252 NA
ATOM     12  H   UNL     1       5.138   5.144  -0.019  0.00  0.00    +0.151 HD
ENDROOT
BRANCH  10  13
ATOM     13  C   UNL     1       1.738   2.022  -0.004  0.00  0.00    +0.042 A 
ATOM     14  C   UNL     1       2.241   0.730  -0.015  0.00  0.00    +0.018 A 
ATOM     15  C   UNL     1       1.329  -0.296  -0.012  0.00  0.00    +0.008 A 
ATOM     16  C   UNL     1       0.002  -0.004   0.002  0.00  0.00    +0.046 A 
ATOM     17  S   UNL     1      -0.021   1.729   0.012  0.00  0.00    -0.095 S 
ENDBRANCH  10  13
BRANCH   1  18
ATOM     18  S   UNL     1       1.012   9.421   0.044  0.00  0.00    +0.061 S 
ATOM     19  O   UNL     1       1.476   9.927   1.288  0.00  0.00    -0.153 OA
ATOM     20  O   UNL     1       1.454   9.941  -1.203  0.00  0.00    -0.153 OA
BRANCH  18  24
ATOM     21  C   UNL     1      -3.502   9.818   0.081  0.00  0.00    +0.162 A 
ATOM     22  C   UNL     1      -2.818   9.764  -1.123  0.00  0.00    +0.051 A 
ATOM     23  C   UNL     1      -1.440   9.649  -1.131  0.00  0.00    +0.032 A 
ATOM     24  C   UNL     1      -0.743   9.576   0.060  0.00  0.00    +0.109 A 
ATOM     25  C   UNL     1      -1.419   9.629   1.265  0.00  0.00    +0.078 A 
ATOM     26  C   UNL     1      -2.799   9.751   1.280  0.00  0.00    +0.163 A 
BRANCH  21  28
ATOM     27  C   UNL     1      -5.511  10.001  -1.178  0.00  0.00    +0.277 C 
ATOM     28  O   UNL     1      -4.856   9.937   0.090  0.00  0.00    -0.491 OA
ENDBRANCH  21  28
BRANCH  26  29
ATOM     29  O   UNL     1      -3.466   9.803   2.464  0.00  0.00    -0.491 OA
ATOM     30  C   UNL     1      -2.680   9.727   3.655  0.00  0.00    +0.277 C 
ENDBRANCH  26  29
ENDBRANCH  18  24
ENDBRANCH   1  18
TORSDOF 5
