REMARK  Name = ZINC61881907
REMARK  11 active torsions:
REMARK  status: ('A' for Active; 'I' for Inactive)
REMARK    1  A    between atoms: C_1  and  C_2
REMARK    2  A    between atoms: C_2  and  C_3
REMARK    3  A    between atoms: C_2  and  C_4
REMARK    4  A    between atoms: C_4  and  N_5
REMARK    5  A    between atoms: N_5  and  C_6
REMARK    6  A    between atoms: N_5  and  S_10
REMARK    7  A    between atoms: C_6  and  C_7
REMARK    8  A    between atoms: C_7  and  C_8
REMARK    9  A    between atoms: C_7  and  C_9
REMARK   10  A    between atoms: S_10  and  C_13
REMARK   11  A    between atoms: C_17  and  N_20
REMARK                            x       y       z     vdW  Elec       q    Type
REMARK                         _______ _______ _______ _____ _____    ______ ____
ROOT
ATOM      1  S   UNL     1      -0.716   1.878   3.735  0.00  0.00    +0.062 S 
ATOM      2  O   UNL     1      -1.643   1.782   4.808  0.00  0.00    -0.153 OA
ATOM      3  O   UNL     1       0.514   2.580   3.852  0.00  0.00    -0.153 OA
ENDROOT
BRANCH   1   4
ATOM      4  C   UNL     1      -1.583   2.602   2.383  0.00  0.00    +0.123 A 
ATOM      5  C   UNL     1      -2.934   2.874   2.495  0.00  0.00    +0.049 A 
ATOM      6  C   UNL     1      -3.619   3.443   1.435  0.00  0.00    +0.045 A 
ATOM      7  C   UNL     1      -2.953   3.742   0.261  0.00  0.00    +0.044 A 
ATOM      8  C   UNL     1      -1.596   3.470   0.146  0.00  0.00    +0.042 A 
ATOM      9  C   UNL     1      -0.911   2.903   1.214  0.00  0.00    +0.065 A 
ATOM     10 BR   UNL     1       0.939   2.538   1.065  0.00  0.00    -0.046 Br
ATOM     11 CL   UNL     1      -5.315   3.782   1.581  0.00  0.00    -0.083 Cl
BRANCH   8  12
ATOM     12  N   UNL     1      -0.921   3.770  -1.040  0.00  0.00    -0.357 N 
ATOM     13  H   UNL     1      -1.399   4.169  -1.783  0.00  0.00    +0.142 HD
ATOM     14  H   UNL     1       0.027   3.580  -1.119  0.00  0.00    +0.142 HD
ENDBRANCH   8  12
ENDBRANCH   1   4
BRANCH   1  15
ATOM     15  N   UNL     1      -0.336   0.327   3.299  0.00  0.00    -0.176 NA
BRANCH  15  16
ATOM     16  C   UNL     1       1.060  -0.044   3.052  0.00  0.00    +0.112 C 
BRANCH  16  18
ATOM     17  C   UNL     1       1.338  -0.715   5.443  0.00  0.00    +0.008 C 
ATOM     18  C   UNL     1       1.879   0.179   4.325  0.00  0.00    -0.001 C 
ATOM     19  C   UNL     1       3.344  -0.171   4.057  0.00  0.00    +0.008 C 
ENDBRANCH  16  18
ENDBRANCH  15  16
BRANCH  15  20
ATOM     20  C   UNL     1      -1.395  -0.675   3.159  0.00  0.00    +0.112 C 
BRANCH  20  21
ATOM     21  C   UNL     1      -1.324  -1.660   4.328  0.00  0.00    -0.001 C 
ATOM     22  C   UNL     1      -2.717  -2.231   4.599  0.00  0.00    +0.008 C 
ATOM     23  C   UNL     1      -0.365  -2.799   3.977  0.00  0.00    +0.008 C 
ENDBRANCH  20  21
ENDBRANCH  15  20
ENDBRANCH   1  15
TORSDOF 7
