REMARK  Name = ZINC09183772
REMARK  7 active torsions:
REMARK  status: ('A' for Active; 'I' for Inactive)
REMARK    1  A    between atoms: C_1  and  C_2
REMARK    2  A    between atoms: C_2  and  C_35
REMARK    3  A    between atoms: C_8  and  O_19
REMARK    4  A    between atoms: O_19  and  C_20
REMARK    5  A    between atoms: C_20  and  C_21
REMARK    6  A    between atoms: N_23  and  C_24
REMARK    7  A    between atoms: C_31  and  O_33
REMARK                            x       y       z     vdW  Elec       q    Type
REMARK                         _______ _______ _______ _____ _____    ______ ____
ROOT
ATOM      1  C   UNL     1     -10.887  -1.208  -5.173  0.00  0.00    +0.055 C 
ATOM      2  C   UNL     1      -9.739  -1.962  -5.847  0.00  0.00    +0.105 C 
ATOM      3  C   UNL     1      -9.741  -1.667  -7.352  0.00  0.00    +0.052 C 
ATOM      4  C   UNL     1      -9.685  -0.149  -7.543  0.00  0.00    +0.046 C 
ATOM      5  C   UNL     1      -8.598   0.433  -6.677  0.00  0.00    +0.038 A 
ATOM      6  C   UNL     1      -8.070  -0.272  -5.609  0.00  0.00    +0.131 A 
ATOM      7  C   UNL     1      -7.068   0.294  -4.819  0.00  0.00    +0.092 A 
ATOM      8  C   UNL     1      -6.595   1.562  -5.085  0.00  0.00    +0.136 A 
ATOM      9  C   UNL     1      -7.121   2.283  -6.172  0.00  0.00    +0.063 A 
ATOM     10  C   UNL     1      -8.129   1.709  -6.966  0.00  0.00    +0.149 A 
ATOM     11  O   UNL     1      -8.638   2.401  -8.009  0.00  0.00    -0.421 OA
ATOM     12  C   UNL     1      -8.192   3.634  -8.302  0.00  0.00    +0.341 A 
ATOM     13  O   UNL     1      -8.669   4.233  -9.249  0.00  0.00    -0.245 OA
ATOM     14  C   UNL     1      -7.178   4.248  -7.533  0.00  0.00    +0.041 A 
ATOM     15  C   UNL     1      -6.644   3.584  -6.477  0.00  0.00    -0.023 A 
ATOM     16  C   UNL     1      -5.585   4.431  -5.808  0.00  0.00    +0.037 C 
ATOM     17  C   UNL     1      -5.231   5.521  -6.842  0.00  0.00    +0.010 C 
ATOM     18  C   UNL     1      -6.528   5.607  -7.675  0.00  0.00    +0.043 C 
ATOM     19  O   UNL     1      -8.493  -1.526  -5.304  0.00  0.00    -0.486 OA
ATOM     20  C   UNL     1      -9.904  -3.465  -5.615  0.00  0.00    +0.055 C 
ENDROOT
BRANCH   8  21
ATOM     21  O   UNL     1      -5.625   2.107  -4.308  0.00  0.00    -0.482 OA
BRANCH  21  22
ATOM     22  C   UNL     1      -5.141   1.314  -3.223  0.00  0.00    +0.324 C 
BRANCH  22  23
ATOM     23  C   UNL     1      -4.077   2.078  -2.478  0.00  0.00    +0.251 C 
ATOM     24  O   UNL     1      -3.764   3.192  -2.841  0.00  0.00    -0.272 OA
ATOM     25  N   UNL     1      -3.473   1.524  -1.409  0.00  0.00    -0.306 N 
ATOM     26  H   UNL     1      -3.723   0.632  -1.118  0.00  0.00    +0.149 HD
BRANCH  25  27
ATOM     27  C   UNL     1      -2.438   2.266  -0.685  0.00  0.00    +0.124 C 
ATOM     28  C   UNL     1      -1.080   2.015  -1.369  0.00  0.00    +0.190 C 
ATOM     29  S   UNL     1      -0.017   1.417   0.010  0.00  0.00    -0.027 S 
ATOM     30  O   UNL     1       0.002  -0.004   0.002  0.00  0.00    -0.174 OA
ATOM     31  O   UNL     1       1.208   2.136   0.002  0.00  0.00    -0.174 OA
ATOM     32  C   UNL     1      -1.056   2.002   1.420  0.00  0.00    +0.199 C 
ATOM     33  C   UNL     1      -2.467   1.843   0.783  0.00  0.00    +0.157 C 
BRANCH  33  34
ATOM     34  O   UNL     1      -3.401   2.659   1.492  0.00  0.00    -0.388 OA
ATOM     35  H   UNL     1      -3.474   2.448   2.433  0.00  0.00    +0.210 HD
ENDBRANCH  33  34
ENDBRANCH  25  27
ENDBRANCH  22  23
ENDBRANCH  21  22
ENDBRANCH   8  21
TORSDOF 5
