REMARK  Name = ZINC63648872
REMARK  12 active torsions:
REMARK  status: ('A' for Active; 'I' for Inactive)
REMARK    1  A    between atoms: C_1  and  C_2
REMARK    2  A    between atoms: C_4  and  C_35
REMARK    3  A    between atoms: C_6  and  N_8
REMARK    4  A    between atoms: C_11  and  C_28
REMARK    5  A    between atoms: N_15  and  C_16
REMARK    6  A    between atoms: N_15  and  C_21
REMARK    7  A    between atoms: C_16  and  C_17
REMARK    8  A    between atoms: C_17  and  N_18
REMARK    9  A    between atoms: N_18  and  C_19
REMARK   10  A    between atoms: N_18  and  C_20
REMARK   11  A    between atoms: C_21  and  C_22
REMARK   12  A    between atoms: C_28  and  C_29
REMARK                            x       y       z     vdW  Elec       q    Type
REMARK                         _______ _______ _______ _____ _____    ______ ____
ROOT
ATOM      1  N   UNL     1      -0.186  -2.705   1.987  0.00  0.00    -0.212 N 
ATOM      2  C   UNL     1      -0.360  -4.039   1.878  0.00  0.00    +0.249 C 
ATOM      3  O   UNL     1      -0.492  -4.685   0.860  0.00  0.00    -0.273 OA
ATOM      4  C   UNL     1      -0.354  -4.556   3.303  0.00  0.00    +0.173 C 
ATOM      5  N   UNL     1      -0.160  -3.347   4.118  0.00  0.00    -0.349 N 
ATOM      6  C   UNL     1      -0.068  -2.339   3.307  0.00  0.00    +0.171 C 
ATOM      7  N   UNL     1       0.124  -1.043   3.723  0.00  0.00    -0.302 N 
ATOM      8  H   UNL     1      -0.107  -3.311   5.086  0.00  0.00    +0.163 HD
ENDROOT
BRANCH   1  14
ATOM      9  C   UNL     1       2.392   0.447  -0.771  0.00  0.00    +0.044 C 
ATOM     10  C   UNL     1       1.108  -0.276  -0.454  0.00  0.00    -0.048 A 
ATOM     11  C   UNL     1      -0.015  -0.063  -1.232  0.00  0.00    +0.006 A 
ATOM     12  C   UNL     1      -1.195  -0.724  -0.944  0.00  0.00    -0.048 A 
ATOM     13  C   UNL     1      -1.255  -1.600   0.122  0.00  0.00    +0.027 A 
ATOM     14  C   UNL     1      -0.129  -1.817   0.905  0.00  0.00    +0.044 A 
ATOM     15  C   UNL     1       1.056  -1.156   0.610  0.00  0.00    +0.027 A 
ATOM     16  C   UNL     1      -2.417  -0.488  -1.794  0.00  0.00    +0.044 C 
ENDBRANCH   1  14
BRANCH   7  17
ATOM     17  C   UNL     1       1.010  -0.760   4.855  0.00  0.00    +0.089 C 
BRANCH  17  18
ATOM     18  C   UNL     1       2.434  -0.537   4.345  0.00  0.00    -0.060 C 
BRANCH  18  19
ATOM     19  N   UNL     1       3.322  -0.254   5.480  0.00  0.00    +0.377 N 
ATOM     20  C   UNL     1       3.401  -1.437   6.347  0.00  0.00    -0.097 C 
ATOM     21  C   UNL     1       4.664   0.078   4.982  0.00  0.00    -0.097 C 
ATOM     22  H   UNL     1       2.957   0.526   6.007  0.00  0.00    -0.083 HD
ENDBRANCH  18  19
ENDBRANCH  17  18
ENDBRANCH   7  17
BRANCH   7  23
ATOM     23  C   UNL     1      -0.557   0.056   3.034  0.00  0.00    +0.142 C 
BRANCH  23  24
ATOM     24  C   UNL     1      -1.829   0.398   3.767  0.00  0.00    -0.030 A 
ATOM     25  C   UNL     1      -2.986  -0.315   3.514  0.00  0.00    +0.005 A 
ATOM     26  C   UNL     1      -4.152  -0.001   4.186  0.00  0.00    +0.000 A 
ATOM     27  C   UNL     1      -4.161   1.024   5.113  0.00  0.00    +0.000 A 
ATOM     28  C   UNL     1      -3.003   1.736   5.368  0.00  0.00    +0.000 A 
ATOM     29  C   UNL     1      -1.836   1.420   4.698  0.00  0.00    +0.005 A 
ENDBRANCH  23  24
ENDBRANCH   7  23
BRANCH   4  30
ATOM     30  C   UNL     1      -1.689  -5.225   3.637  0.00  0.00    +0.069 C 
BRANCH  30  31
ATOM     31  C   UNL     1      -1.626  -5.806   5.026  0.00  0.00    -0.045 A 
ATOM     32  C   UNL     1      -1.187  -7.104   5.213  0.00  0.00    +0.004 A 
ATOM     33  C   UNL     1      -1.130  -7.637   6.487  0.00  0.00    +0.000 A 
ATOM     34  C   UNL     1      -1.510  -6.872   7.574  0.00  0.00    +0.000 A 
ATOM     35  C   UNL     1      -1.948  -5.574   7.387  0.00  0.00    +0.000 A 
ATOM     36  C   UNL     1      -2.001  -5.040   6.114  0.00  0.00    +0.004 A 
ENDBRANCH  30  31
ENDBRANCH   4  30
TORSDOF 8
