REMARK  Name = ZINC39029895
REMARK  7 active torsions:
REMARK  status: ('A' for Active; 'I' for Inactive)
REMARK    1  A    between atoms: C_1  and  C_2
REMARK    2  A    between atoms: C_2  and  O_3
REMARK    3  A    between atoms: O_3  and  C_4
REMARK    4  A    between atoms: C_11  and  S_14
REMARK    5  A    between atoms: S_14  and  C_15
REMARK    6  A    between atoms: C_15  and  C_16
REMARK    7  A    between atoms: C_16  and  N_18
REMARK                            x       y       z     vdW  Elec       q    Type
REMARK                         _______ _______ _______ _____ _____    ______ ____
ROOT
ATOM      1  S   UNL     1      -3.883  -7.395  -1.502  0.00  0.00    -0.118 S 
ENDROOT
BRANCH   1   9
ATOM      2  C   UNL     1      -1.498  -1.849   0.006  0.00  0.00    +0.122 A 
ATOM      3  C   UNL     1      -0.395  -2.690  -0.003  0.00  0.00    +0.047 A 
ATOM      4  C   UNL     1      -0.546  -4.057  -0.008  0.00  0.00    +0.027 A 
ATOM      5  C   UNL     1      -1.821  -4.651  -0.005  0.00  0.00    +0.042 A 
ATOM      6  C   UNL     1      -2.913  -3.779   0.004  0.00  0.00    +0.035 A 
ATOM      7  C   UNL     1      -2.769  -2.410   0.016  0.00  0.00    +0.062 A 
ATOM      8  S   UNL     1      -4.348  -4.831   0.006  0.00  0.00    -0.090 S 
ATOM      9  C   UNL     1      -3.482  -6.452  -0.006  0.00  0.00    +0.193 C 
ATOM     10  N   UNL     1      -2.077  -6.024  -0.010  0.00  0.00    -0.323 N 
ATOM     11  H   UNL     1      -1.354  -6.671  -0.016  0.00  0.00    +0.148 HD
BRANCH   2  12
ATOM     12  O   UNL     1      -1.339  -0.499   0.012  0.00  0.00    -0.492 OA
BRANCH  12  14
ATOM     13  C   UNL     1      -0.019   1.526   0.010  0.00  0.00    +0.048 C 
ATOM     14  C   UNL     1       0.002  -0.004   0.002  0.00  0.00    +0.225 C 
ENDBRANCH  12  14
ENDBRANCH   2  12
ENDBRANCH   1   9
BRANCH   1  15
ATOM     15  C   UNL     1      -3.356  -6.312  -2.858  0.00  0.00    +0.169 C 
BRANCH  15  16
ATOM     16  C   UNL     1      -3.636  -6.985  -4.177  0.00  0.00    +0.248 C 
ATOM     17  O   UNL     1      -4.143  -8.090  -4.200  0.00  0.00    -0.273 OA
BRANCH  16  18
ATOM     18  N   UNL     1      -3.329  -6.371  -5.315  0.00  0.00    -0.156 NA
ATOM     19  C   UNL     1      -3.577  -6.965  -6.480  0.00  0.00    +0.164 A 
ATOM     20  N   UNL     1      -3.326  -6.491  -7.726  0.00  0.00    -0.335 N 
ATOM     21  H   UNL     1      -2.918  -5.619  -7.842  0.00  0.00    +0.168 HD
ATOM     22  C   UNL     1      -3.653  -7.254  -8.831  0.00  0.00    +0.055 A 
ATOM     23  C   UNL     1      -3.484  -6.961 -10.191  0.00  0.00    +0.027 A 
ATOM     24  C   UNL     1      -3.877  -7.859 -11.156  0.00  0.00    +0.002 A 
ATOM     25  C   UNL     1      -4.450  -9.073 -10.814  0.00  0.00    +0.001 A 
ATOM     26  C   UNL     1      -4.628  -9.387  -9.478  0.00  0.00    +0.017 A 
ATOM     27  C   UNL     1      -4.235  -8.490  -8.513  0.00  0.00    +0.039 A 
ATOM     28  S   UNL     1      -4.265  -8.477  -6.740  0.00  0.00    -0.052 S 
ENDBRANCH  16  18
ENDBRANCH  15  16
ENDBRANCH   1  15
TORSDOF 6
