REMARK  Name = ZINC35310536
REMARK  6 active torsions:
REMARK  status: ('A' for Active; 'I' for Inactive)
REMARK    1  A    between atoms: C_1  and  C_2
REMARK    2  A    between atoms: C_2  and  C_3
REMARK    3  A    between atoms: C_2  and  C_4
REMARK    4  A    between atoms: C_4  and  C_5
REMARK    5  A    between atoms: C_5  and  N_6
REMARK    6  A    between atoms: C_7  and  C_9
REMARK                            x       y       z     vdW  Elec       q    Type
REMARK                         _______ _______ _______ _____ _____    ______ ____
ROOT
ATOM      1  C   UNL     1       0.888  -0.881   6.133  0.00  0.00    +0.076 C 
ATOM      2  C   UNL     1       0.842  -2.432   6.205  0.00  0.00    -0.003 C 
ATOM      3  C   UNL     1       0.976  -2.682   7.726  0.00  0.00    -0.066 C 
ATOM      4  C   UNL     1       0.281  -4.005   8.083  0.00  0.00    -0.017 C 
ATOM      5  C   UNL     1      -0.920  -3.607   8.969  0.00  0.00    -0.020 C 
ATOM      6  C   UNL     1      -1.171  -2.132   8.569  0.00  0.00    -0.077 C 
ATOM      7  N   UNL     1       0.210  -1.578   8.362  0.00  0.00    +0.394 N 
ATOM      8  C   UNL     1       0.158  -0.454   7.415  0.00  0.00    +0.052 C 
ATOM      9  C   UNL     1       0.779   0.787   7.997  0.00  0.00    -0.027 A 
ATOM     10  C   UNL     1       2.040   1.081   8.467  0.00  0.00    +0.004 A 
ATOM     11  C   UNL     1       2.319   2.345   8.956  0.00  0.00    +0.000 A 
ATOM     12  C   UNL     1       1.330   3.311   8.969  0.00  0.00    +0.002 A 
ATOM     13  C   UNL     1       0.066   3.022   8.499  0.00  0.00    +0.023 A 
ATOM     14  C   UNL     1      -0.223   1.751   8.005  0.00  0.00    +0.036 A 
ATOM     15  N   UNL     1      -1.405   1.223   7.482  0.00  0.00    -0.286 N 
ATOM     16  C   UNL     1      -1.266  -0.064   7.112  0.00  0.00    +0.212 C 
ATOM     17  O   UNL     1      -2.123  -0.773   6.628  0.00  0.00    -0.277 OA
ATOM     18  H   UNL     1      -2.230   1.725   7.395  0.00  0.00    +0.155 HD
ATOM     19  H   UNL     1       0.631  -1.305   9.238  0.00  0.00    -0.079 HD
ENDROOT
BRANCH   1  21
ATOM     20  N   UNL     1       0.366   0.874   4.470  0.00  0.00    -0.315 N 
ATOM     21  C   UNL     1       0.159  -0.382   4.912  0.00  0.00    +0.216 C 
ATOM     22  O   UNL     1      -0.614  -1.111   4.327  0.00  0.00    -0.276 OA
ATOM     23  H   UNL     1       0.984   1.457   4.938  0.00  0.00    +0.149 HD
BRANCH  20  24
ATOM     24  C   UNL     1      -0.343   1.360   3.283  0.00  0.00    +0.104 C 
BRANCH  24  25
ATOM     25  C   UNL     1       0.069   2.805   2.999  0.00  0.00    +0.022 C 
BRANCH  25  27
ATOM     26  C   UNL     1      -2.172   3.369   2.049  0.00  0.00    +0.007 C 
ATOM     27  C   UNL     1      -0.671   3.312   1.760  0.00  0.00    -0.016 C 
ATOM     28  C   UNL     1      -0.167   4.712   1.402  0.00  0.00    +0.007 C 
ENDBRANCH  25  27
ENDBRANCH  24  25
ENDBRANCH  20  24
ENDBRANCH   1  21
TORSDOF 4
