REMARK  Name = ZINC20577756
REMARK  7 active torsions:
REMARK  status: ('A' for Active; 'I' for Inactive)
REMARK    1  A    between atoms: C_1  and  C_2
REMARK    2  A    between atoms: C_2  and  C_35
REMARK    3  A    between atoms: C_6  and  S_13
REMARK    4  A    between atoms: S_13  and  N_16
REMARK    5  A    between atoms: N_19  and  C_22
REMARK    6  A    between atoms: C_22  and  C_23
REMARK    7  A    between atoms: C_22  and  C_29
REMARK                            x       y       z     vdW  Elec       q    Type
REMARK                         _______ _______ _______ _____ _____    ______ ____
ROOT
ATOM      1  N   UNL     1      -2.288  -1.869   3.095  0.00  0.00    -0.174 NA
ATOM      2  C   UNL     1      -2.325  -2.508   1.771  0.00  0.00    +0.125 C 
ATOM      3  C   UNL     1      -1.126  -2.010   0.957  0.00  0.00    +0.102 C 
ATOM      4  N   UNL     1      -1.127  -0.541   0.938  0.00  0.00    -0.289 NA
ATOM      5  C   UNL     1      -0.959   0.009   2.290  0.00  0.00    +0.102 C 
ATOM      6  C   UNL     1      -2.151  -0.406   3.158  0.00  0.00    +0.125 C 
ENDROOT
BRANCH   1   7
ATOM      7  S   UNL     1      -2.398  -2.773   4.478  0.00  0.00    +0.061 S 
ATOM      8  O   UNL     1      -2.887  -1.907   5.492  0.00  0.00    -0.153 OA
ATOM      9  O   UNL     1      -3.058  -3.980   4.123  0.00  0.00    -0.153 OA
BRANCH   7  15
ATOM     10  C   UNL     1       0.962  -0.079   7.503  0.00  0.00    +0.039 C 
ATOM     11  C   UNL     1       2.181  -0.946   7.681  0.00  0.00    -0.063 C 
ATOM     12  C   UNL     1       2.286  -2.105   7.008  0.00  0.00    +0.045 C 
ATOM     13  C   UNL     1       1.262  -2.747   6.146  0.00  0.00    +0.010 A 
ATOM     14  C   UNL     1      -0.032  -2.393   5.782  0.00  0.00    +0.039 A 
ATOM     15  C   UNL     1      -0.756  -3.216   4.943  0.00  0.00    +0.106 A 
ATOM     16  C   UNL     1      -0.197  -4.391   4.470  0.00  0.00    +0.030 A 
ATOM     17  C   UNL     1       1.089  -4.747   4.822  0.00  0.00    +0.026 A 
ATOM     18  C   UNL     1       1.834  -3.931   5.667  0.00  0.00    +0.042 A 
ATOM     19  N   UNL     1       3.124  -4.057   6.171  0.00  0.00    -0.281 N 
ATOM     20  C   UNL     1       3.448  -3.021   6.962  0.00  0.00    +0.249 C 
ATOM     21  O   UNL     1       4.508  -2.863   7.538  0.00  0.00    -0.270 OA
ATOM     22  C   UNL     1       3.283  -0.515   8.614  0.00  0.00    +0.039 C 
ATOM     23  H   UNL     1       3.736  -4.931   5.903  0.00  0.00    +0.155 HD
ENDBRANCH   7  15
ENDBRANCH   1   7
BRANCH   4  24
ATOM     24  C   UNL     1      -0.095  -0.026   0.028  0.00  0.00    +0.117 C 
BRANCH  24  25
ATOM     25  C   UNL     1      -0.126   1.481   0.035  0.00  0.00    -0.026 A 
ATOM     26  C   UNL     1      -1.337   2.147   0.058  0.00  0.00    +0.005 A 
ATOM     27  C   UNL     1      -1.366   3.529   0.070  0.00  0.00    +0.000 A 
ATOM     28  C   UNL     1      -0.183   4.245   0.048  0.00  0.00    +0.000 A 
ATOM     29  C   UNL     1       1.028   3.579   0.019  0.00  0.00    +0.000 A 
ATOM     30  C   UNL     1       1.056   2.197   0.013  0.00  0.00    +0.005 A 
ENDBRANCH  24  25
BRANCH  24  31
ATOM     31  C   UNL     1      -0.362  -0.527  -1.368  0.00  0.00    -0.026 A 
ATOM     32  C   UNL     1      -1.658  -0.591  -1.844  0.00  0.00    +0.005 A 
ATOM     33  C   UNL     1      -1.902  -1.046  -3.127  0.00  0.00    +0.000 A 
ATOM     34  C   UNL     1      -0.850  -1.446  -3.929  0.00  0.00    +0.000 A 
ATOM     35  C   UNL     1       0.446  -1.387  -3.452  0.00  0.00    +0.000 A 
ATOM     36  C   UNL     1       0.690  -0.928  -2.171  0.00  0.00    +0.005 A 
ENDBRANCH  24  31
ENDBRANCH   4  24
TORSDOF 5
