REMARK  Name = ZINC35971733
REMARK  13 active torsions:
REMARK  status: ('A' for Active; 'I' for Inactive)
REMARK    1  A    between atoms: C_1  and  C_2
REMARK    2  A    between atoms: C_2  and  N_3
REMARK    3  A    between atoms: N_3  and  C_4
REMARK    4  A    between atoms: C_5  and  C_7
REMARK    5  A    between atoms: C_7  and  C_9
REMARK    6  A    between atoms: C_7  and  N_13
REMARK    7  A    between atoms: C_9  and  C_10
REMARK    8  A    between atoms: C_10  and  C_11
REMARK    9  A    between atoms: C_10  and  C_12
REMARK   10  A    between atoms: C_19  and  C_28
REMARK   11  A    between atoms: N_24  and  C_25
REMARK   12  A    between atoms: C_25  and  C_26
REMARK   13  A    between atoms: C_33  and  C_34
REMARK                            x       y       z     vdW  Elec       q    Type
REMARK                         _______ _______ _______ _____ _____    ______ ____
ROOT
ATOM      1  N   UNL     1       4.682  -1.538   2.314  0.00  0.00    -0.281 N 
ATOM      2  C   UNL     1       5.085  -2.941   2.133  0.00  0.00    +0.160 C 
ATOM      3  C   UNL     1       6.417  -2.874   1.420  0.00  0.00    +0.043 C 
ATOM      4  C   UNL     1       6.687  -1.565   1.243  0.00  0.00    +0.058 C 
ATOM      5  C   UNL     1       5.648  -0.773   1.773  0.00  0.00    +0.247 C 
ATOM      6  O   UNL     1       5.628   0.444   1.747  0.00  0.00    -0.270 OA
ATOM      7  C   UNL     1       7.981  -1.201   0.544  0.00  0.00    +0.142 C 
ATOM      8  N   UNL     1       8.842  -2.315   0.112  0.00  0.00    -0.288 N 
ATOM      9  C   UNL     1       8.434  -3.575   0.361  0.00  0.00    +0.307 C 
ATOM     10  O   UNL     1       9.138  -4.502   0.009  0.00  0.00    -0.252 OA
ATOM     11  N   UNL     1       7.279  -3.840   0.985  0.00  0.00    -0.253 N 
ATOM     12  H   UNL     1       9.683  -2.146  -0.341  0.00  0.00    +0.151 HD
ENDROOT
BRANCH   7  13
ATOM     13  C   UNL     1       7.637  -0.382  -0.674  0.00  0.00    -0.011 A 
ATOM     14  C   UNL     1       7.052  -0.987  -1.771  0.00  0.00    +0.006 A 
ATOM     15  C   UNL     1       6.736  -0.236  -2.887  0.00  0.00    +0.000 A 
ATOM     16  C   UNL     1       7.005   1.120  -2.907  0.00  0.00    +0.001 A 
ATOM     17  C   UNL     1       7.589   1.725  -1.810  0.00  0.00    +0.013 A 
ATOM     18  C   UNL     1       7.901   0.975  -0.692  0.00  0.00    +0.060 A 
BRANCH  18  19
ATOM     19  C   UNL     1       8.533   1.635   0.506  0.00  0.00    +0.418 C 
ATOM     20  F   UNL     1       8.706   2.999   0.250  0.00  0.00    -0.166 F 
ATOM     21  F   UNL     1       7.704   1.472   1.621  0.00  0.00    -0.166 F 
ATOM     22  F   UNL     1       9.777   1.047   0.761  0.00  0.00    -0.166 F 
ENDBRANCH  18  19
ENDBRANCH   7  13
BRANCH   1  23
ATOM     23  C   UNL     1       3.454  -1.062   2.957  0.00  0.00    +0.163 C 
BRANCH  23  26
ATOM     24  N   UNL     1       1.364   0.047   2.238  0.00  0.00    -0.303 N 
ATOM     25  C   UNL     1       0.778  -0.322   3.529  0.00  0.00    +0.132 C 
ATOM     26  C   UNL     1       2.648  -0.260   1.968  0.00  0.00    +0.236 C 
ATOM     27  O   UNL     1       3.155   0.109   0.930  0.00  0.00    -0.274 OA
BRANCH  24  29
ATOM     28  C   UNL     1       0.690   2.260   1.444  0.00  0.00    +0.024 C 
ATOM     29  C   UNL     1       0.554   0.750   1.240  0.00  0.00    +0.104 C 
ENDBRANCH  24  29
ENDBRANCH  23  26
BRANCH  23  30
ATOM     30  C   UNL     1       3.815  -0.182   4.155  0.00  0.00    +0.035 C 
BRANCH  30  31
ATOM     31  C   UNL     1       4.529  -1.026   5.212  0.00  0.00    -0.015 C 
ATOM     32  C   UNL     1       4.999  -0.123   6.354  0.00  0.00    +0.007 C 
ATOM     33  C   UNL     1       3.564  -2.080   5.760  0.00  0.00    +0.007 C 
ENDBRANCH  30  31
ENDBRANCH  23  30
ENDBRANCH   1  23
BRANCH  11  34
ATOM     34  C   UNL     1       6.919  -5.242   1.212  0.00  0.00    +0.141 C 
BRANCH  34  35
ATOM     35  C   UNL     1       6.127  -5.754   0.036  0.00  0.00    -0.015 C 
ATOM     36  C   UNL     1       6.522  -6.828  -0.602  0.00  0.00    +0.005 C 
ENDBRANCH  34  35
ENDBRANCH  11  34
TORSDOF 9
