REMARK  Name = ZINC06442438
REMARK  6 active torsions:
REMARK  status: ('A' for Active; 'I' for Inactive)
REMARK    1  A    between atoms: C_1  and  C_2
REMARK    2  A    between atoms: C_7  and  C_15
REMARK    3  A    between atoms: C_13  and  C_14
REMARK    4  A    between atoms: C_15  and  C_17
REMARK    5  A    between atoms: C_15  and  N_73
REMARK    6  A    between atoms: N_21  and  C_22
REMARK                            x       y       z     vdW  Elec       q    Type
REMARK                         _______ _______ _______ _____ _____    ______ ____
ROOT
ATOM      1  C   UNL     1       3.510   0.737  -0.027  0.00  0.00    +0.039 C 
ENDROOT
BRANCH   1   8
ATOM      2  C   UNL     1       7.130   1.651  -7.075  0.00  0.00    +0.044 C 
ATOM      3  C   UNL     1       6.509   1.254  -5.761  0.00  0.00    -0.046 A 
ATOM      4  C   UNL     1       6.590  -0.065  -5.334  0.00  0.00    +0.004 A 
ATOM      5  C   UNL     1       6.034  -0.445  -4.146  0.00  0.00    +0.010 A 
ATOM      6  C   UNL     1       5.377   0.501  -3.352  0.00  0.00    -0.001 A 
ATOM      7  C   UNL     1       4.770   0.128  -2.074  0.00  0.00    +0.017 A 
ATOM      8  C   UNL     1       4.146   1.088  -1.347  0.00  0.00    +0.011 A 
ATOM      9  C   UNL     1       4.085   2.414  -1.827  0.00  0.00    +0.251 A 
ATOM     10  O   UNL     1       3.515   3.261  -1.160  0.00  0.00    -0.268 OA
ATOM     11  N   UNL     1       4.644   2.768  -2.997  0.00  0.00    -0.322 N 
ATOM     12  H   UNL     1       4.588   3.689  -3.295  0.00  0.00    +0.169 HD
ATOM     13  C   UNL     1       5.293   1.839  -3.782  0.00  0.00    +0.052 A 
ATOM     14  C   UNL     1       5.868   2.204  -4.996  0.00  0.00    -0.024 A 
ATOM     15  C   UNL     1       5.789   3.631  -5.471  0.00  0.00    +0.046 C 
ENDBRANCH   1   8
BRANCH   1  26
ATOM     16  C   UNL     1       3.312   1.431   2.284  0.00  0.00    -0.077 C 
ATOM     17  C   UNL     1       3.783   2.467   3.306  0.00  0.00    -0.018 C 
ATOM     18  C   UNL     1       5.290   2.308   3.529  0.00  0.00    +0.003 C 
ATOM     19  C   UNL     1       6.014   2.466   2.190  0.00  0.00    -0.044 C 
ATOM     20  C   UNL     1       5.479   1.430   1.199  0.00  0.00    -0.071 C 
ATOM     21  C   UNL     1       5.769   3.873   1.641  0.00  0.00    +0.005 C 
ATOM     22  C   UNL     1       6.495   4.032   0.303  0.00  0.00    +0.000 C 
ATOM     23  C   UNL     1       7.996   3.820   0.509  0.00  0.00    +0.000 C 
ATOM     24  C   UNL     1       8.241   2.412   1.057  0.00  0.00    +0.000 C 
ATOM     25  C   UNL     1       7.515   2.251   2.394  0.00  0.00    +0.005 C 
ATOM     26  N   UNL     1       4.029   1.652   1.010  0.00  0.00    +0.390 N 
ATOM     27  H   UNL     1       3.877   2.621   0.707  0.00  0.00    -0.080 HD
ENDBRANCH   1  26
BRANCH   1  28
ATOM     28  C   UNL     1       2.016   0.907  -0.128  0.00  0.00    +0.143 A 
ATOM     29  N   UNL     1       1.356   2.039  -0.139  0.00  0.00    -0.115 NA
ATOM     30  N   UNL     1       0.101   1.767  -0.236  0.00  0.00    -0.023 NA
ATOM     31  N   UNL     1      -0.057   0.490  -0.288  0.00  0.00    -0.044 NA
ATOM     32  N   UNL     1       1.101  -0.075  -0.223  0.00  0.00    -0.227 N 
BRANCH  32  33
ATOM     33  C   UNL     1       1.368  -1.515  -0.250  0.00  0.00    +0.111 C 
ATOM     34  C   UNL     1       0.796  -2.135  -1.542  0.00  0.00    +0.027 C 
ATOM     35  C   UNL     1       0.263  -3.520  -1.093  0.00  0.00    +0.002 C 
ATOM     36  C   UNL     1      -0.329  -3.222   0.307  0.00  0.00    +0.002 C 
ATOM     37  C   UNL     1       0.654  -2.206   0.925  0.00  0.00    +0.027 C 
ENDBRANCH  32  33
ENDBRANCH   1  28
TORSDOF 4
