REMARK  Name = ZINC09545578
REMARK  9 active torsions:
REMARK  status: ('A' for Active; 'I' for Inactive)
REMARK    1  A    between atoms: C_1  and  C_2
REMARK    2  A    between atoms: C_2  and  C_3
REMARK    3  A    between atoms: C_3  and  N_4
REMARK    4  A    between atoms: C_8  and  S_27
REMARK    5  A    between atoms: N_13  and  C_14
REMARK    6  A    between atoms: C_14  and  C_16
REMARK    7  A    between atoms: C_17  and  C_18
REMARK    8  A    between atoms: C_22  and  N_24
REMARK    9  A    between atoms: S_27  and  N_30
REMARK                            x       y       z     vdW  Elec       q    Type
REMARK                         _______ _______ _______ _____ _____    ______ ____
ROOT
ATOM      1  N   UNL     1      -1.435   3.582   2.481  0.00  0.00    -0.321 N 
ATOM      2  C   UNL     1      -0.713   3.814   3.637  0.00  0.00    +0.058 A 
ATOM      3  C   UNL     1       0.670   3.652   3.830  0.00  0.00    +0.029 A 
ATOM      4  C   UNL     1       1.249   3.926   5.045  0.00  0.00    +0.030 A 
ATOM      5  C   UNL     1       0.494   4.370   6.118  0.00  0.00    +0.106 A 
ATOM      6  C   UNL     1      -0.870   4.539   5.958  0.00  0.00    +0.045 A 
ATOM      7  C   UNL     1      -1.450   4.265   4.742  0.00  0.00    +0.041 A 
ATOM      8  S   UNL     1      -3.113   4.344   4.122  0.00  0.00    -0.052 S 
ATOM      9  C   UNL     1      -2.781   3.795   2.456  0.00  0.00    +0.167 A 
ATOM     10  N   UNL     1      -3.631   3.633   1.449  0.00  0.00    -0.153 NA
ENDROOT
BRANCH   5  11
ATOM     11  S   UNL     1       1.260   4.713   7.668  0.00  0.00    +0.056 S 
ATOM     12  O   UNL     1       0.247   4.591   8.657  0.00  0.00    -0.153 OA
ATOM     13  O   UNL     1       2.458   3.951   7.706  0.00  0.00    -0.153 OA
BRANCH  11  14
ATOM     14  N   UNL     1       1.712   6.306   7.647  0.00  0.00    -0.204 NA
ATOM     15  H   UNL     1       1.533   6.851   6.865  0.00  0.00    +0.144 HD
ATOM     16  H   UNL     1       2.155   6.694   8.418  0.00  0.00    +0.144 HD
ENDBRANCH  11  14
ENDBRANCH   5  11
BRANCH  10  17
ATOM     17  C   UNL     1      -4.933   3.898   1.621  0.00  0.00    +0.262 C 
ATOM     18  O   UNL     1      -5.338   4.288   2.704  0.00  0.00    -0.269 OA
BRANCH  17  19
ATOM     19  C   UNL     1      -5.873   3.720   0.507  0.00  0.00    +0.070 C 
ATOM     20  C   UNL     1      -7.181   3.986   0.680  0.00  0.00    +0.013 C 
BRANCH  20  21
ATOM     21  C   UNL     1      -8.123   3.807  -0.437  0.00  0.00    -0.023 A 
ATOM     22  C   UNL     1      -7.663   3.360  -1.680  0.00  0.00    +0.008 A 
ATOM     23  C   UNL     1      -8.551   3.195  -2.721  0.00  0.00    +0.003 A 
ATOM     24  C   UNL     1      -9.896   3.469  -2.539  0.00  0.00    +0.033 A 
ATOM     25  C   UNL     1     -10.359   3.911  -1.312  0.00  0.00    +0.127 A 
ATOM     26  C   UNL     1      -9.483   4.077  -0.260  0.00  0.00    +0.040 A 
BRANCH  25  27
ATOM     27  N   UNL     1     -11.799   4.202  -1.128  0.00  0.00    +0.056 N 
ATOM     28  O   UNL     1     -12.574   4.052  -2.055  0.00  0.00    -0.126 OA
ATOM     29  O   UNL     1     -12.208   4.590  -0.049  0.00  0.00    -0.126 OA
ENDBRANCH  25  27
ENDBRANCH  20  21
ENDBRANCH  17  19
ENDBRANCH  10  17
BRANCH   1  30
ATOM     30  C   UNL     1      -0.750   3.109   1.275  0.00  0.00    +0.124 C 
BRANCH  30  32
ATOM     31  C   UNL     1      -0.013   1.086   0.008  0.00  0.00    +0.005 C 
ATOM     32  C   UNL     1      -0.729   1.579   1.267  0.00  0.00    +0.018 C 
ENDBRANCH  30  32
ENDBRANCH   1  30
TORSDOF 8
