REMARK  Name = ZINC39695923
REMARK  7 active torsions:
REMARK  status: ('A' for Active; 'I' for Inactive)
REMARK    1  A    between atoms: C_1  and  C_2
REMARK    2  A    between atoms: C_2  and  C_3
REMARK    3  A    between atoms: C_6  and  C_9
REMARK    4  A    between atoms: C_9  and  C_11
REMARK    5  A    between atoms: C_9  and  N_12
REMARK    6  A    between atoms: C_13  and  C_15
REMARK    7  A    between atoms: C_26  and  C_28
REMARK                            x       y       z     vdW  Elec       q    Type
REMARK                         _______ _______ _______ _____ _____    ______ ____
ROOT
ATOM      1  C   UNL     1      -8.330  -0.554  -1.977  0.00  0.00    +0.100 C 
ATOM      2  C   UNL     1      -8.015   0.958  -2.002  0.00  0.00    +0.121 C 
ATOM      3  N   UNL     1      -9.312   1.606  -2.306  0.00  0.00    -0.296 N 
ATOM      4  C   UNL     1     -10.306   0.822  -1.533  0.00  0.00    +0.115 C 
ATOM      5  C   UNL     1      -9.834  -0.640  -1.669  0.00  0.00    -0.004 C 
ATOM      6  C   UNL     1     -10.570  -1.328  -2.814  0.00  0.00    -0.010 C 
ATOM      7  C   UNL     1     -12.055  -1.451  -2.459  0.00  0.00    -0.082 C 
ATOM      8  N   UNL     1     -12.201  -2.227  -1.221  0.00  0.00    +0.379 N 
ATOM      9  C   UNL     1     -11.569  -1.512  -0.105  0.00  0.00    -0.082 C 
ATOM     10  C   UNL     1     -10.064  -1.391  -0.361  0.00  0.00    -0.010 C 
ATOM     11  C   UNL     1      -9.539   2.668  -3.104  0.00  0.00    +0.249 C 
ATOM     12  O   UNL     1     -10.670   3.086  -3.253  0.00  0.00    -0.270 OA
ATOM     13  H   UNL     1     -13.181  -2.359  -1.023  0.00  0.00    -0.086 HD
ATOM     14  H   UNL     1     -11.759  -3.127  -1.336  0.00  0.00    -0.086 HD
ENDROOT
BRANCH  11  15
ATOM     15  C   UNL     1      -8.412   3.324  -3.798  0.00  0.00    +0.073 A 
ATOM     16  C   UNL     1      -8.029   2.899  -5.073  0.00  0.00    +0.054 A 
ATOM     17  C   UNL     1      -6.974   3.517  -5.715  0.00  0.00    +0.021 A 
ATOM     18  C   UNL     1      -6.297   4.554  -5.099  0.00  0.00    +0.003 A 
ATOM     19  C   UNL     1      -6.670   4.980  -3.837  0.00  0.00    +0.021 A 
ATOM     20  C   UNL     1      -7.726   4.376  -3.185  0.00  0.00    +0.054 A 
ATOM     21 CL   UNL     1      -8.197   4.917  -1.604  0.00  0.00    -0.083 Cl
ATOM     22 CL   UNL     1      -8.876   1.596  -5.847  0.00  0.00    -0.083 Cl
ENDBRANCH  11  15
BRANCH   1  24
ATOM     23  N   UNL     1      -7.184  -2.533  -1.033  0.00  0.00    -0.308 N 
ATOM     24  C   UNL     1      -7.533  -1.239  -0.896  0.00  0.00    +0.219 C 
ATOM     25  O   UNL     1      -7.206  -0.624   0.097  0.00  0.00    -0.275 OA
ATOM     26  H   UNL     1      -7.446  -3.025  -1.828  0.00  0.00    +0.149 HD
BRANCH  23  27
ATOM     27  C   UNL     1      -6.409  -3.198   0.018  0.00  0.00    +0.100 C 
ATOM     28  C   UNL     1      -7.359  -3.721   1.098  0.00  0.00    +0.033 C 
BRANCH  27  32
ATOM     29  C   UNL     1      -4.236  -6.467  -1.667  0.00  0.00    -0.048 A 
ATOM     30  C   UNL     1      -3.644  -5.663  -0.711  0.00  0.00    +0.004 A 
ATOM     31  C   UNL     1      -4.347  -4.605  -0.166  0.00  0.00    +0.006 A 
ATOM     32  C   UNL     1      -5.642  -4.351  -0.577  0.00  0.00    -0.027 A 
ATOM     33  C   UNL     1      -6.234  -5.155  -1.534  0.00  0.00    +0.006 A 
ATOM     34  C   UNL     1      -5.529  -6.210  -2.082  0.00  0.00    +0.004 A 
BRANCH  29  36
ATOM     35  C   UNL     1      -2.704  -7.142  -3.497  0.00  0.00    +0.009 C 
ATOM     36  C   UNL     1      -3.469  -7.620  -2.261  0.00  0.00    +0.032 C 
ENDBRANCH  29  36
ENDBRANCH  27  32
ENDBRANCH  23  27
ENDBRANCH   1  24
TORSDOF 5
