REMARK  Name = ZINC63362872
REMARK  6 active torsions:
REMARK  status: ('A' for Active; 'I' for Inactive)
REMARK    1  A    between atoms: C_1  and  C_2
REMARK    2  A    between atoms: C_2  and  C_3
REMARK    3  A    between atoms: C_2  and  C_4
REMARK    4  A    between atoms: C_7  and  C_10
REMARK    5  A    between atoms: N_28  and  C_31
REMARK    6  A    between atoms: C_36  and  C_37
REMARK                            x       y       z     vdW  Elec       q    Type
REMARK                         _______ _______ _______ _____ _____    ______ ____
ROOT
ATOM      1  C   UNL     1       2.707  -1.868  -4.752  0.00  0.00    +0.135 C 
ATOM      2  C   UNL     1       2.330  -3.331  -5.026  0.00  0.00    +0.131 C 
ATOM      3  C   UNL     1       3.361  -3.885  -6.001  0.00  0.00    -0.034 C 
ATOM      4  C   UNL     1       2.682  -4.321  -7.057  0.00  0.00    -0.001 A 
ATOM      5  C   UNL     1       3.117  -5.005  -8.285  0.00  0.00    +0.010 A 
ATOM      6  C   UNL     1       2.141  -5.304  -9.182  0.00  0.00    +0.001 A 
ATOM      7  C   UNL     1       0.792  -4.996  -8.982  0.00  0.00    +0.002 A 
ATOM      8  C   UNL     1       0.302  -4.373  -7.880  0.00  0.00    +0.026 A 
ATOM      9  C   UNL     1       1.233  -4.012  -6.863  0.00  0.00    +0.043 A 
ATOM     10  N   UNL     1       1.036  -3.427  -5.707  0.00  0.00    -0.375 N 
ATOM     11  C   UNL     1       4.849  -3.833  -5.747  0.00  0.00    +0.065 C 
ATOM     12  C   UNL     1       5.046  -2.999  -4.470  0.00  0.00    +0.169 C 
ATOM     13  N   UNL     1       4.160  -1.818  -4.553  0.00  0.00    -0.264 N 
ATOM     14  C   UNL     1       4.941  -0.737  -4.434  0.00  0.00    +0.317 C 
ATOM     15  O   UNL     1       4.518   0.399  -4.349  0.00  0.00    -0.252 OA
ATOM     16  N   UNL     1       6.244  -1.052  -4.420  0.00  0.00    -0.192 N 
ATOM     17  C   UNL     1       6.441  -2.412  -4.449  0.00  0.00    +0.248 C 
ATOM     18  O   UNL     1       7.491  -3.017  -4.464  0.00  0.00    -0.273 OA
ATOM     19  H   UNL     1       0.188  -3.110  -5.360  0.00  0.00    +0.160 HD
ENDROOT
BRANCH   1  23
ATOM     20  C   UNL     1       0.707  -0.490  -1.238  0.00  0.00    -0.045 A 
ATOM     21  C   UNL     1       0.222  -0.151  -2.487  0.00  0.00    +0.004 A 
ATOM     22  C   UNL     1       0.869  -0.597  -3.624  0.00  0.00    +0.006 A 
ATOM     23  C   UNL     1       2.002  -1.381  -3.513  0.00  0.00    -0.025 A 
ATOM     24  C   UNL     1       2.488  -1.720  -2.263  0.00  0.00    +0.006 A 
ATOM     25  C   UNL     1       1.843  -1.270  -1.126  0.00  0.00    +0.004 A 
BRANCH  20  27
ATOM     26  C   UNL     1      -0.019   1.526   0.010  0.00  0.00    +0.012 C 
ATOM     27  C   UNL     1       0.002  -0.004   0.002  0.00  0.00    +0.013 C 
ATOM     28  C   UNL     1      -1.433  -0.534   0.013  0.00  0.00    +0.012 C 
ENDBRANCH  20  27
ENDBRANCH   1  23
BRANCH  16  29
ATOM     29  C   UNL     1       7.277  -0.115  -4.367  0.00  0.00    +0.060 A 
ATOM     30  C   UNL     1       7.774   0.307  -3.142  0.00  0.00    +0.025 A 
ATOM     31  C   UNL     1       8.796   1.233  -3.092  0.00  0.00    +0.002 A 
ATOM     32  C   UNL     1       9.333   1.749  -4.261  0.00  0.00    +0.001 A 
ATOM     33  C   UNL     1       8.853   1.343  -5.486  0.00  0.00    +0.017 A 
ATOM     34  C   UNL     1       7.822   0.400  -5.553  0.00  0.00    +0.085 A 
BRANCH  34  35
ATOM     35  C   UNL     1       7.308  -0.043  -6.859  0.00  0.00    +0.388 C 
ATOM     36  O   UNL     1       7.786   0.409  -7.891  0.00  0.00    -0.241 OA
ATOM     37  O   UNL     1       6.402  -0.864  -6.913  0.00  0.00    -0.241 OA
ENDBRANCH  34  35
ENDBRANCH  16  29
TORSDOF 4
