REMARK  Name = ZINC39631140
REMARK  11 active torsions:
REMARK  status: ('A' for Active; 'I' for Inactive)
REMARK    1  A    between atoms: C_1  and  C_2
REMARK    2  A    between atoms: C_2  and  C_4
REMARK    3  A    between atoms: C_2  and  N_11
REMARK    4  A    between atoms: C_4  and  C_5
REMARK    5  A    between atoms: C_5  and  C_6
REMARK    6  A    between atoms: C_6  and  C_7
REMARK    7  A    between atoms: C_7  and  C_8
REMARK    8  A    between atoms: C_7  and  C_9
REMARK    9  A    between atoms: C_7  and  O_10
REMARK   10  A    between atoms: C_12  and  C_14
REMARK   11  A    between atoms: C_25  and  C_27
REMARK                            x       y       z     vdW  Elec       q    Type
REMARK                         _______ _______ _______ _____ _____    ______ ____
ROOT
ATOM      1  C   UNL     1      -2.809  -3.220  -1.472  0.00  0.00    +0.100 C 
ATOM      2  C   UNL     1      -2.228  -4.169  -0.400  0.00  0.00    +0.121 C 
ATOM      3  N   UNL     1      -3.128  -4.012   0.766  0.00  0.00    -0.296 N 
ATOM      4  C   UNL     1      -4.484  -3.912   0.175  0.00  0.00    +0.115 C 
ATOM      5  C   UNL     1      -4.291  -3.057  -1.093  0.00  0.00    -0.004 C 
ATOM      6  C   UNL     1      -4.601  -1.593  -0.793  0.00  0.00    -0.010 C 
ATOM      7  C   UNL     1      -6.091  -1.448  -0.474  0.00  0.00    -0.082 C 
ATOM      8  N   UNL     1      -6.886  -1.913  -1.617  0.00  0.00    +0.379 N 
ATOM      9  C   UNL     1      -6.652  -3.345  -1.841  0.00  0.00    -0.082 C 
ATOM     10  C   UNL     1      -5.185  -3.571  -2.217  0.00  0.00    -0.010 C 
ATOM     11  C   UNL     1      -2.790  -3.971   2.071  0.00  0.00    +0.247 C 
ATOM     12  O   UNL     1      -3.648  -3.807   2.916  0.00  0.00    -0.270 OA
ATOM     13  H   UNL     1      -7.866  -1.760  -1.429  0.00  0.00    -0.086 HD
ATOM     14  H   UNL     1      -6.620  -1.397  -2.442  0.00  0.00    -0.086 HD
ENDROOT
BRANCH  11  15
ATOM     15  C   UNL     1      -1.376  -4.124   2.473  0.00  0.00    +0.038 A 
ATOM     16  C   UNL     1      -0.436  -3.155   2.116  0.00  0.00    +0.014 A 
ATOM     17  C   UNL     1       0.881  -3.304   2.494  0.00  0.00    +0.022 A 
ATOM     18  C   UNL     1       1.274  -4.411   3.226  0.00  0.00    +0.059 A 
ATOM     19  C   UNL     1       0.347  -5.377   3.584  0.00  0.00    +0.060 A 
ATOM     20  C   UNL     1      -0.976  -5.236   3.216  0.00  0.00    +0.034 A 
ATOM     21 CL   UNL     1       0.848  -6.762   4.502  0.00  0.00    -0.082 Cl
ATOM     22 CL   UNL     1       2.936  -4.591   3.697  0.00  0.00    -0.082 Cl
ENDBRANCH  11  15
BRANCH   1  24
ATOM     23  N   UNL     1      -2.103  -1.094  -2.519  0.00  0.00    -0.312 N 
ATOM     24  C   UNL     1      -2.107  -1.888  -1.431  0.00  0.00    +0.218 C 
ATOM     25  O   UNL     1      -1.545  -1.530  -0.417  0.00  0.00    -0.275 OA
ATOM     26  H   UNL     1      -2.613  -1.345  -3.305  0.00  0.00    +0.149 HD
BRANCH  23  28
ATOM     27  C   UNL     1      -2.144   1.257  -1.847  0.00  0.00    +0.028 C 
ATOM     28  C   UNL     1      -1.328   0.150  -2.517  0.00  0.00    +0.070 C 
BRANCH  28  29
ATOM     29  C   UNL     1      -1.006   0.553  -3.957  0.00  0.00    +0.022 C 
BRANCH  29  30
ATOM     30  C   UNL     1      -1.081  -0.679  -4.861  0.00  0.00    +0.005 C 
BRANCH  30  31
ATOM     31  C   UNL     1      -0.634  -0.302  -6.275  0.00  0.00    +0.034 C 
BRANCH  31  32
ATOM     32  C   UNL     1      -0.580  -1.559  -7.145  0.00  0.00    +0.061 C 
ATOM     33  C   UNL     1      -1.931  -2.275  -7.091  0.00  0.00    +0.041 C 
ATOM     34  C   UNL     1      -0.267  -1.167  -8.590  0.00  0.00    +0.041 C 
BRANCH  32  35
ATOM     35  O   UNL     1       0.441  -2.432  -6.657  0.00  0.00    -0.389 OA
ATOM     36  H   UNL     1       1.327  -2.043  -6.662  0.00  0.00    +0.210 HD
ENDBRANCH  32  35
ENDBRANCH  31  32
ENDBRANCH  30  31
ENDBRANCH  29  30
ENDBRANCH  28  29
ENDBRANCH  23  28
ENDBRANCH   1  24
TORSDOF 8
