REMARK  Name = ZINC40709484
REMARK  7 active torsions:
REMARK  status: ('A' for Active; 'I' for Inactive)
REMARK    1  A    between atoms: C_4  and  C_7
REMARK    2  A    between atoms: C_7  and  N_8
REMARK    3  A    between atoms: N_8  and  C_9
REMARK    4  A    between atoms: C_9  and  C_10
REMARK    5  A    between atoms: C_17  and  N_33
REMARK    6  A    between atoms: C_18  and  N_22
REMARK    7  A    between atoms: N_22  and  C_23
REMARK                            x       y       z     vdW  Elec       q    Type
REMARK                         _______ _______ _______ _____ _____    ______ ____
ROOT
ATOM      1  N   UNL     1       4.157  -0.957   1.359  0.00  0.00    -0.305 N 
ATOM      2  C   UNL     1       4.928  -0.027   2.046  0.00  0.00    +0.148 A 
ATOM      3  C   UNL     1       5.418  -0.316   3.321  0.00  0.00    +0.105 A 
ATOM      4  C   UNL     1       6.188   0.653   3.966  0.00  0.00    +0.145 A 
ATOM      5  N   UNL     1       6.423   1.808   3.346  0.00  0.00    -0.219 NA
ATOM      6  C   UNL     1       5.942   2.040   2.142  0.00  0.00    +0.225 A 
ATOM      7  N   UNL     1       5.215   1.151   1.496  0.00  0.00    -0.219 NA
ENDROOT
BRANCH   3   8
ATOM      8  N   UNL     1       5.144  -1.548   3.937  0.00  0.00    -0.353 N 
ATOM      9  H   UNL     1       4.550  -2.183   3.508  0.00  0.00    +0.143 HD
ATOM     10  H   UNL     1       5.549  -1.763   4.792  0.00  0.00    +0.143 HD
ENDBRANCH   3   8
BRANCH   4  11
ATOM     11  N   UNL     1       6.699   0.417   5.237  0.00  0.00    -0.322 N 
ATOM     12  H   UNL     1       6.523  -0.426   5.681  0.00  0.00    +0.148 HD
BRANCH  11  13
ATOM     13  C   UNL     1       7.506   1.443   5.904  0.00  0.00    +0.034 C 
ATOM     14  C   UNL     1       6.674   2.716   6.071  0.00  0.00    +0.029 C 
ATOM     15  C   UNL     1       7.516   3.787   6.768  0.00  0.00    -0.008 C 
ATOM     16  C   UNL     1       7.952   3.278   8.143  0.00  0.00    +0.007 C 
ATOM     17  C   UNL     1       8.783   2.004   7.976  0.00  0.00    -0.008 C 
ATOM     18  C   UNL     1       7.941   0.934   7.279  0.00  0.00    +0.029 C 
ATOM     19  C   UNL     1      10.021   2.311   7.130  0.00  0.00    +0.007 C 
ATOM     20  C   UNL     1       9.585   2.820   5.755  0.00  0.00    -0.008 C 
ATOM     21  C   UNL     1       8.754   4.093   5.922  0.00  0.00    +0.007 C 
ATOM     22  C   UNL     1       8.743   1.749   5.058  0.00  0.00    +0.029 C 
ENDBRANCH  11  13
ENDBRANCH   4  11
BRANCH   1  23
ATOM     23  C   UNL     1       2.696  -0.874   1.405  0.00  0.00    +0.142 C 
BRANCH  23  27
ATOM     24  C   UNL     1       1.240  -3.168   4.701  0.00  0.00    +0.000 A 
ATOM     25  C   UNL     1       1.553  -1.833   4.873  0.00  0.00    +0.000 A 
ATOM     26  C   UNL     1       2.025  -1.091   3.806  0.00  0.00    +0.005 A 
ATOM     27  C   UNL     1       2.183  -1.684   2.568  0.00  0.00    -0.030 A 
ATOM     28  C   UNL     1       1.870  -3.019   2.396  0.00  0.00    +0.005 A 
ATOM     29  C   UNL     1       1.397  -3.761   3.462  0.00  0.00    +0.000 A 
ENDBRANCH  23  27
ENDBRANCH   1  23
BRANCH   1  30
ATOM     30  C   UNL     1       4.807  -2.021   0.588  0.00  0.00    +0.142 C 
BRANCH  30  31
ATOM     31  C   UNL     1       4.934  -1.593  -0.851  0.00  0.00    -0.030 A 
ATOM     32  C   UNL     1       3.879  -1.783  -1.724  0.00  0.00    +0.005 A 
ATOM     33  C   UNL     1       3.995  -1.390  -3.045  0.00  0.00    +0.000 A 
ATOM     34  C   UNL     1       5.166  -0.807  -3.492  0.00  0.00    +0.000 A 
ATOM     35  C   UNL     1       6.220  -0.616  -2.618  0.00  0.00    +0.000 A 
ATOM     36  C   UNL     1       6.103  -1.005  -1.297  0.00  0.00    +0.005 A 
ENDBRANCH  30  31
ENDBRANCH   1  30
TORSDOF 7
