REMARK  Name = ZINC59477025
REMARK  4 active torsions:
REMARK  status: ('A' for Active; 'I' for Inactive)
REMARK    1  A    between atoms: C_3  and  C_10
REMARK    2  A    between atoms: C_5  and  N_7
REMARK    3  A    between atoms: N_11  and  C_12
REMARK    4  A    between atoms: C_15  and  N_18
REMARK                            x       y       z     vdW  Elec       q    Type
REMARK                         _______ _______ _______ _____ _____    ______ ____
ROOT
ATOM      1  C   UNL     1       4.817   4.155  -0.023  0.00  0.00    +0.064 A 
ATOM      2  C   UNL     1       5.871   3.758   0.804  0.00  0.00    +0.029 A 
ATOM      3  C   UNL     1       7.056   4.462   0.793  0.00  0.00    +0.025 A 
ATOM      4  C   UNL     1       7.202   5.567  -0.039  0.00  0.00    +0.030 A 
ATOM      5  C   UNL     1       6.155   5.965  -0.862  0.00  0.00    +0.025 A 
ATOM      6  C   UNL     1       4.970   5.262  -0.862  0.00  0.00    +0.029 A 
ENDROOT
BRANCH   4   7
ATOM      7  N   UNL     1       8.403   6.278  -0.046  0.00  0.00    -0.330 N 
ATOM      8  C   UNL     1       9.475   5.947   0.902  0.00  0.00    +0.105 C 
ATOM      9  C   UNL     1      10.768   5.701   0.118  0.00  0.00    +0.019 C 
ATOM     10  C   UNL     1      11.064   6.915  -0.765  0.00  0.00    +0.003 C 
ATOM     11  C   UNL     1       9.922   7.110  -1.766  0.00  0.00    +0.019 C 
ATOM     12  C   UNL     1       8.622   7.368  -1.007  0.00  0.00    +0.105 C 
ENDBRANCH   4   7
BRANCH   1  14
ATOM     13  C   UNL     1       3.653   2.156  -0.038  0.00  0.00    +0.119 C 
ATOM     14  N   UNL     1       3.640   3.459  -0.015  0.00  0.00    -0.255 NA
BRANCH  13  17
ATOM     15  C   UNL     1      -0.017   1.379   0.011  0.00  0.00    +0.003 A 
ATOM     16  C   UNL     1       1.166   2.089   0.003  0.00  0.00    +0.009 A 
ATOM     17  C   UNL     1       2.386   1.407  -0.029  0.00  0.00    -0.005 A 
ATOM     18  C   UNL     1       2.396   0.009  -0.054  0.00  0.00    +0.042 A 
ATOM     19  C   UNL     1       1.206  -0.686  -0.046  0.00  0.00    +0.127 A 
ATOM     20  C   UNL     1       0.002  -0.004  -0.014  0.00  0.00    +0.033 A 
BRANCH  19  21
ATOM     21  N   UNL     1       1.214  -2.166  -0.072  0.00  0.00    +0.056 N 
ATOM     22  O   UNL     1       2.265  -2.764  -0.100  0.00  0.00    -0.126 OA
ATOM     23  O   UNL     1       0.171  -2.777  -0.065  0.00  0.00    -0.126 OA
ENDBRANCH  19  21
ENDBRANCH  13  17
ENDBRANCH   1  14
TORSDOF 4
