REMARK  Name = ZINC28120729
REMARK  9 active torsions:
REMARK  status: ('A' for Active; 'I' for Inactive)
REMARK    1  A    between atoms: C_1  and  C_2
REMARK    2  A    between atoms: C_2  and  C_3
REMARK    3  A    between atoms: C_8  and  C_26
REMARK    4  A    between atoms: C_9  and  C_24
REMARK    5  A    between atoms: C_12  and  C_15
REMARK    6  A    between atoms: C_13  and  O_14
REMARK    7  A    between atoms: C_15  and  N_16
REMARK    8  A    between atoms: C_21  and  C_23
REMARK    9  A    between atoms: C_24  and  C_25
REMARK                            x       y       z     vdW  Elec       q    Type
REMARK                         _______ _______ _______ _____ _____    ______ ____
ROOT
ATOM      1  C   UNL     1       3.066  -2.872  -0.092  0.00  0.00    -0.005 A 
ATOM      2  C   UNL     1       1.761  -2.475  -0.160  0.00  0.00    +0.022 A 
ATOM      3  C   UNL     1       1.453  -1.115  -0.207  0.00  0.00    +0.065 A 
ATOM      4  C   UNL     1       0.056  -0.650  -0.282  0.00  0.00    +0.202 A 
ATOM      5  O   UNL     1      -0.878  -1.433  -0.305  0.00  0.00    -0.286 OA
ATOM      6  C   UNL     1      -0.157   0.809  -0.327  0.00  0.00    +0.092 A 
ATOM      7  C   UNL     1       0.931   1.628  -0.298  0.00  0.00    +0.119 A 
ATOM      8  O   UNL     1       2.178   1.161  -0.231  0.00  0.00    -0.458 OA
ATOM      9  C   UNL     1       2.477  -0.152  -0.184  0.00  0.00    +0.144 A 
ATOM     10  C   UNL     1       3.798  -0.573  -0.115  0.00  0.00    +0.021 A 
ATOM     11  C   UNL     1       4.088  -1.926  -0.069  0.00  0.00    +0.125 A 
ENDROOT
BRANCH   6  12
ATOM     12  C   UNL     1      -1.520   1.369  -0.408  0.00  0.00    +0.116 A 
ATOM     13  N   UNL     1      -1.893   2.630  -0.451  0.00  0.00    -0.239 NA
ATOM     14  C   UNL     1      -3.187   3.001  -0.530  0.00  0.00    +0.079 A 
ATOM     15  C   UNL     1      -3.719   4.310  -0.588  0.00  0.00    +0.029 A 
ATOM     16  C   UNL     1      -5.062   4.514  -0.660  0.00  0.00    +0.002 A 
ATOM     17  C   UNL     1      -5.960   3.457  -0.679  0.00  0.00    +0.001 A 
ATOM     18  C   UNL     1      -5.481   2.160  -0.625  0.00  0.00    +0.017 A 
ATOM     19  C   UNL     1      -4.127   1.944  -0.552  0.00  0.00    +0.040 A 
ATOM     20  S   UNL     1      -3.085   0.507  -0.466  0.00  0.00    -0.067 S 
ENDBRANCH   6  12
BRANCH   1  22
ATOM     21  C   UNL     1       3.572  -4.775   1.415  0.00  0.00    +0.009 C 
ATOM     22  C   UNL     1       3.401  -4.341  -0.042  0.00  0.00    +0.035 C 
ENDBRANCH   1  22
BRANCH  11  23
ATOM     23  O   UNL     1       5.381  -2.335  -0.001  0.00  0.00    -0.506 OA
ATOM     24  H   UNL     1       6.192  -1.592   0.018  0.00  0.00    +0.292 HD
ENDBRANCH  11  23
BRANCH   7  25
ATOM     25  C   UNL     1       0.716   3.119  -0.345  0.00  0.00    +0.072 C 
ATOM     26  C   UNL     1       0.578   3.659   1.080  0.00  0.00    +0.012 C 
ENDBRANCH   7  25
BRANCH  10  27
ATOM     27  C   UNL     1       4.913   0.440  -0.090  0.00  0.00    -0.035 C 
BRANCH  27  28
ATOM     28  N   UNL     1       5.337   0.736  -1.465  0.00  0.00    +0.384 N 
ATOM     29  C   UNL     1       5.861  -0.468  -2.125  0.00  0.00    -0.078 C 
ATOM     30  C   UNL     1       6.155  -0.158  -3.594  0.00  0.00    -0.019 C 
ATOM     31  C   UNL     1       7.179   0.978  -3.676  0.00  0.00    -0.003 C 
ATOM     32  C   UNL     1       6.630   2.203  -2.940  0.00  0.00    -0.016 C 
ATOM     33  C   UNL     1       6.322   1.825  -1.490  0.00  0.00    -0.071 C 
ATOM     34  C   UNL     1       5.754   3.042  -0.755  0.00  0.00    -0.013 C 
ATOM     35  H   UNL     1       4.454   1.070  -2.029  0.00  0.00    -0.081 HD
ENDBRANCH  27  28
ENDBRANCH  10  27
TORSDOF 6
