REMARK  Name = ZINC66739155
REMARK  6 active torsions:
REMARK  status: ('A' for Active; 'I' for Inactive)
REMARK    1  A    between atoms: C_1  and  C_2
REMARK    2  A    between atoms: C_18  and  O_20
REMARK    3  A    between atoms: O_20  and  C_21
REMARK    4  A    between atoms: C_21  and  C_22
REMARK    5  A    between atoms: C_21  and  C_23
REMARK    6  A    between atoms: C_21  and  C_24
REMARK                            x       y       z     vdW  Elec       q    Type
REMARK                         _______ _______ _______ _____ _____    ______ ____
ROOT
ATOM      1  C   UNL     1      -0.018   1.503   0.010  0.00  0.00    +0.044 C 
ATOM      2  C   UNL     1       0.002  -0.004   0.002  0.00  0.00    -0.037 A 
ATOM      3  C   UNL     1      -0.098  -0.693  -1.189  0.00  0.00    +0.004 A 
ATOM      4  C   UNL     1      -0.082  -2.079  -1.204  0.00  0.00    +0.002 A 
ATOM      5  C   UNL     1       0.028  -2.792  -0.025  0.00  0.00    +0.024 A 
ATOM      6  C   UNL     1       0.124  -2.116   1.179  0.00  0.00    +0.041 A 
ATOM      7  C   UNL     1       0.128  -0.710   1.196  0.00  0.00    +0.060 A 
ATOM      8  C   UNL     1       0.250  -0.021   2.493  0.00  0.00    +0.248 C 
ATOM      9  O   UNL     1       0.072   1.179   2.570  0.00  0.00    -0.270 OA
ATOM     10  N   UNL     1       0.561  -0.734   3.594  0.00  0.00    -0.289 N 
ATOM     11  C   UNL     1       0.944  -2.143   3.499  0.00  0.00    +0.115 C 
ATOM     12  N   UNL     1       0.218  -2.789   2.392  0.00  0.00    -0.322 N 
ATOM     13  C   UNL     1       2.452  -2.247   3.256  0.00  0.00    +0.049 C 
ATOM     14  C   UNL     1       2.848  -3.720   3.122  0.00  0.00    +0.023 C 
ATOM     15  C   UNL     1       2.517  -4.453   4.425  0.00  0.00    +0.111 C 
ATOM     16  N   UNL     1       1.099  -4.235   4.745  0.00  0.00    -0.264 N 
ATOM     17  C   UNL     1       0.593  -2.857   4.808  0.00  0.00    +0.156 C 
ATOM     18  C   UNL     1       0.279  -5.279   4.976  0.00  0.00    +0.403 C 
ATOM     19  O   UNL     1      -0.891  -5.086   5.239  0.00  0.00    -0.226 OA
ATOM     20  H   UNL     1       0.530  -0.306   4.464  0.00  0.00    +0.151 HD
ATOM     21  H   UNL     1      -0.177  -3.669   2.501  0.00  0.00    +0.148 HD
ENDROOT
BRANCH  18  22
ATOM     22  O   UNL     1       0.757  -6.537   4.915  0.00  0.00    -0.445 OA
BRANCH  22  23
ATOM     23  C   UNL     1      -0.169  -7.595   5.171  0.00  0.00    +0.107 C 
ATOM     24  C   UNL     1      -1.305  -7.537   4.149  0.00  0.00    +0.055 C 
ATOM     25  C   UNL     1       0.551  -8.941   5.058  0.00  0.00    +0.055 C 
ATOM     26  C   UNL     1      -0.742  -7.441   6.581  0.00  0.00    +0.055 C 
ENDBRANCH  22  23
ENDBRANCH  18  22
TORSDOF 2
