REMARK  Name = ZINC39755089
REMARK  13 active torsions:
REMARK  status: ('A' for Active; 'I' for Inactive)
REMARK    1  A    between atoms: C_1  and  C_2
REMARK    2  A    between atoms: C_5  and  N_8
REMARK    3  A    between atoms: C_9  and  C_11
REMARK    4  A    between atoms: C_11  and  C_13
REMARK    5  A    between atoms: C_11  and  S_14
REMARK    6  A    between atoms: S_14  and  C_15
REMARK    7  A    between atoms: C_18  and  C_23
REMARK    8  A    between atoms: N_19  and  C_20
REMARK    9  A    between atoms: C_20  and  C_21
REMARK   10  A    between atoms: C_23  and  C_24
REMARK   11  A    between atoms: N_26  and  C_27
REMARK   12  A    between atoms: C_30  and  C_34
REMARK   13  A    between atoms: C_32  and  C_33
REMARK                            x       y       z     vdW  Elec       q    Type
REMARK                         _______ _______ _______ _____ _____    ______ ____
ROOT
ATOM      1  C   UNL     1       1.244  -8.651   2.445  0.00  0.00    +0.193 A 
ATOM      2  N   UNL     1       0.962  -9.341   1.364  0.00  0.00    -0.122 NA
ATOM      3  N   UNL     1       1.259 -10.578   1.547  0.00  0.00    -0.133 NA
ATOM      4  C   UNL     1       1.743 -10.750   2.744  0.00  0.00    +0.143 A 
ATOM      5  N   UNL     1       1.756  -9.527   3.357  0.00  0.00    -0.302 N 
ENDROOT
BRANCH   1   6
ATOM      6  S   UNL     1       1.011  -6.919   2.672  0.00  0.00    -0.074 S 
BRANCH   6   7
ATOM      7  C   UNL     1       0.302  -6.361   1.098  0.00  0.00    +0.137 C 
ATOM      8  C   UNL     1      -1.075  -6.997   0.905  0.00  0.00    +0.029 C 
BRANCH   7  10
ATOM      9  N   UNL     1       0.052  -4.183  -0.047  0.00  0.00    -0.285 N 
ATOM     10  C   UNL     1       0.165  -4.860   1.113  0.00  0.00    +0.230 C 
ATOM     11  O   UNL     1       0.157  -4.263   2.168  0.00  0.00    -0.274 OA
ATOM     12  H   UNL     1      -0.026  -4.665  -0.885  0.00  0.00    +0.155 HD
BRANCH   9  17
ATOM     13  C   UNL     1       0.035   1.490  -0.027  0.00  0.00    +0.044 C 
ATOM     14  C   UNL     1       0.040  -0.017  -0.032  0.00  0.00    -0.050 A 
ATOM     15  C   UNL     1       0.667  -0.708   0.988  0.00  0.00    +0.005 A 
ATOM     16  C   UNL     1       0.672  -2.089   0.986  0.00  0.00    +0.023 A 
ATOM     17  C   UNL     1       0.048  -2.783  -0.042  0.00  0.00    +0.033 A 
ATOM     18  C   UNL     1      -0.581  -2.086  -1.065  0.00  0.00    +0.023 A 
ATOM     19  C   UNL     1      -0.588  -0.705  -1.054  0.00  0.00    +0.005 A 
ENDBRANCH   9  17
ENDBRANCH   7  10
ENDBRANCH   6   7
ENDBRANCH   1   6
BRANCH   5  20
ATOM     20  C   UNL     1       2.221  -9.223   4.713  0.00  0.00    +0.152 C 
BRANCH  20  21
ATOM     21  C   UNL     1       1.073  -9.361   5.680  0.00  0.00    -0.013 C 
ATOM     22  C   UNL     1       1.184 -10.151   6.719  0.00  0.00    +0.005 C 
ENDBRANCH  20  21
ENDBRANCH   5  20
BRANCH   4  23
ATOM     23  C   UNL     1       2.208 -12.053   3.341  0.00  0.00    +0.172 C 
BRANCH  23  24
ATOM     24  C   UNL     1       3.673 -12.246   3.045  0.00  0.00    +0.225 C 
ATOM     25  O   UNL     1       4.280 -11.408   2.412  0.00  0.00    -0.275 OA
ATOM     26  N   UNL     1       4.310 -13.351   3.483  0.00  0.00    -0.285 N 
ATOM     27  H   UNL     1       3.811 -14.052   3.931  0.00  0.00    +0.155 HD
BRANCH  26  28
ATOM     28  C   UNL     1       5.689 -13.485   3.294  0.00  0.00    +0.036 A 
ATOM     29  C   UNL     1       6.287 -12.977   2.147  0.00  0.00    +0.024 A 
ATOM     30  C   UNL     1       7.649 -13.111   1.963  0.00  0.00    +0.005 A 
ATOM     31  C   UNL     1       8.418 -13.751   2.919  0.00  0.00    -0.050 A 
ATOM     32  C   UNL     1       7.826 -14.257   4.061  0.00  0.00    +0.008 A 
ATOM     33  C   UNL     1       6.465 -14.120   4.254  0.00  0.00    -0.029 A 
ATOM     34  C   UNL     1       5.822 -14.667   5.503  0.00  0.00    +0.045 C 
ATOM     35  C   UNL     1       9.904 -13.896   2.714  0.00  0.00    +0.044 C 
ENDBRANCH  26  28
ENDBRANCH  23  24
ENDBRANCH   4  23
TORSDOF 9
