REMARK  Name = ZINC36613995
REMARK  6 active torsions:
REMARK  status: ('A' for Active; 'I' for Inactive)
REMARK    1  A    between atoms: C_1  and  C_2
REMARK    2  A    between atoms: C_3  and  C_8
REMARK    3  A    between atoms: N_6  and  C_7
REMARK    4  A    between atoms: C_10  and  C_25
REMARK    5  A    between atoms: N_14  and  C_15
REMARK    6  A    between atoms: C_16  and  C_23
REMARK                            x       y       z     vdW  Elec       q    Type
REMARK                         _______ _______ _______ _____ _____    ______ ____
ROOT
ATOM      1  C   UNL     1      -0.005  -0.350  -2.515  0.00  0.00    +0.080 A 
ATOM      2  C   UNL     1      -0.003  -1.279  -3.561  0.00  0.00    +0.061 A 
ATOM      3  C   UNL     1      -0.016  -0.808  -4.860  0.00  0.00    +0.149 A 
ATOM      4  N   UNL     1      -0.029   0.498  -5.076  0.00  0.00    -0.210 NA
ATOM      5  C   UNL     1      -0.031   1.356  -4.066  0.00  0.00    +0.221 A 
ATOM      6  N   UNL     1      -0.025   0.949  -2.807  0.00  0.00    -0.214 NA
ATOM      7  N   UNL     1      -0.045   2.716  -4.336  0.00  0.00    -0.277 N 
ATOM      8  H   UNL     1      -0.047   3.355  -3.606  0.00  0.00    +0.156 HD
ENDROOT
BRANCH   7   9
ATOM      9  C   UNL     1      -0.057   3.162  -5.648  0.00  0.00    +0.090 A 
ATOM     10  C   UNL     1      -0.067   4.468  -6.102  0.00  0.00    +0.084 A 
ATOM     11  C   UNL     1      -0.079   4.674  -7.549  0.00  0.00    -0.018 A 
ATOM     12  C   UNL     1      -0.081   3.536  -8.265  0.00  0.00    -0.004 A 
ATOM     13  S   UNL     1      -0.057   2.242  -7.050  0.00  0.00    -0.077 S 
ATOM     14  C   UNL     1      -0.098   3.805  -9.746  0.00  0.00    +0.043 C 
ATOM     15  C   UNL     1      -0.539   5.280  -9.869  0.00  0.00    +0.010 C 
ATOM     16  C   UNL     1      -0.087   5.859  -8.513  0.00  0.00    +0.037 C 
BRANCH  10  17
ATOM     17  C   UNL     1      -0.065   5.573  -5.191  0.00  0.00    +0.102 C 
ATOM     18  N   UNL     1      -0.063   6.450  -4.469  0.00  0.00    -0.191 NA
ENDBRANCH  10  17
ENDBRANCH   7   9
BRANCH   1  21
ATOM     19  C   UNL     1      -0.018   1.503   0.010  0.00  0.00    +0.066 C 
ATOM     20  C   UNL     1       0.002  -0.004   0.002  0.00  0.00    +0.045 A 
ATOM     21  C   UNL     1       0.008  -0.805  -1.105  0.00  0.00    +0.041 A 
ATOM     22  C   UNL     1       0.028  -2.142  -0.660  0.00  0.00    +0.144 A 
ATOM     23  N   UNL     1       0.034  -2.135   0.646  0.00  0.00    -0.179 NA
ATOM     24  N   UNL     1       0.024  -0.805   1.084  0.00  0.00    -0.271 N 
ATOM     25  C   UNL     1       0.032  -0.361   2.480  0.00  0.00    +0.172 C 
ENDBRANCH   1  21
BRANCH   3  26
ATOM     26  C   UNL     1      -0.013  -1.771  -6.019  0.00  0.00    +0.434 C 
ATOM     27  F   UNL     1      -1.332  -2.082  -6.370  0.00  0.00    -0.164 F 
ATOM     28  F   UNL     1       0.633  -1.184  -7.112  0.00  0.00    -0.164 F 
ATOM     29  F   UNL     1       0.660  -2.941  -5.652  0.00  0.00    -0.164 F 
ENDBRANCH   3  26
TORSDOF 4
