REMARK  Name = ZINC12825314
REMARK  6 active torsions:
REMARK  status: ('A' for Active; 'I' for Inactive)
REMARK    1  A    between atoms: C_1  and  C_2
REMARK    2  A    between atoms: C_2  and  C_3
REMARK    3  A    between atoms: C_2  and  C_4
REMARK    4  A    between atoms: C_7  and  C_10
REMARK    5  A    between atoms: C_12  and  C_15
REMARK    6  A    between atoms: N_17  and  N_18
REMARK                            x       y       z     vdW  Elec       q    Type
REMARK                         _______ _______ _______ _____ _____    ______ ____
ROOT
ATOM      1  C   UNL     1       1.155  -0.647  -0.012  0.00  0.00    +0.109 A 
ATOM      2  N   UNL     1       0.002  -0.004   0.002  0.00  0.00    -0.234 NA
ATOM      3  C   UNL     1      -0.016   1.320   0.009  0.00  0.00    +0.135 A 
ATOM      4  C   UNL     1       1.174   2.005   0.002  0.00  0.00    +0.080 A 
ATOM      5  S   UNL     1       2.324   0.703  -0.016  0.00  0.00    -0.075 S 
ENDROOT
BRANCH   1   9
ATOM      6  C   UNL     1       1.892  -4.831  -0.040  0.00  0.00    -0.045 A 
ATOM      7  C   UNL     1       2.954  -3.945  -0.046  0.00  0.00    +0.004 A 
ATOM      8  C   UNL     1       2.721  -2.585  -0.037  0.00  0.00    +0.011 A 
ATOM      9  C   UNL     1       1.412  -2.104  -0.022  0.00  0.00    +0.007 A 
ATOM     10  C   UNL     1       0.345  -3.003  -0.010  0.00  0.00    +0.011 A 
ATOM     11  C   UNL     1       0.591  -4.361  -0.025  0.00  0.00    +0.004 A 
BRANCH   6  13
ATOM     12  C   UNL     1       1.543  -6.948   1.203  0.00  0.00    +0.012 C 
ATOM     13  C   UNL     1       2.153  -6.315  -0.049  0.00  0.00    +0.013 C 
ATOM     14  C   UNL     1       1.519  -6.937  -1.295  0.00  0.00    +0.012 C 
ENDBRANCH   6  13
ENDBRANCH   1   9
BRANCH   3  15
ATOM     15  C   UNL     1      -1.296   2.049   0.019  0.00  0.00    +0.281 C 
ATOM     16  O   UNL     1      -1.303   3.265   0.026  0.00  0.00    -0.267 OA
ATOM     17  N   UNL     1      -2.459   1.368   0.022  0.00  0.00    -0.214 N 
ATOM     18  H   UNL     1      -2.453   0.398   0.017  0.00  0.00    +0.176 HD
BRANCH  17  19
ATOM     19  N   UNL     1      -3.677   2.062   0.031  0.00  0.00    -0.223 N 
ATOM     20  C   UNL     1      -3.824   3.427   0.038  0.00  0.00    +0.243 A 
ATOM     21  N   UNL     1      -5.087   3.710   0.046  0.00  0.00    -0.160 NA
ATOM     22  N   UNL     1      -5.805   2.506   0.044  0.00  0.00    -0.253 N 
ATOM     23  H   UNL     1      -6.770   2.412   0.049  0.00  0.00    +0.191 HD
ATOM     24  C   UNL     1      -4.903   1.502   0.029  0.00  0.00    +0.193 A 
ATOM     25  S   UNL     1      -5.253  -0.174   0.014  0.00  0.00    -0.010 S 
ENDBRANCH  17  19
ENDBRANCH   3  15
TORSDOF 4
