REMARK  Name = ZINC36357850
REMARK  5 active torsions:
REMARK  status: ('A' for Active; 'I' for Inactive)
REMARK    1  A    between atoms: C_1  and  C_2
REMARK    2  A    between atoms: C_2  and  C_3
REMARK    3  A    between atoms: C_3  and  N_4
REMARK    4  A    between atoms: C_21  and  C_29
REMARK    5  A    between atoms: C_22  and  C_23
REMARK                            x       y       z     vdW  Elec       q    Type
REMARK                         _______ _______ _______ _____ _____    ______ ____
ROOT
ATOM      1  N   UNL     1       0.738  -1.962  -1.265  0.00  0.00    -0.270 N 
ATOM      2  C   UNL     1       1.745  -2.726  -0.700  0.00  0.00    +0.041 A 
ATOM      3  C   UNL     1       2.898  -2.314  -0.030  0.00  0.00    +0.025 A 
ATOM      4  C   UNL     1       3.747  -3.304   0.440  0.00  0.00    +0.022 A 
ATOM      5  C   UNL     1       3.474  -4.646   0.260  0.00  0.00    +0.041 A 
ATOM      6  C   UNL     1       2.327  -5.069  -0.406  0.00  0.00    +0.026 A 
ATOM      7  C   UNL     1       1.479  -4.089  -0.875  0.00  0.00    -0.004 A 
ATOM      8  C   UNL     1       0.182  -4.171  -1.615  0.00  0.00    +0.115 C 
ATOM      9  C   UNL     1      -0.226  -2.727  -1.819  0.00  0.00    +0.236 C 
ATOM     10  O   UNL     1      -1.228  -2.332  -2.376  0.00  0.00    -0.274 OA
ATOM     11  C   UNL     1      -0.879  -4.893  -0.783  0.00  0.00    +0.122 C 
ATOM     12  C   UNL     1      -0.727  -6.383  -0.901  0.00  0.00    +0.219 C 
ATOM     13  O   UNL     1      -0.975  -7.067   0.069  0.00  0.00    -0.275 OA
ATOM     14  N   UNL     1      -0.330  -6.995  -2.030  0.00  0.00    -0.284 N 
ATOM     15  C   UNL     1       0.089  -6.200  -3.135  0.00  0.00    +0.054 A 
ATOM     16  C   UNL     1       0.335  -4.867  -2.929  0.00  0.00    +0.032 A 
ATOM     17  S   UNL     1       0.813  -4.254  -4.401  0.00  0.00    -0.083 S 
ATOM     18  C   UNL     1       0.694  -5.740  -5.379  0.00  0.00    +0.110 A 
ATOM     19  C   UNL     1       0.269  -6.679  -4.431  0.00  0.00    +0.025 A 
ATOM     20 CL   UNL     1       4.584  -5.829   0.876  0.00  0.00    -0.084 Cl
ATOM     21  H   UNL     1      -0.328  -7.963  -2.091  0.00  0.00    +0.155 HD
ENDROOT
BRANCH  19  22
ATOM     22  C   UNL     1       0.027  -8.097  -4.785  0.00  0.00    -0.015 A 
ATOM     23  C   UNL     1       0.820  -9.102  -4.231  0.00  0.00    +0.008 A 
ATOM     24  C   UNL     1       0.588 -10.421  -4.564  0.00  0.00    +0.001 A 
ATOM     25  C   UNL     1      -0.428 -10.747  -5.445  0.00  0.00    +0.000 A 
ATOM     26  C   UNL     1      -1.218  -9.754  -5.997  0.00  0.00    +0.001 A 
ATOM     27  C   UNL     1      -1.000  -8.432  -5.667  0.00  0.00    +0.008 A 
ENDBRANCH  19  22
BRANCH  18  28
ATOM     28  C   UNL     1       0.960  -5.923  -6.756  0.00  0.00    +0.394 C 
ATOM     29  O   UNL     1       1.327  -4.975  -7.440  0.00  0.00    -0.240 OA
ATOM     30  O   UNL     1       0.822  -7.030  -7.264  0.00  0.00    -0.240 OA
ENDBRANCH  18  28
BRANCH   1  31
ATOM     31  C   UNL     1       0.718  -0.497  -1.257  0.00  0.00    +0.113 C 
BRANCH  31  33
ATOM     32  C   UNL     1      -0.019   1.526   0.010  0.00  0.00    +0.005 C 
ATOM     33  C   UNL     1       0.002  -0.004   0.002  0.00  0.00    +0.016 C 
ENDBRANCH  31  33
ENDBRANCH   1  31
TORSDOF 4
