REMARK  Name = ZINC43867180
REMARK  11 active torsions:
REMARK  status: ('A' for Active; 'I' for Inactive)
REMARK    1  A    between atoms: C_1  and  C_2
REMARK    2  A    between atoms: C_2  and  C_4
REMARK    3  A    between atoms: C_8  and  C_41
REMARK    4  A    between atoms: C_17  and  C_40
REMARK    5  A    between atoms: C_18  and  C_21
REMARK    6  A    between atoms: C_26  and  C_39
REMARK    7  A    between atoms: C_29  and  N_30
REMARK    8  A    between atoms: C_36  and  C_37
REMARK    9  A    between atoms: C_36  and  C_38
REMARK   10  A    between atoms: C_41  and  O_43
REMARK   11  A    between atoms: O_43  and  C_44
REMARK                            x       y       z     vdW  Elec       q    Type
REMARK                         _______ _______ _______ _____ _____    ______ ____
ROOT
ATOM      1  C   UNL     1      -5.225  -1.812  -1.314  0.00  0.00    +0.019 C 
ATOM      2  C   UNL     1      -6.710  -1.623  -0.890  0.00  0.00    +0.009 C 
ATOM      3  C   UNL     1      -7.495  -1.272  -2.177  0.00  0.00    +0.019 C 
ATOM      4  C   UNL     1      -6.571  -1.760  -3.297  0.00  0.00    +0.071 C 
ATOM      5  C   UNL     1      -5.182  -1.323  -2.764  0.00  0.00    +0.017 C 
ATOM      6  C   UNL     1      -4.112  -1.905  -3.662  0.00  0.00    +0.000 C 
ATOM      7  C   UNL     1      -2.707  -1.599  -3.140  0.00  0.00    +0.005 C 
ATOM      8  C   UNL     1      -1.641  -2.169  -4.083  0.00  0.00    +0.005 C 
ATOM      9  C   UNL     1      -1.841  -1.582  -5.481  0.00  0.00    +0.002 C 
ATOM     10  C   UNL     1      -3.225  -1.933  -6.009  0.00  0.00    -0.023 C 
ATOM     11  C   UNL     1      -4.291  -1.329  -5.073  0.00  0.00    -0.023 C 
ATOM     12  C   UNL     1      -5.687  -1.613  -5.614  0.00  0.00    +0.008 C 
ATOM     13  C   UNL     1      -6.787  -1.135  -4.654  0.00  0.00    +0.019 C 
ATOM     14  C   UNL     1      -4.112   0.194  -5.030  0.00  0.00    +0.012 C 
ATOM     15  C   UNL     1      -3.436  -1.416  -7.425  0.00  0.00    +0.008 C 
ATOM     16  C   UNL     1      -2.266  -1.707  -8.347  0.00  0.00    +0.005 C 
ATOM     17  C   UNL     1      -0.906  -1.304  -7.791  0.00  0.00    +0.009 C 
ATOM     18  C   UNL     1      -0.694  -1.911  -6.411  0.00  0.00    -0.021 C 
ATOM     19  C   UNL     1       0.634  -1.425  -5.803  0.00  0.00    +0.047 C 
ATOM     20  C   UNL     1       0.616   0.071  -5.712  0.00  0.00    +0.010 C 
ATOM     21  C   UNL     1       1.232   0.695  -4.686  0.00  0.00    +0.083 C 
ATOM     22  C   UNL     1      -0.037   0.815  -6.692  0.00  0.00    +0.166 C 
ATOM     23  O   UNL     1      -0.125   2.018  -6.559  0.00  0.00    -0.292 OA
ATOM     24  C   UNL     1      -0.614   0.175  -7.923  0.00  0.00    +0.031 C 
ATOM     25  C   UNL     1       0.442   0.344  -9.043  0.00  0.00    +0.019 C 
ATOM     26  C   UNL     1      -1.837   0.993  -8.344  0.00  0.00    +0.019 C 
ATOM     27  C   UNL     1      -0.501  -3.430  -6.569  0.00  0.00    +0.012 C 
ATOM     28  C   UNL     1      -3.456  -3.452  -6.037  0.00  0.00    +0.012 C 
ENDROOT
BRANCH  21  29
ATOM     29  N   UNL     1       1.876  -0.040  -3.725  0.00  0.00    -0.276 N 
ATOM     30  C   UNL     1       2.491   0.583  -2.700  0.00  0.00    +0.301 C 
ATOM     31  O   UNL     1       2.475   1.796  -2.628  0.00  0.00    -0.253 OA
ATOM     32  N   UNL     1       3.124  -0.140  -1.755  0.00  0.00    -0.313 N 
ATOM     33  H   UNL     1       1.889  -1.008  -3.782  0.00  0.00    +0.156 HD
ATOM     34  H   UNL     1       3.137  -1.108  -1.812  0.00  0.00    +0.146 HD
ATOM     35  H   UNL     1       3.567   0.309  -1.018  0.00  0.00    +0.146 HD
ENDBRANCH  21  29
BRANCH   1  37
ATOM     36  C   UNL     1      -4.568   0.532  -0.359  0.00  0.00    +0.039 C 
ATOM     37  C   UNL     1      -4.342  -0.957  -0.434  0.00  0.00    -0.076 C 
ATOM     38  C   UNL     1      -3.380  -1.509   0.263  0.00  0.00    +0.007 C 
ENDBRANCH   1  37
BRANCH   4  39
ATOM     39  C   UNL     1      -6.691  -3.256  -3.381  0.00  0.00    +0.313 C 
ATOM     40  O   UNL     1      -7.179  -3.769  -4.360  0.00  0.00    -0.250 OA
BRANCH  39  41
ATOM     41  O   UNL     1      -6.255  -4.022  -2.369  0.00  0.00    -0.468 OA
ATOM     42  C   UNL     1      -6.401  -5.436  -2.516  0.00  0.00    +0.280 C 
ENDBRANCH  39  41
ENDBRANCH   4  39
TORSDOF 4
