REMARK  Name = ZINC22061471
REMARK  14 active torsions:
REMARK  status: ('A' for Active; 'I' for Inactive)
REMARK    1  A    between atoms: C_1  and  S_2
REMARK    2  A    between atoms: S_2  and  C_3
REMARK    3  A    between atoms: C_3  and  C_4
REMARK    4  A    between atoms: C_4  and  C_5
REMARK    5  A    between atoms: C_5  and  C_7
REMARK    6  A    between atoms: C_5  and  N_23
REMARK    7  A    between atoms: N_9  and  C_10
REMARK    8  A    between atoms: C_10  and  C_11
REMARK    9  A    between atoms: C_11  and  C_13
REMARK   10  A    between atoms: C_11  and  O_22
REMARK   11  A    between atoms: C_16  and  N_19
REMARK   12  A    between atoms: N_23  and  S_24
REMARK   13  A    between atoms: S_24  and  C_27
REMARK   14  A    between atoms: C_28  and  C_29
REMARK                            x       y       z     vdW  Elec       q    Type
REMARK                         _______ _______ _______ _____ _____    ______ ____
ROOT
ATOM      1  C   UNL     1      -0.187  -4.244   2.565  0.00  0.00    +0.163 C 
ENDROOT
BRANCH   1   2
ATOM      2  C   UNL     1      -0.380  -2.752   2.470  0.00  0.00    +0.232 C 
ATOM      3  O   UNL     1      -0.616  -2.107   3.469  0.00  0.00    -0.274 OA
ATOM      4  N   UNL     1      -0.291  -2.136   1.274  0.00  0.00    -0.311 N 
ATOM      5  H   UNL     1      -0.078  -2.722   0.368  0.00  0.00    +0.149 HD
BRANCH   4   6
ATOM      6  C   UNL     1      -0.479  -0.686   1.182  0.00  0.00    +0.140 C 
BRANCH   6   7
ATOM      7  C   UNL     1      -0.328  -0.244  -0.275  0.00  0.00    +0.162 C 
BRANCH   7   8
ATOM      8  C   UNL     1      -0.399   1.259  -0.354  0.00  0.00    -0.018 A 
ATOM      9  C   UNL     1      -1.625   1.895  -0.330  0.00  0.00    +0.008 A 
ATOM     10  C   UNL     1      -1.690   3.275  -0.397  0.00  0.00    +0.033 A 
ATOM     11  C   UNL     1      -0.528   4.017  -0.498  0.00  0.00    +0.126 A 
ATOM     12  C   UNL     1       0.698   3.380  -0.528  0.00  0.00    +0.033 A 
ATOM     13  C   UNL     1       0.763   2.001  -0.456  0.00  0.00    +0.008 A 
BRANCH  11  14
ATOM     14  N   UNL     1      -0.598   5.494  -0.576  0.00  0.00    +0.056 N 
ATOM     15  O   UNL     1       0.426   6.147  -0.666  0.00  0.00    -0.126 OA
ATOM     16  O   UNL     1      -1.679   6.054  -0.549  0.00  0.00    -0.126 OA
ENDBRANCH  11  14
ENDBRANCH   7   8
BRANCH   7  17
ATOM     17  O   UNL     1      -1.381  -0.812  -1.057  0.00  0.00    -0.386 OA
ATOM     18  H   UNL     1      -1.438  -0.605  -2.135  0.00  0.00    +0.210 HD
ENDBRANCH   7  17
ENDBRANCH   6   7
ENDBRANCH   4   6
ENDBRANCH   1   2
BRANCH   1  19
ATOM     19  N   UNL     1      -0.332  -4.667   3.960  0.00  0.00    -0.179 NA
ATOM     20  H   UNL     1      -0.942  -4.072   4.655  0.00  0.00    +0.149 HD
BRANCH  19  21
ATOM     21  S   UNL     1       0.611  -5.891   4.556  0.00  0.00    +0.052 S 
ATOM     22  O   UNL     1       0.253  -6.051   5.922  0.00  0.00    -0.154 OA
ATOM     23  O   UNL     1       0.534  -6.956   3.618  0.00  0.00    -0.154 OA
BRANCH  21  24
ATOM     24  C   UNL     1       2.278  -5.321   4.535  0.00  0.00    +0.153 C 
ATOM     25  C   UNL     1       2.935  -5.153   5.674  0.00  0.00    +0.028 C 
BRANCH  25  26
ATOM     26  C   UNL     1       4.334  -4.675   5.657  0.00  0.00    -0.024 A 
ATOM     27  C   UNL     1       4.967  -4.406   4.444  0.00  0.00    +0.008 A 
ATOM     28  C   UNL     1       6.271  -3.954   4.435  0.00  0.00    +0.001 A 
ATOM     29  C   UNL     1       6.954  -3.780   5.625  0.00  0.00    +0.000 A 
ATOM     30  C   UNL     1       6.333  -4.050   6.832  0.00  0.00    +0.001 A 
ATOM     31  C   UNL     1       5.028  -4.496   6.854  0.00  0.00    +0.008 A 
ENDBRANCH  25  26
ENDBRANCH  21  24
ENDBRANCH  19  21
ENDBRANCH   1  19
BRANCH   1  32
ATOM     32  C   UNL     1      -1.238  -4.950   1.706  0.00  0.00    +0.040 C 
BRANCH  32  33
ATOM     33  C   UNL     1      -2.636  -4.582   2.207  0.00  0.00    +0.071 C 
BRANCH  33  35
ATOM     34  C   UNL     1      -5.458  -4.988   1.990  0.00  0.00    +0.084 C 
ATOM     35  S   UNL     1      -3.878  -5.532   1.286  0.00  0.00    -0.164 S 
ENDBRANCH  33  35
ENDBRANCH  32  33
ENDBRANCH   1  32
TORSDOF 13
