REMARK  Name = ZINC29976206
REMARK  11 active torsions:
REMARK  status: ('A' for Active; 'I' for Inactive)
REMARK    1  A    between atoms: C_1  and  C_2
REMARK    2  A    between atoms: C_5  and  C_9
REMARK    3  A    between atoms: C_6  and  C_8
REMARK    4  A    between atoms: C_11  and  C_14
REMARK    5  A    between atoms: C_14  and  N_15
REMARK    6  A    between atoms: N_15  and  C_16
REMARK    7  A    between atoms: N_15  and  C_17
REMARK    8  A    between atoms: C_17  and  C_19
REMARK    9  A    between atoms: C_17  and  C_20
REMARK   10  A    between atoms: C_23  and  S_26
REMARK   11  A    between atoms: S_26  and  N_29
REMARK                            x       y       z     vdW  Elec       q    Type
REMARK                         _______ _______ _______ _____ _____    ______ ____
ROOT
ATOM      1  N   UNL     1      -2.793   3.764   5.678  0.00  0.00    +0.386 N 
ATOM      2  C   UNL     1      -2.168   5.019   5.239  0.00  0.00    -0.095 C 
ATOM      3  H   UNL     1      -1.999   3.009   5.781  0.00  0.00    -0.081 HD
ENDROOT
BRANCH   1   4
ATOM      4  C   UNL     1      -3.752   3.276   4.679  0.00  0.00    -0.041 C 
ATOM      5  C   UNL     1      -4.722   4.401   4.311  0.00  0.00    -0.008 C 
BRANCH   4   6
ATOM      6  C   UNL     1      -3.010   2.830   3.445  0.00  0.00    -0.061 A 
ATOM      7  C   UNL     1      -3.589   2.979   2.199  0.00  0.00    +0.004 A 
ATOM      8  C   UNL     1      -2.908   2.570   1.067  0.00  0.00    +0.029 A 
ATOM      9  C   UNL     1      -1.648   2.013   1.183  0.00  0.00    +0.105 A 
ATOM     10  C   UNL     1      -1.072   1.859   2.429  0.00  0.00    +0.029 A 
ATOM     11  C   UNL     1      -1.751   2.272   3.560  0.00  0.00    +0.004 A 
BRANCH   9  12
ATOM     12  S   UNL     1      -0.780   1.491  -0.260  0.00  0.00    +0.056 S 
ATOM     13  O   UNL     1      -1.762   1.238  -1.255  0.00  0.00    -0.153 OA
ATOM     14  O   UNL     1       0.150   0.504   0.162  0.00  0.00    -0.153 OA
BRANCH  12  15
ATOM     15  N   UNL     1       0.108   2.784  -0.790  0.00  0.00    -0.204 NA
ATOM     16  H   UNL     1       0.668   2.498  -1.694  0.00  0.00    +0.144 HD
ATOM     17  H   UNL     1       0.814   3.091  -0.004  0.00  0.00    +0.144 HD
ENDBRANCH  12  15
ENDBRANCH   9  12
ENDBRANCH   4   6
ENDBRANCH   1   4
BRANCH   1  18
ATOM     18  C   UNL     1      -3.435   3.926   6.989  0.00  0.00    -0.019 C 
BRANCH  18  21
ATOM     19  C   UNL     1      -0.856   3.860   9.522  0.00  0.00    +0.228 A 
ATOM     20  N   UNL     1      -1.678   3.256   8.697  0.00  0.00    -0.216 NA
ATOM     21  C   UNL     1      -2.382   4.187   8.036  0.00  0.00    +0.063 A 
ATOM     22  C   UNL     1      -1.985   5.394   8.477  0.00  0.00    +0.219 A 
ATOM     23  O   UNL     1      -1.031   5.187   9.406  0.00  0.00    -0.443 OA
BRANCH  19  28
ATOM     24  C   UNL     1       2.859   1.259  13.065  0.00  0.00    +0.044 C 
ATOM     25  C   UNL     1       1.886   1.940  12.138  0.00  0.00    -0.050 A 
ATOM     26  C   UNL     1       0.580   1.490  12.058  0.00  0.00    +0.004 A 
ATOM     27  C   UNL     1      -0.315   2.109  11.210  0.00  0.00    +0.014 A 
ATOM     28  C   UNL     1       0.099   3.192  10.433  0.00  0.00    +0.040 A 
ATOM     29  C   UNL     1       1.418   3.638  10.514  0.00  0.00    -0.038 A 
ATOM     30  C   UNL     1       2.303   3.013  11.369  0.00  0.00    +0.007 A 
ATOM     31  C   UNL     1       1.875   4.802   9.674  0.00  0.00    +0.044 C 
ENDBRANCH  19  28
ENDBRANCH  18  21
ENDBRANCH   1  18
TORSDOF 7
