REMARK  Name = ZINC38050350
REMARK  8 active torsions:
REMARK  status: ('A' for Active; 'I' for Inactive)
REMARK    1  A    between atoms: C_1  and  C_2
REMARK    2  A    between atoms: C_2  and  C_3
REMARK    3  A    between atoms: C_2  and  C_4
REMARK    4  A    between atoms: C_2  and  C_5
REMARK    5  A    between atoms: C_8  and  S_11
REMARK    6  A    between atoms: S_11  and  N_14
REMARK    7  A    between atoms: N_14  and  C_15
REMARK    8  A    between atoms: C_21  and  N_23
REMARK                            x       y       z     vdW  Elec       q    Type
REMARK                         _______ _______ _______ _____ _____    ______ ____
ROOT
ATOM      1  S   UNL     1       2.826  -1.950  -4.962  0.00  0.00    +0.059 S 
ATOM      2  O   UNL     1       4.217  -1.937  -4.669  0.00  0.00    -0.153 OA
ATOM      3  O   UNL     1       2.148  -3.127  -5.380  0.00  0.00    -0.153 OA
ENDROOT
BRANCH   1   7
ATOM      4  C   UNL     1       0.707  -0.490  -1.238  0.00  0.00    -0.042 A 
ATOM      5  C   UNL     1       0.036  -1.284  -2.148  0.00  0.00    +0.006 A 
ATOM      6  C   UNL     1       0.683  -1.730  -3.286  0.00  0.00    +0.029 A 
ATOM      7  C   UNL     1       2.001  -1.381  -3.513  0.00  0.00    +0.105 A 
ATOM      8  C   UNL     1       2.672  -0.586  -2.603  0.00  0.00    +0.029 A 
ATOM      9  C   UNL     1       2.024  -0.137  -1.467  0.00  0.00    +0.006 A 
BRANCH   4  11
ATOM     10  C   UNL     1      -0.019   1.526   0.010  0.00  0.00    +0.015 C 
ATOM     11  C   UNL     1       0.002  -0.004   0.002  0.00  0.00    -0.013 C 
ATOM     12  C   UNL     1       0.742  -0.511   1.242  0.00  0.00    +0.015 C 
ATOM     13  C   UNL     1      -1.433  -0.534   0.013  0.00  0.00    +0.015 C 
ENDBRANCH   4  11
ENDBRANCH   1   7
BRANCH   1  14
ATOM     14  N   UNL     1       2.580  -0.816  -6.143  0.00  0.00    -0.188 NA
ATOM     15  H   UNL     1       2.065  -1.043  -6.934  0.00  0.00    +0.148 HD
BRANCH  14  16
ATOM     16  C   UNL     1       3.138   0.530  -5.994  0.00  0.00    +0.062 C 
ATOM     17  C   UNL     1       2.081   1.457  -5.393  0.00  0.00    +0.019 C 
ATOM     18  C   UNL     1       2.664   2.863  -5.238  0.00  0.00    +0.001 C 
ATOM     19  C   UNL     1       3.088   3.394  -6.609  0.00  0.00    -0.001 C 
ATOM     20  C   UNL     1       4.146   2.466  -7.210  0.00  0.00    -0.015 C 
ATOM     21  C   UNL     1       3.562   1.060  -7.365  0.00  0.00    -0.056 C 
BRANCH  21  22
ATOM     22  N   UNL     1       4.578   0.170  -7.943  0.00  0.00    +0.381 N 
ATOM     23  H   UNL     1       4.193  -0.757  -8.045  0.00  0.00    -0.090 HD
ATOM     24  H   UNL     1       4.857   0.520  -8.847  0.00  0.00    -0.090 HD
ATOM     25  H   UNL     1       5.381   0.135  -7.332  0.00  0.00    -0.090 HD
ENDBRANCH  21  22
ENDBRANCH  14  16
ENDBRANCH   1  14
TORSDOF 5
