REMARK  Name = ZINC67319743
REMARK  13 active torsions:
REMARK  status: ('A' for Active; 'I' for Inactive)
REMARK    1  A    between atoms: C_1  and  C_2
REMARK    2  A    between atoms: N_10  and  C_28
REMARK    3  A    between atoms: C_11  and  S_13
REMARK    4  A    between atoms: S_13  and  C_14
REMARK    5  A    between atoms: C_14  and  C_15
REMARK    6  A    between atoms: N_17  and  C_18
REMARK    7  A    between atoms: C_18  and  C_19
REMARK    8  A    between atoms: C_22  and  C_25
REMARK    9  A    between atoms: C_25  and  C_26
REMARK   10  A    between atoms: C_25  and  C_27
REMARK   11  A    between atoms: C_28  and  C_29
REMARK   12  A    between atoms: C_29  and  C_30
REMARK   13  A    between atoms: C_29  and  C_31
REMARK                            x       y       z     vdW  Elec       q    Type
REMARK                         _______ _______ _______ _____ _____    ______ ____
ROOT
ATOM      1  C   UNL     1      -0.018   1.503   0.010  0.00  0.00    +0.063 C 
ATOM      2  C   UNL     1       0.002  -0.004   0.002  0.00  0.00    +0.016 A 
ATOM      3  C   UNL     1       0.008  -0.776  -1.103  0.00  0.00    +0.051 A 
ATOM      4  C   UNL     1       0.028  -2.126  -0.690  0.00  0.00    +0.097 A 
ATOM      5  C   UNL     1       0.034  -2.116   0.710  0.00  0.00    +0.131 A 
ATOM      6  N   UNL     1       0.023  -0.796   1.109  0.00  0.00    -0.353 N 
ATOM      7  H   UNL     1       0.028  -0.483   2.027  0.00  0.00    +0.166 HD
ATOM      8  C   UNL     1       0.054  -3.344   1.396  0.00  0.00    +0.279 A 
ATOM      9  O   UNL     1       0.059  -3.378   2.615  0.00  0.00    -0.265 OA
ATOM     10  N   UNL     1       0.067  -4.486   0.674  0.00  0.00    -0.286 N 
ATOM     11  C   UNL     1       0.061  -4.441  -0.691  0.00  0.00    +0.173 A 
ATOM     12  N   UNL     1       0.041  -3.303  -1.346  0.00  0.00    -0.222 NA
ENDROOT
BRANCH  11  13
ATOM     13  S   UNL     1       0.079  -5.951  -1.598  0.00  0.00    -0.078 S 
BRANCH  13  14
ATOM     14  C   UNL     1       0.065  -5.421  -3.333  0.00  0.00    +0.173 C 
BRANCH  14  15
ATOM     15  C   UNL     1       0.079  -6.633  -4.229  0.00  0.00    +0.224 C 
ATOM     16  O   UNL     1       0.097  -7.745  -3.744  0.00  0.00    -0.275 OA
ATOM     17  N   UNL     1       0.071  -6.481  -5.568  0.00  0.00    -0.311 N 
ATOM     18  H   UNL     1       0.057  -5.592  -5.955  0.00  0.00    +0.149 HD
BRANCH  17  19
ATOM     19  C   UNL     1       0.085  -7.660  -6.438  0.00  0.00    +0.139 C 
BRANCH  19  20
ATOM     20  C   UNL     1       0.073  -7.219  -7.880  0.00  0.00    -0.030 A 
ATOM     21  C   UNL     1      -1.129  -7.029  -8.534  0.00  0.00    +0.005 A 
ATOM     22  C   UNL     1      -1.140  -6.625  -9.856  0.00  0.00    +0.004 A 
ATOM     23  C   UNL     1       0.051  -6.411 -10.524  0.00  0.00    -0.045 A 
ATOM     24  C   UNL     1       1.254  -6.601  -9.868  0.00  0.00    +0.004 A 
ATOM     25  C   UNL     1       1.265  -7.000  -8.545  0.00  0.00    +0.005 A 
BRANCH  23  26
ATOM     26  C   UNL     1       0.040  -5.972 -11.965  0.00  0.00    +0.013 C 
ATOM     27  C   UNL     1       0.746  -4.621 -12.092  0.00  0.00    +0.012 C 
ATOM     28  C   UNL     1       0.768  -7.011 -12.821  0.00  0.00    +0.012 C 
ENDBRANCH  23  26
ENDBRANCH  19  20
ENDBRANCH  17  19
ENDBRANCH  14  15
ENDBRANCH  13  14
ENDBRANCH  11  13
BRANCH  10  29
ATOM     29  C   UNL     1       0.087  -5.781   1.359  0.00  0.00    +0.130 C 
BRANCH  29  30
ATOM     30  C   UNL     1      -1.348  -6.251   1.603  0.00  0.00    +0.003 C 
ATOM     31  C   UNL     1      -2.034  -6.515   0.262  0.00  0.00    +0.009 C 
ATOM     32  C   UNL     1      -1.328  -7.540   2.428  0.00  0.00    +0.009 C 
ENDBRANCH  29  30
ENDBRANCH  10  29
TORSDOF 8
