REMARK  Name = ZINC24893320
REMARK  9 active torsions:
REMARK  status: ('A' for Active; 'I' for Inactive)
REMARK    1  A    between atoms: C_1  and  C_2
REMARK    2  A    between atoms: C_2  and  C_3
REMARK    3  A    between atoms: C_2  and  C_4
REMARK    4  A    between atoms: C_4  and  C_5
REMARK    5  A    between atoms: C_5  and  N_6
REMARK    6  A    between atoms: C_15  and  S_16
REMARK    7  A    between atoms: S_16  and  C_17
REMARK    8  A    between atoms: C_17  and  C_18
REMARK    9  A    between atoms: C_18  and  C_19
REMARK                            x       y       z     vdW  Elec       q    Type
REMARK                         _______ _______ _______ _____ _____    ______ ____
ROOT
ATOM      1  N   UNL     1      -0.698   1.558   1.213  0.00  0.00    -0.287 N 
ATOM      2  C   UNL     1      -1.671   0.804   1.758  0.00  0.00    +0.263 A 
ATOM      3  O   UNL     1      -1.981  -0.262   1.255  0.00  0.00    -0.267 OA
ATOM      4  C   UNL     1      -2.337   1.272   2.935  0.00  0.00    +0.076 A 
ATOM      5  C   UNL     1      -3.413   0.623   3.687  0.00  0.00    -0.023 A 
ATOM      6  C   UNL     1      -3.878   1.272   4.773  0.00  0.00    -0.004 A 
ATOM      7  S   UNL     1      -2.926   2.765   4.860  0.00  0.00    -0.073 S 
ATOM      8  C   UNL     1      -1.903   2.512   3.432  0.00  0.00    +0.117 A 
ATOM      9  N   UNL     1      -0.935   3.208   2.847  0.00  0.00    -0.216 NA
ATOM     10  C   UNL     1      -0.335   2.752   1.766  0.00  0.00    +0.173 A 
ATOM     11  C   UNL     1      -4.965   0.824   5.702  0.00  0.00    +0.043 C 
ATOM     12  C   UNL     1      -5.738  -0.319   5.028  0.00  0.00    +0.005 C 
ATOM     13  C   UNL     1      -4.732  -1.331   4.472  0.00  0.00    +0.005 C 
ATOM     14  C   UNL     1      -3.994  -0.727   3.276  0.00  0.00    +0.037 C 
ENDROOT
BRANCH   1  15
ATOM     15  C   UNL     1      -0.013   1.086   0.008  0.00  0.00    +0.127 C 
BRANCH  15  16
ATOM     16  C   UNL     1      -0.753   1.593  -1.232  0.00  0.00    +0.025 C 
BRANCH  16  18
ATOM     17  C   UNL     1      -0.124  -0.427  -2.562  0.00  0.00    +0.007 C 
ATOM     18  C   UNL     1      -0.037   1.099  -2.490  0.00  0.00    -0.016 C 
ATOM     19  C   UNL     1      -0.702   1.707  -3.727  0.00  0.00    +0.007 C 
ENDBRANCH  16  18
ENDBRANCH  15  16
ENDBRANCH   1  15
BRANCH  10  20
ATOM     20  S   UNL     1       0.950   3.699   1.020  0.00  0.00    -0.087 S 
BRANCH  20  21
ATOM     21  C   UNL     1       0.989   5.117   2.145  0.00  0.00    +0.086 C 
BRANCH  21  22
ATOM     22  C   UNL     1       2.062   6.105   1.684  0.00  0.00    +0.107 C 
BRANCH  22  23
ATOM     23  C   UNL     1       2.094   7.285   2.620  0.00  0.00    +0.221 C 
ATOM     24  O   UNL     1       1.334   7.332   3.563  0.00  0.00    -0.275 OA
ATOM     25  N   UNL     1       2.969   8.289   2.410  0.00  0.00    -0.240 N 
ATOM     26  C   UNL     1       2.997   9.345   3.247  0.00  0.00    +0.303 C 
ATOM     27  O   UNL     1       2.235   9.391   4.192  0.00  0.00    -0.253 OA
ATOM     28  N   UNL     1       3.872  10.348   3.036  0.00  0.00    -0.313 N 
ATOM     29  H   UNL     1       3.659   8.247   1.554  0.00  0.00    +0.159 HD
ATOM     30  H   UNL     1       3.895  11.210   3.720  0.00  0.00    +0.146 HD
ATOM     31  H   UNL     1       4.562  10.306   2.181  0.00  0.00    +0.146 HD
ENDBRANCH  22  23
ENDBRANCH  21  22
ENDBRANCH  20  21
ENDBRANCH  10  20
TORSDOF 7
