REMARK  Name = ZINC05399232
REMARK  7 active torsions:
REMARK  status: ('A' for Active; 'I' for Inactive)
REMARK    1  A    between atoms: C_7  and  C_11
REMARK    2  A    between atoms: C_11  and  C_12
REMARK    3  A    between atoms: C_12  and  O_14
REMARK    4  A    between atoms: O_14  and  C_15
REMARK    5  A    between atoms: C_15  and  C_16
REMARK    6  A    between atoms: N_18  and  C_19
REMARK    7  A    between atoms: C_20  and  C_27
REMARK                            x       y       z     vdW  Elec       q    Type
REMARK                         _______ _______ _______ _____ _____    ______ ____
ROOT
ATOM      1  C   UNL     1       3.550   2.051  -0.021  0.00  0.00    +0.255 C 
ATOM      2  O   UNL     1       3.374   3.251  -0.013  0.00  0.00    -0.272 OA
ATOM      3  N   UNL     1       4.802   1.553  -0.035  0.00  0.00    -0.277 N 
ATOM      4  H   UNL     1       4.942   0.593  -0.042  0.00  0.00    +0.155 HD
ENDROOT
BRANCH   3   5
ATOM      5  C   UNL     1       5.890   2.412  -0.041  0.00  0.00    +0.084 A 
ATOM      6  C   UNL     1       7.237   2.095  -0.050  0.00  0.00    +0.068 A 
ATOM      7  C   UNL     1       8.194   3.201  -0.059  0.00  0.00    -0.023 A 
ATOM      8  C   UNL     1       7.646   4.429  -0.047  0.00  0.00    -0.004 A 
ATOM      9  S   UNL     1       5.894   4.143  -0.031  0.00  0.00    -0.077 S 
ATOM     10  C   UNL     1       8.691   5.513  -0.054  0.00  0.00    +0.043 C 
ATOM     11  C   UNL     1       9.985   4.802  -0.509  0.00  0.00    +0.010 C 
ATOM     12  C   UNL     1       9.716   3.349  -0.071  0.00  0.00    +0.037 C 
BRANCH   6  13
ATOM     13  C   UNL     1       7.689   0.700  -0.055  0.00  0.00    +0.244 C 
ATOM     14  O   UNL     1       7.870   0.122  -1.111  0.00  0.00    -0.270 OA
ATOM     15  N   UNL     1       7.903   0.057   1.110  0.00  0.00    -0.325 N 
ATOM     16  H   UNL     1       7.759   0.517   1.952  0.00  0.00    +0.145 HD
ATOM     17  H   UNL     1       8.202  -0.866   1.107  0.00  0.00    +0.145 HD
ENDBRANCH   6  13
ENDBRANCH   3   5
BRANCH   1  18
ATOM     18  C   UNL     1       2.367   1.117  -0.015  0.00  0.00    +0.328 C 
BRANCH  18  19
ATOM     19  O   UNL     1       1.139   1.891   0.001  0.00  0.00    -0.455 OA
BRANCH  19  20
ATOM     20  C   UNL     1      -0.014   1.204   0.009  0.00  0.00    +0.312 C 
ATOM     21  O   UNL     1       0.002  -0.004   0.002  0.00  0.00    -0.250 OA
BRANCH  20  22
ATOM     22  C   UNL     1      -1.329   1.940   0.019  0.00  0.00    +0.157 C 
BRANCH  22  29
ATOM     23  C   UNL     1      -3.525  -0.420   3.422  0.00  0.00    +0.001 A 
ATOM     24  C   UNL     1      -4.534  -1.245   2.944  0.00  0.00    +0.002 A 
ATOM     25  C   UNL     1      -4.806  -1.313   1.596  0.00  0.00    +0.026 A 
ATOM     26  C   UNL     1      -4.064  -0.548   0.702  0.00  0.00    +0.047 A 
ATOM     27  C   UNL     1      -3.043   0.286   1.191  0.00  0.00    +0.003 A 
ATOM     28  C   UNL     1      -2.784   0.340   2.562  0.00  0.00    +0.010 A 
ATOM     29  C   UNL     1      -2.462   0.945   0.019  0.00  0.00    -0.012 A 
ATOM     30  C   UNL     1      -3.132   0.499  -1.055  0.00  0.00    +0.087 A 
ATOM     31  N   UNL     1      -4.090  -0.398  -0.667  0.00  0.00    -0.360 N 
ATOM     32  H   UNL     1      -4.699  -0.857  -1.266  0.00  0.00    +0.165 HD
ENDBRANCH  22  29
ENDBRANCH  20  22
ENDBRANCH  19  20
ENDBRANCH  18  19
ENDBRANCH   1  18
TORSDOF 7
