REMARK  Name = ZINC12893718
REMARK  8 active torsions:
REMARK  status: ('A' for Active; 'I' for Inactive)
REMARK    1  A    between atoms: C_4  and  C_7
REMARK    2  A    between atoms: C_12  and  O_35
REMARK    3  A    between atoms: C_14  and  O_18
REMARK    4  A    between atoms: O_18  and  C_19
REMARK    5  A    between atoms: C_19  and  C_20
REMARK    6  A    between atoms: N_22  and  C_23
REMARK    7  A    between atoms: C_23  and  C_24
REMARK    8  A    between atoms: C_24  and  C_25
REMARK                            x       y       z     vdW  Elec       q    Type
REMARK                         _______ _______ _______ _____ _____    ______ ____
ROOT
ATOM      1  C   UNL     1      -0.297   1.291   7.134  0.00  0.00    +0.139 A 
ATOM      2  C   UNL     1       0.817   0.527   7.277  0.00  0.00    +0.098 A 
ATOM      3  C   UNL     1       1.495   0.059   6.125  0.00  0.00    +0.197 A 
ATOM      4  O   UNL     1       2.498  -0.630   6.215  0.00  0.00    -0.287 OA
ATOM      5  C   UNL     1       0.942   0.436   4.813  0.00  0.00    +0.105 A 
ATOM      6  C   UNL     1       1.547   0.019   3.621  0.00  0.00    +0.135 A 
ATOM      7  C   UNL     1       0.997   0.395   2.410  0.00  0.00    +0.092 A 
ATOM      8  C   UNL     1      -0.149   1.183   2.378  0.00  0.00    +0.128 A 
ATOM      9  C   UNL     1      -0.750   1.604   3.554  0.00  0.00    +0.092 A 
ATOM     10  C   UNL     1      -0.216   1.232   4.778  0.00  0.00    +0.146 A 
ATOM     11  O   UNL     1      -0.792   1.629   5.933  0.00  0.00    -0.454 OA
ENDROOT
BRANCH   1  15
ATOM     12  C   UNL     1      -2.290   2.667  10.622  0.00  0.00    +0.000 A 
ATOM     13  C   UNL     1      -2.781   3.000   9.372  0.00  0.00    +0.001 A 
ATOM     14  C   UNL     1      -2.138   2.557   8.235  0.00  0.00    +0.011 A 
ATOM     15  C   UNL     1      -0.990   1.769   8.347  0.00  0.00    +0.017 A 
ATOM     16  C   UNL     1      -0.504   1.431   9.612  0.00  0.00    +0.011 A 
ATOM     17  C   UNL     1      -1.153   1.887  10.741  0.00  0.00    +0.001 A 
ENDBRANCH   1  15
BRANCH   6  18
ATOM     18  O   UNL     1       2.666  -0.748   3.655  0.00  0.00    -0.506 OA
ATOM     19  H   UNL     1       3.490  -0.242   3.663  0.00  0.00    +0.292 HD
ENDBRANCH   6  18
BRANCH   8  20
ATOM     20  O   UNL     1      -0.682   1.547   1.184  0.00  0.00    -0.483 OA
BRANCH  20  21
ATOM     21  C   UNL     1      -0.013   1.086   0.008  0.00  0.00    +0.324 C 
BRANCH  21  22
ATOM     22  C   UNL     1      -0.742   1.585  -1.213  0.00  0.00    +0.251 C 
ATOM     23  O   UNL     1      -1.736   2.268  -1.088  0.00  0.00    -0.272 OA
ATOM     24  N   UNL     1      -0.288   1.272  -2.443  0.00  0.00    -0.312 N 
ATOM     25  H   UNL     1       0.507   0.726  -2.543  0.00  0.00    +0.149 HD
BRANCH  24  26
ATOM     26  C   UNL     1      -0.997   1.758  -3.630  0.00  0.00    +0.109 C 
BRANCH  26  27
ATOM     27  C   UNL     1      -0.281   1.264  -4.889  0.00  0.00    +0.056 C 
BRANCH  27  28
ATOM     28  C   UNL     1      -1.010   1.763  -6.110  0.00  0.00    -0.021 A 
ATOM     29  C   UNL     1      -1.938   1.096  -6.814  0.00  0.00    +0.087 A 
ATOM     30  N   UNL     1      -2.378   1.869  -7.854  0.00  0.00    -0.360 N 
ATOM     31  H   UNL     1      -3.050   1.601  -8.501  0.00  0.00    +0.165 HD
ATOM     32  C   UNL     1      -1.721   3.079  -7.850  0.00  0.00    +0.047 A 
ATOM     33  C   UNL     1      -0.836   3.066  -6.757  0.00  0.00    +0.003 A 
ATOM     34  C   UNL     1      -0.029   4.176  -6.501  0.00  0.00    +0.010 A 
ATOM     35  C   UNL     1      -0.104   5.271  -7.315  0.00  0.00    +0.001 A 
ATOM     36  C   UNL     1      -0.976   5.289  -8.395  0.00  0.00    +0.002 A 
ATOM     37  C   UNL     1      -1.781   4.204  -8.665  0.00  0.00    +0.026 A 
ENDBRANCH  27  28
ENDBRANCH  26  27
ENDBRANCH  24  26
ENDBRANCH  21  22
ENDBRANCH  20  21
ENDBRANCH   8  20
TORSDOF 8
