REMARK  Name = ZINC07511069
REMARK  8 active torsions:
REMARK  status: ('A' for Active; 'I' for Inactive)
REMARK    1  A    between atoms: C_1  and  C_2
REMARK    2  A    between atoms: C_5  and  S_8
REMARK    3  A    between atoms: S_8  and  C_9
REMARK    4  A    between atoms: C_9  and  C_10
REMARK    5  A    between atoms: C_15  and  C_18
REMARK    6  A    between atoms: C_19  and  C_26
REMARK    7  A    between atoms: C_21  and  C_25
REMARK    8  A    between atoms: C_23  and  C_24
REMARK                            x       y       z     vdW  Elec       q    Type
REMARK                         _______ _______ _______ _____ _____    ______ ____
ROOT
ATOM      1  C   UNL     1       2.389   6.487  -0.743  0.00  0.00    +0.229 C 
ATOM      2  O   UNL     1       1.516   7.304  -0.948  0.00  0.00    -0.275 OA
ATOM      3  N   UNL     1       3.656   6.894  -0.531  0.00  0.00    -0.264 N 
ATOM      4  C   UNL     1       3.963   8.249  -0.548  0.00  0.00    +0.165 A 
ATOM      5  N   UNL     1       5.127   8.845  -0.365  0.00  0.00    -0.225 NA
ATOM      6  C   UNL     1       5.240  10.164  -0.416  0.00  0.00    +0.081 A 
ATOM      7  C   UNL     1       4.130  10.923  -0.662  0.00  0.00    +0.076 A 
ATOM      8  S   UNL     1       2.887   9.649  -0.829  0.00  0.00    -0.060 S 
ATOM      9  H   UNL     1       4.355   6.241  -0.368  0.00  0.00    +0.157 HD
ENDROOT
BRANCH   6  10
ATOM     10  C   UNL     1       6.559  10.810  -0.208  0.00  0.00    +0.007 A 
ATOM     11  C   UNL     1       7.046  11.722  -1.143  0.00  0.00    -0.041 A 
ATOM     12  C   UNL     1       8.271  12.324  -0.941  0.00  0.00    +0.007 A 
ATOM     13  C   UNL     1       9.020  12.016   0.180  0.00  0.00    -0.050 A 
ATOM     14  C   UNL     1       8.544  11.108   1.109  0.00  0.00    +0.007 A 
ATOM     15  C   UNL     1       7.318  10.504   0.920  0.00  0.00    -0.041 A 
ATOM     16  C   UNL     1       6.800   9.515   1.933  0.00  0.00    +0.044 C 
ATOM     17  C   UNL     1      10.360  12.673   0.392  0.00  0.00    +0.044 C 
ATOM     18  C   UNL     1       6.234  12.053  -2.368  0.00  0.00    +0.044 C 
ENDBRANCH   6  10
BRANCH   1  19
ATOM     19  C   UNL     1       2.057   5.018  -0.726  0.00  0.00    +0.170 C 
BRANCH  19  20
ATOM     20  S   UNL     1       0.284   4.795  -1.040  0.00  0.00    -0.116 S 
BRANCH  20  25
ATOM     21  C   UNL     1      -0.489  -1.189  -0.863  0.00  0.00    +0.044 C 
ATOM     22  C   UNL     1      -0.296   0.305  -0.907  0.00  0.00    -0.050 A 
ATOM     23  C   UNL     1      -1.377   1.133  -1.150  0.00  0.00    +0.004 A 
ATOM     24  C   UNL     1      -1.203   2.502  -1.192  0.00  0.00    +0.015 A 
ATOM     25  C   UNL     1       0.059   3.048  -0.988  0.00  0.00    +0.008 A 
ATOM     26  C   UNL     1       1.142   2.212  -0.743  0.00  0.00    +0.015 A 
ATOM     27  C   UNL     1       0.961   0.844  -0.704  0.00  0.00    +0.004 A 
ENDBRANCH  20  25
ENDBRANCH  19  20
ENDBRANCH   1  19
TORSDOF 4
