REMARK  Name = ZINC23526768
REMARK  9 active torsions:
REMARK  status: ('A' for Active; 'I' for Inactive)
REMARK    1  A    between atoms: C_1  and  C_2
REMARK    2  A    between atoms: C_4  and  C_33
REMARK    3  A    between atoms: C_5  and  N_9
REMARK    4  A    between atoms: C_10  and  C_12
REMARK    5  A    between atoms: C_12  and  C_14
REMARK    6  A    between atoms: C_12  and  S_15
REMARK    7  A    between atoms: S_15  and  C_16
REMARK    8  A    between atoms: C_19  and  C_22
REMARK    9  A    between atoms: N_20  and  C_21
REMARK                            x       y       z     vdW  Elec       q    Type
REMARK                         _______ _______ _______ _____ _____    ______ ____
ROOT
ATOM      1  S   UNL     1       1.391   5.090   3.335  0.00  0.00    -0.074 S 
ENDROOT
BRANCH   1   2
ATOM      2  C   UNL     1      -0.270   4.836   2.805  0.00  0.00    +0.192 A 
ATOM      3  N   UNL     1      -1.059   3.847   3.157  0.00  0.00    -0.122 NA
ATOM      4  N   UNL     1      -2.201   3.974   2.582  0.00  0.00    -0.130 NA
ATOM      5  C   UNL     1      -2.212   5.045   1.839  0.00  0.00    +0.178 A 
ATOM      6  N   UNL     1      -0.980   5.629   1.950  0.00  0.00    -0.306 N 
ATOM      7  C   UNL     1      -0.520   6.855   1.294  0.00  0.00    +0.153 C 
BRANCH   5   8
ATOM      8  C   UNL     1      -3.365   5.545   1.009  0.00  0.00    +0.278 C 
ATOM      9  C   UNL     1      -4.431   6.165   1.923  0.00  0.00    +0.281 C 
ATOM     10  O   UNL     1      -5.516   6.616   1.105  0.00  0.00    -0.484 OA
ATOM     11  C   UNL     1      -5.962   5.755   0.151  0.00  0.00    +0.162 A 
ATOM     12  C   UNL     1      -7.208   5.960  -0.423  0.00  0.00    +0.049 A 
ATOM     13  C   UNL     1      -7.673   5.095  -1.395  0.00  0.00    +0.004 A 
ATOM     14  C   UNL     1      -6.899   4.022  -1.798  0.00  0.00    +0.004 A 
ATOM     15  C   UNL     1      -5.657   3.812  -1.230  0.00  0.00    +0.049 A 
ATOM     16  C   UNL     1      -5.184   4.676  -0.252  0.00  0.00    +0.163 A 
ATOM     17  O   UNL     1      -3.962   4.451   0.303  0.00  0.00    -0.474 OA
ENDBRANCH   5   8
ENDBRANCH   1   2
BRANCH   1  18
ATOM     18  C   UNL     1       1.597   3.657   4.422  0.00  0.00    +0.137 C 
ATOM     19  C   UNL     1       1.515   2.373   3.593  0.00  0.00    +0.029 C 
BRANCH  18  21
ATOM     20  N   UNL     1       3.164   3.029   6.230  0.00  0.00    -0.283 N 
ATOM     21  C   UNL     1       2.940   3.731   5.101  0.00  0.00    +0.230 C 
ATOM     22  O   UNL     1       3.820   4.423   4.633  0.00  0.00    -0.274 OA
ATOM     23  H   UNL     1       2.343   2.468   6.700  0.00  0.00    +0.155 HD
BRANCH  20  28
ATOM     24  C   UNL     1       8.340   2.967   8.553  0.00  0.00    +0.044 C 
ATOM     25  C   UNL     1       6.966   2.983   7.936  0.00  0.00    -0.049 A 
ATOM     26  C   UNL     1       6.027   3.903   8.366  0.00  0.00    +0.008 A 
ATOM     27  C   UNL     1       4.766   3.921   7.802  0.00  0.00    -0.028 A 
ATOM     28  C   UNL     1       4.441   3.014   6.803  0.00  0.00    +0.055 A 
ATOM     29  C   UNL     1       5.384   2.087   6.377  0.00  0.00    +0.063 A 
ATOM     30  C   UNL     1       6.646   2.078   6.941  0.00  0.00    +0.025 A 
ATOM     31 CL   UNL     1       4.981   0.945   5.132  0.00  0.00    -0.082 Cl
ATOM     32  C   UNL     1       3.744   4.924   8.272  0.00  0.00    +0.046 C 
ENDBRANCH  20  28
ENDBRANCH  18  21
ENDBRANCH   1  18
TORSDOF 5
