REMARK  Name = ZINC59167003
REMARK  7 active torsions:
REMARK  status: ('A' for Active; 'I' for Inactive)
REMARK    1  A    between atoms: C_2  and  C_3
REMARK    2  A    between atoms: C_3  and  O_4
REMARK    3  A    between atoms: O_4  and  C_5
REMARK    4  A    between atoms: C_8  and  C_12
REMARK    5  A    between atoms: N_13  and  N_14
REMARK    6  A    between atoms: C_15  and  C_17
REMARK    7  A    between atoms: C_20  and  O_23
REMARK                            x       y       z     vdW  Elec       q    Type
REMARK                         _______ _______ _______ _____ _____    ______ ____
ROOT
ATOM      1  C   UNL     1       1.981   7.528   0.023  0.00  0.00    +0.138 C 
ATOM      2  N   UNL     1       3.173   8.041   0.009  0.00  0.00    -0.187 NA
ENDROOT
BRANCH   1   6
ATOM      3  C   UNL     1       1.482   3.312   0.006  0.00  0.00    +0.136 A 
ATOM      4  C   UNL     1       0.368   4.141   0.026  0.00  0.00    +0.047 A 
ATOM      5  C   UNL     1       0.525   5.510   0.032  0.00  0.00    +0.013 A 
ATOM      6  C   UNL     1       1.808   6.064   0.017  0.00  0.00    -0.004 A 
ATOM      7  C   UNL     1       2.926   5.227  -0.004  0.00  0.00    +0.028 A 
ATOM      8  C   UNL     1       2.760   3.858  -0.004  0.00  0.00    +0.060 A 
ATOM      9 BR   UNL     1       4.272   2.723  -0.024  0.00  0.00    -0.046 Br
BRANCH   3  10
ATOM     10  O   UNL     1       1.323   1.962   0.000  0.00  0.00    -0.478 OA
BRANCH  10  11
ATOM     11  C   UNL     1      -0.018   1.468   0.010  0.00  0.00    +0.317 C 
BRANCH  11  13
ATOM     12  C   UNL     1       0.018  -1.178  -0.004  0.00  0.00    +0.007 C 
ATOM     13  C   UNL     1       0.002  -0.004   0.002  0.00  0.00    -0.065 C 
ENDBRANCH  11  13
ENDBRANCH  10  11
ENDBRANCH   3  10
ENDBRANCH   1   6
BRANCH   2  14
ATOM     14  N   UNL     1       3.337   9.432   0.015  0.00  0.00    -0.203 N 
ATOM     15  C   UNL     1       4.575   9.965   0.000  0.00  0.00    +0.263 C 
ATOM     16  O   UNL     1       5.550   9.238  -0.018  0.00  0.00    -0.268 OA
ATOM     17  H   UNL     1       2.560  10.012   0.029  0.00  0.00    +0.178 HD
BRANCH  15  18
ATOM     18  C   UNL     1       4.748  11.431   0.006  0.00  0.00    +0.039 A 
ATOM     19  C   UNL     1       3.629  12.268   0.032  0.00  0.00    +0.016 A 
ATOM     20  C   UNL     1       3.795  13.635   0.038  0.00  0.00    +0.046 A 
ATOM     21  C   UNL     1       5.072  14.182   0.018  0.00  0.00    +0.117 A 
ATOM     22  C   UNL     1       6.187  13.353  -0.009  0.00  0.00    +0.046 A 
ATOM     23  C   UNL     1       6.031  11.985  -0.009  0.00  0.00    +0.016 A 
BRANCH  21  24
ATOM     24  O   UNL     1       5.231  15.530   0.023  0.00  0.00    -0.507 OA
ATOM     25  H   UNL     1       5.293  15.915   0.908  0.00  0.00    +0.292 HD
ENDBRANCH  21  24
ENDBRANCH  15  18
ENDBRANCH   2  14
TORSDOF 7
