REMARK  Name = ZINC07375495
REMARK  7 active torsions:
REMARK  status: ('A' for Active; 'I' for Inactive)
REMARK    1  A    between atoms: C_3  and  S_23
REMARK    2  A    between atoms: C_6  and  C_7
REMARK    3  A    between atoms: C_7  and  C_8
REMARK    4  A    between atoms: C_8  and  N_9
REMARK    5  A    between atoms: N_9  and  S_10
REMARK    6  A    between atoms: S_10  and  C_13
REMARK    7  A    between atoms: S_23  and  N_26
REMARK                            x       y       z     vdW  Elec       q    Type
REMARK                         _______ _______ _______ _____ _____    ______ ____
ROOT
ATOM      1  N   UNL     1       1.127   4.347   1.593  0.00  0.00    -0.190 NA
ATOM      2  H   UNL     1       0.359   4.812   1.959  0.00  0.00    +0.148 HD
ENDROOT
BRANCH   1   3
ATOM      3  S   UNL     1       1.124   3.864   0.009  0.00  0.00    +0.058 S 
ATOM      4  O   UNL     1       2.356   4.298  -0.551  0.00  0.00    -0.153 OA
ATOM      5  O   UNL     1      -0.134   4.245  -0.530  0.00  0.00    -0.153 OA
BRANCH   3   6
ATOM      6  C   UNL     1       1.161   2.102   0.002  0.00  0.00    +0.106 A 
ATOM      7  C   UNL     1       2.372   1.434  -0.011  0.00  0.00    +0.029 A 
ATOM      8  C   UNL     1       2.393   0.055  -0.019  0.00  0.00    +0.006 A 
ATOM      9  C   UNL     1       1.207  -0.669  -0.015  0.00  0.00    -0.044 A 
ATOM     10  C   UNL     1       0.002  -0.004   0.002  0.00  0.00    -0.042 A 
ATOM     11  C   UNL     1      -0.017   1.385   0.010  0.00  0.00    +0.032 A 
ATOM     12  C   UNL     1      -1.321  -0.724   0.018  0.00  0.00    +0.035 C 
ATOM     13  C   UNL     1      -1.148  -2.176  -0.422  0.00  0.00    +0.005 C 
ATOM     14  C   UNL     1      -0.019  -2.800   0.405  0.00  0.00    +0.005 C 
ATOM     15  C   UNL     1       1.303  -2.173  -0.032  0.00  0.00    +0.035 C 
ENDBRANCH   3   6
ENDBRANCH   1   3
BRANCH   1  16
ATOM     16  C   UNL     1       2.291   4.073   2.440  0.00  0.00    +0.110 C 
BRANCH  16  17
ATOM     17  C   UNL     1       2.210   4.925   3.708  0.00  0.00    +0.052 C 
BRANCH  17  23
ATOM     18  C   UNL     1       3.347   3.643   5.533  0.00  0.00    +0.005 A 
ATOM     19  C   UNL     1       4.446   3.381   6.329  0.00  0.00    +0.029 A 
ATOM     20  C   UNL     1       5.601   4.125   6.180  0.00  0.00    +0.105 A 
ATOM     21  C   UNL     1       5.659   5.129   5.231  0.00  0.00    +0.029 A 
ATOM     22  C   UNL     1       4.561   5.388   4.431  0.00  0.00    +0.005 A 
ATOM     23  C   UNL     1       3.406   4.643   4.580  0.00  0.00    -0.046 A 
BRANCH  20  24
ATOM     24  S   UNL     1       7.000   3.794   7.198  0.00  0.00    +0.056 S 
ATOM     25  O   UNL     1       6.877   2.447   7.633  0.00  0.00    -0.153 OA
ATOM     26  O   UNL     1       8.139   4.265   6.490  0.00  0.00    -0.153 OA
BRANCH  24  27
ATOM     27  N   UNL     1       6.858   4.742   8.549  0.00  0.00    -0.204 NA
ATOM     28  H   UNL     1       6.096   5.334   8.648  0.00  0.00    +0.144 HD
ATOM     29  H   UNL     1       7.537   4.706   9.240  0.00  0.00    +0.144 HD
ENDBRANCH  24  27
ENDBRANCH  20  24
ENDBRANCH  17  23
ENDBRANCH  16  17
ENDBRANCH   1  16
TORSDOF 7
