REMARK  Name = ZINC02422895
REMARK  9 active torsions:
REMARK  status: ('A' for Active; 'I' for Inactive)
REMARK    1  A    between atoms: C_1  and  C_2
REMARK    2  A    between atoms: C_2  and  C_3
REMARK    3  A    between atoms: C_3  and  C_4
REMARK    4  A    between atoms: C_4  and  N_5
REMARK    5  A    between atoms: C_6  and  N_7
REMARK    6  A    between atoms: C_8  and  C_22
REMARK    7  A    between atoms: C_14  and  C_21
REMARK    8  A    between atoms: N_24  and  C_25
REMARK    9  A    between atoms: C_25  and  C_26
REMARK                            x       y       z     vdW  Elec       q    Type
REMARK                         _______ _______ _______ _____ _____    ______ ____
ROOT
ATOM      1  N   UNL     1      -4.568   0.021   0.080  0.00  0.00    -0.313 N 
ATOM      2  C   UNL     1      -5.839  -0.512   0.103  0.00  0.00    +0.110 A 
ATOM      3  C   UNL     1      -6.018  -1.972   0.087  0.00  0.00    +0.075 A 
ATOM      4  C   UNL     1      -4.895  -2.788   0.047  0.00  0.00    +0.033 A 
ATOM      5  C   UNL     1      -3.620  -2.205   0.024  0.00  0.00    +0.083 A 
ATOM      6  C   UNL     1      -3.467  -0.800   0.041  0.00  0.00    +0.150 A 
ATOM      7  N   UNL     1      -2.247  -0.279   0.018  0.00  0.00    -0.211 NA
ATOM      8  C   UNL     1      -1.159  -1.048  -0.021  0.00  0.00    +0.145 A 
ATOM      9  C   UNL     1       0.108  -0.436  -0.043  0.00  0.00    -0.007 A 
ATOM     10  C   UNL     1       1.229  -1.212  -0.077  0.00  0.00    +0.008 A 
ATOM     11  C   UNL     1       1.104  -2.608  -0.095  0.00  0.00    +0.019 A 
ATOM     12  C   UNL     1      -0.121  -3.179  -0.079  0.00  0.00    +0.096 A 
ATOM     13  N   UNL     1      -1.248  -2.412  -0.045  0.00  0.00    -0.267 N 
ATOM     14  C   UNL     1      -2.457  -3.016  -0.030  0.00  0.00    +0.268 A 
ATOM     15  O   UNL     1      -2.545  -4.231  -0.046  0.00  0.00    -0.267 OA
ATOM     16  C   UNL     1       0.225   1.066  -0.024  0.00  0.00    +0.047 C 
ENDROOT
BRANCH   3  17
ATOM     17  C   UNL     1      -7.363  -2.557   0.112  0.00  0.00    +0.248 C 
ATOM     18  O   UNL     1      -8.341  -1.837   0.041  0.00  0.00    -0.270 OA
ATOM     19  N   UNL     1      -7.515  -3.893   0.214  0.00  0.00    -0.307 N 
ATOM     20  H   UNL     1      -6.630  -4.544   0.278  0.00  0.00    +0.149 HD
BRANCH  19  21
ATOM     21  C   UNL     1      -8.858  -4.477   0.239  0.00  0.00    +0.141 C 
BRANCH  21  22
ATOM     22  C   UNL     1      -8.752  -5.976   0.357  0.00  0.00    -0.012 A 
ATOM     23  C   UNL     1      -8.898  -6.770  -0.765  0.00  0.00    +0.006 A 
ATOM     24  C   UNL     1      -8.796  -8.144  -0.657  0.00  0.00    +0.000 A 
ATOM     25  C   UNL     1      -8.557  -8.726   0.574  0.00  0.00    +0.001 A 
ATOM     26  C   UNL     1      -8.416  -7.933   1.697  0.00  0.00    +0.020 A 
ATOM     27  C   UNL     1      -8.513  -6.557   1.589  0.00  0.00    +0.046 A 
ATOM     28 CL   UNL     1      -8.336  -5.561   3.000  0.00  0.00    -0.083 Cl
ENDBRANCH  21  22
ENDBRANCH  19  21
ENDBRANCH   3  17
BRANCH   2  29
ATOM     29  N   UNL     1      -6.882   0.278   0.140  0.00  0.00    -0.344 N 
ATOM     30  H   UNL     1      -7.896  -0.150   0.159  0.00  0.00    +0.144 HD
ATOM     31  H   UNL     1      -6.746   1.369   0.152  0.00  0.00    +0.144 HD
ENDBRANCH   2  29
BRANCH   1  32
ATOM     32  C   UNL     1      -4.389   1.475   0.097  0.00  0.00    +0.125 C 
BRANCH  32  33
ATOM     33  C   UNL     1      -4.363   2.002  -1.340  0.00  0.00    +0.021 C 
BRANCH  33  35
ATOM     34  C   UNL     1      -4.150   4.047  -2.759  0.00  0.00    +0.004 C 
ATOM     35  C   UNL     1      -4.177   3.520  -1.322  0.00  0.00    -0.002 C 
ENDBRANCH  33  35
ENDBRANCH  32  33
ENDBRANCH   1  32
TORSDOF 7
