REMARK  Name = ZINC16530049
REMARK  14 active torsions:
REMARK  status: ('A' for Active; 'I' for Inactive)
REMARK    1  A    between atoms: C_1  and  C_2
REMARK    2  A    between atoms: C_2  and  C_3
REMARK    3  A    between atoms: C_3  and  C_4
REMARK    4  A    between atoms: C_4  and  C_5
REMARK    5  A    between atoms: C_5  and  C_6
REMARK    6  A    between atoms: C_9  and  C_12
REMARK    7  A    between atoms: N_14  and  C_15
REMARK    8  A    between atoms: N_14  and  C_19
REMARK    9  A    between atoms: C_15  and  C_16
REMARK   10  A    between atoms: C_16  and  O_17
REMARK   11  A    between atoms: O_17  and  C_18
REMARK   12  A    between atoms: C_19  and  C_20
REMARK   13  A    between atoms: C_30  and  C_32
REMARK   14  A    between atoms: C_37  and  C_38
REMARK                            x       y       z     vdW  Elec       q    Type
REMARK                         _______ _______ _______ _____ _____    ______ ____
ROOT
ATOM      1  C   UNL     1      -0.574   1.148   0.234  0.00  0.00    +0.204 C 
ENDROOT
BRANCH   1   2
ATOM      2  C   UNL     1      -0.977   1.927   1.459  0.00  0.00    +0.234 C 
ATOM      3  O   UNL     1      -1.686   2.905   1.350  0.00  0.00    -0.274 OA
ATOM      4  N   UNL     1      -0.550   1.536   2.676  0.00  0.00    -0.289 N 
ATOM      5  C   UNL     1       0.192   0.277   2.838  0.00  0.00    +0.114 C 
ATOM      6  C   UNL     1       1.618   0.620   3.311  0.00  0.00    +0.062 C 
ATOM      7  C   UNL     1       1.531   1.675   4.366  0.00  0.00    -0.003 A 
ATOM      8  C   UNL     1       0.475   2.483   4.656  0.00  0.00    -0.012 A 
ATOM      9  C   UNL     1       0.653   3.398   5.692  0.00  0.00    +0.013 A 
ATOM     10  C   UNL     1       1.831   3.448   6.356  0.00  0.00    +0.046 A 
ATOM     11  S   UNL     1       2.773   2.175   5.529  0.00  0.00    -0.101 S 
ATOM     12  C   UNL     1      -0.824   2.360   3.862  0.00  0.00    +0.138 C 
BRANCH  12  13
ATOM     13  C   UNL     1      -1.293   3.728   3.435  0.00  0.00    -0.020 A 
ATOM     14  C   UNL     1      -0.501   4.503   2.608  0.00  0.00    +0.006 A 
ATOM     15  C   UNL     1      -0.933   5.755   2.214  0.00  0.00    +0.000 A 
ATOM     16  C   UNL     1      -2.152   6.236   2.653  0.00  0.00    +0.000 A 
ATOM     17  C   UNL     1      -2.941   5.463   3.484  0.00  0.00    +0.004 A 
ATOM     18  C   UNL     1      -2.511   4.209   3.875  0.00  0.00    -0.045 A 
ATOM     19  C   UNL     1      -3.372   3.366   4.781  0.00  0.00    +0.044 C 
ENDBRANCH  12  13
ENDBRANCH   1   2
BRANCH   1  22
ATOM     20  C   UNL     1      -0.485   2.728  -1.619  0.00  0.00    +0.247 C 
ATOM     21  O   UNL     1       0.564   3.150  -1.174  0.00  0.00    -0.270 OA
ATOM     22  N   UNL     1      -1.162   1.769  -0.955  0.00  0.00    -0.287 N 
BRANCH  20  26
ATOM     23  C   UNL     1      -2.023   4.277  -5.263  0.00  0.00    -0.047 A 
ATOM     24  C   UNL     1      -1.466   5.134  -4.331  0.00  0.00    +0.004 A 
ATOM     25  C   UNL     1      -0.966   4.638  -3.145  0.00  0.00    +0.013 A 
ATOM     26  C   UNL     1      -1.021   3.267  -2.887  0.00  0.00    +0.037 A 
ATOM     27  C   UNL     1      -1.578   2.407  -3.834  0.00  0.00    +0.013 A 
ATOM     28  C   UNL     1      -2.080   2.917  -5.014  0.00  0.00    +0.004 A 
BRANCH  23  29
ATOM     29  C   UNL     1      -2.568   4.826  -6.556  0.00  0.00    +0.035 C 
BRANCH  29  30
ATOM     30  C   UNL     1      -1.459   4.844  -7.610  0.00  0.00    +0.005 C 
BRANCH  30  31
ATOM     31  C   UNL     1      -2.012   5.401  -8.923  0.00  0.00    +0.000 C 
BRANCH  31  33
ATOM     32  C   UNL     1      -1.457   5.977 -11.290  0.00  0.00    +0.004 C 
ATOM     33  C   UNL     1      -0.904   5.419  -9.977  0.00  0.00    -0.003 C 
ENDBRANCH  31  33
ENDBRANCH  30  31
ENDBRANCH  29  30
ENDBRANCH  23  29
ENDBRANCH  20  26
BRANCH  22  34
ATOM     34  C   UNL     1      -2.484   1.348  -1.424  0.00  0.00    +0.136 C 
BRANCH  34  35
ATOM     35  C   UNL     1      -3.551   2.278  -0.842  0.00  0.00    +0.178 C 
BRANCH  35  36
ATOM     36  O   UNL     1      -3.368   3.597  -1.360  0.00  0.00    -0.381 OA
ATOM     37  C   UNL     1      -4.318   4.549  -0.877  0.00  0.00    +0.194 C 
ENDBRANCH  35  36
ENDBRANCH  34  35
ENDBRANCH  22  34
ENDBRANCH   1  22
TORSDOF 11
