REMARK  Name = ZINC63642323
REMARK  7 active torsions:
REMARK  status: ('A' for Active; 'I' for Inactive)
REMARK    1  A    between atoms: C_1  and  C_2
REMARK    2  A    between atoms: C_2  and  C_3
REMARK    3  A    between atoms: C_2  and  S_13
REMARK    4  A    between atoms: C_6  and  O_9
REMARK    5  A    between atoms: O_9  and  C_10
REMARK    6  A    between atoms: S_13  and  C_14
REMARK    7  A    between atoms: C_14  and  C_15
REMARK                            x       y       z     vdW  Elec       q    Type
REMARK                         _______ _______ _______ _____ _____    ______ ____
ROOT
ATOM      1  S   UNL     1       0.879  -0.605   1.472  0.00  0.00    -0.147 S 
ENDROOT
BRANCH   1   3
ATOM      2  C   UNL     1      -0.019   1.526   0.010  0.00  0.00    +0.024 C 
ATOM      3  C   UNL     1       0.002  -0.004   0.002  0.00  0.00    +0.074 C 
BRANCH   3   4
ATOM      4  C   UNL     1      -1.412  -0.526   0.013  0.00  0.00    -0.034 A 
ATOM      5  C   UNL     1      -2.258  -0.203   1.057  0.00  0.00    +0.008 A 
ATOM      6  C   UNL     1      -3.555  -0.681   1.070  0.00  0.00    +0.046 A 
ATOM      7  C   UNL     1      -4.007  -1.484   0.033  0.00  0.00    +0.127 A 
ATOM      8  C   UNL     1      -3.156  -1.805  -1.015  0.00  0.00    +0.046 A 
ATOM      9  C   UNL     1      -1.862  -1.321  -1.025  0.00  0.00    +0.008 A 
BRANCH   7  10
ATOM     10  O   UNL     1      -5.282  -1.955   0.043  0.00  0.00    -0.434 OA
BRANCH  10  11
ATOM     11  C   UNL     1      -5.679  -2.776  -1.058  0.00  0.00    +0.541 C 
ATOM     12  F   UNL     1      -5.555  -2.051  -2.248  0.00  0.00    -0.166 F 
ATOM     13  F   UNL     1      -4.860  -3.908  -1.114  0.00  0.00    -0.166 F 
ENDBRANCH  10  11
ENDBRANCH   7  10
ENDBRANCH   3   4
ENDBRANCH   1   3
BRANCH   1  14
ATOM     14  C   UNL     1       2.582  -0.025   1.234  0.00  0.00    +0.123 C 
BRANCH  14  15
ATOM     15  C   UNL     1       3.429  -0.463   2.401  0.00  0.00    +0.033 A 
ATOM     16  C   UNL     1       4.327  -1.501   2.266  0.00  0.00    +0.092 A 
ATOM     17  C   UNL     1       5.103  -1.892   3.357  0.00  0.00    +0.259 A 
ATOM     18  O   UNL     1       5.900  -2.810   3.243  0.00  0.00    -0.267 OA
ATOM     19  N   UNL     1       4.970  -1.246   4.554  0.00  0.00    -0.264 N 
ATOM     20  C   UNL     1       5.659  -1.512   5.713  0.00  0.00    +0.104 A 
ATOM     21  C   UNL     1       5.439  -0.807   6.822  0.00  0.00    +0.067 A 
ATOM     22  S   UNL     1       4.182   0.341   6.282  0.00  0.00    -0.059 S 
ATOM     23  C   UNL     1       4.056  -0.227   4.600  0.00  0.00    +0.158 A 
ATOM     24  N   UNL     1       3.328   0.148   3.578  0.00  0.00    -0.338 N 
ATOM     25  H   UNL     1       2.702   0.882   3.682  0.00  0.00    +0.168 HD
ENDBRANCH  14  15
ENDBRANCH   1  14
TORSDOF 6
