REMARK  Name = ZINC55412303
REMARK  7 active torsions:
REMARK  status: ('A' for Active; 'I' for Inactive)
REMARK    1  A    between atoms: C_1  and  C_2
REMARK    2  A    between atoms: C_2  and  O_3
REMARK    3  A    between atoms: O_3  and  C_4
REMARK    4  A    between atoms: C_9  and  C_10
REMARK    5  A    between atoms: C_12  and  C_26
REMARK    6  A    between atoms: C_13  and  C_25
REMARK    7  A    between atoms: C_18  and  C_20
REMARK                            x       y       z     vdW  Elec       q    Type
REMARK                         _______ _______ _______ _____ _____    ______ ____
ROOT
ATOM      1  C   UNL     1      -4.002  -1.310   0.079  0.00  0.00    +0.162 C 
ATOM      2  C   UNL     1      -4.825  -1.794   1.278  0.00  0.00    +0.148 C 
ATOM      3  C   UNL     1      -5.486  -3.111   0.986  0.00  0.00    +0.034 C 
ATOM      4  N   UNL     1      -5.895  -3.445  -0.194  0.00  0.00    -0.220 NA
ATOM      5  C   UNL     1      -5.680  -2.584  -1.233  0.00  0.00    +0.250 A 
ATOM      6  N   UNL     1      -4.785  -1.553  -1.133  0.00  0.00    -0.220 N 
ATOM      7  N   UNL     1      -4.810  -0.876  -2.348  0.00  0.00    -0.147 NA
ATOM      8  C   UNL     1      -5.676  -1.512  -3.118  0.00  0.00    +0.190 A 
ATOM      9  N   UNL     1      -6.189  -2.553  -2.436  0.00  0.00    -0.189 NA
ATOM     10  C   UNL     1      -5.680  -4.087   2.119  0.00  0.00    +0.062 C 
ENDROOT
BRANCH   1  16
ATOM     11  C   UNL     1      -1.496  -1.395   0.074  0.00  0.00    +0.126 A 
ATOM     12  C   UNL     1      -0.303  -2.101   0.015  0.00  0.00    +0.046 A 
ATOM     13  C   UNL     1      -0.322  -3.476  -0.113  0.00  0.00    +0.004 A 
ATOM     14  C   UNL     1      -1.528  -4.149  -0.183  0.00  0.00    +0.001 A 
ATOM     15  C   UNL     1      -2.717  -3.448  -0.125  0.00  0.00    +0.009 A 
ATOM     16  C   UNL     1      -2.704  -2.073   0.009  0.00  0.00    +0.020 A 
BRANCH  11  17
ATOM     17  O   UNL     1      -1.481  -0.042   0.200  0.00  0.00    -0.492 OA
BRANCH  17  19
ATOM     18  C   UNL     1      -0.383   2.102   0.402  0.00  0.00    +0.048 C 
ATOM     19  C   UNL     1      -0.200   0.589   0.260  0.00  0.00    +0.225 C 
ENDBRANCH  17  19
ENDBRANCH  11  17
ENDBRANCH   1  16
BRANCH   8  20
ATOM     20  C   UNL     1      -6.024  -1.141  -4.506  0.00  0.00    +0.058 A 
ATOM     21  C   UNL     1      -6.907  -1.739  -5.364  0.00  0.00    +0.019 A 
ATOM     22  C   UNL     1      -7.069  -1.208  -6.625  0.00  0.00    +0.008 A 
ATOM     23  C   UNL     1      -6.350  -0.112  -6.978  0.00  0.00    +0.046 A 
ATOM     24  S   UNL     1      -5.407   0.210  -5.497  0.00  0.00    -0.093 S 
ENDBRANCH   8  20
BRANCH   2  25
ATOM     25  C   UNL     1      -3.916  -1.951   2.470  0.00  0.00    +0.221 C 
ATOM     26  O   UNL     1      -3.133  -2.875   2.518  0.00  0.00    -0.275 OA
ATOM     27  N   UNL     1      -3.974  -1.064   3.483  0.00  0.00    -0.329 N 
ATOM     28  H   UNL     1      -4.601  -0.324   3.445  0.00  0.00    +0.145 HD
ATOM     29  H   UNL     1      -3.389  -1.165   4.250  0.00  0.00    +0.145 HD
ENDBRANCH   2  25
TORSDOF 5
