REMARK  Name = ZINC00531575
REMARK  9 active torsions:
REMARK  status: ('A' for Active; 'I' for Inactive)
REMARK    1  A    between atoms: C_1  and  C_2
REMARK    2  A    between atoms: C_2  and  N_49
REMARK    3  A    between atoms: C_3  and  C_4
REMARK    4  A    between atoms: C_3  and  N_49
REMARK    5  A    between atoms: C_5  and  C_6
REMARK    6  A    between atoms: C_5  and  N_49
REMARK    7  A    between atoms: C_6  and  N_7
REMARK    8  A    between atoms: C_16  and  C_18
REMARK    9  A    between atoms: C_23  and  O_24
REMARK                            x       y       z     vdW  Elec       q    Type
REMARK                         _______ _______ _______ _____ _____    ______ ____
ROOT
ATOM      1  N   UNL     1       5.775   2.918   1.080  0.00  0.00    -0.330 N 
ATOM      2  C   UNL     1       4.563   3.519   1.343  0.00  0.00    +0.130 A 
ATOM      3  C   UNL     1       4.496   4.880   1.734  0.00  0.00    +0.040 A 
ATOM      4  C   UNL     1       5.643   5.669   1.871  0.00  0.00    +0.013 A 
ATOM      5  C   UNL     1       5.521   6.973   2.251  0.00  0.00    +0.001 A 
ATOM      6  C   UNL     1       4.271   7.530   2.504  0.00  0.00    +0.002 A 
ATOM      7  C   UNL     1       3.134   6.789   2.380  0.00  0.00    +0.028 A 
ATOM      8  C   UNL     1       3.223   5.444   1.992  0.00  0.00    +0.077 A 
ATOM      9  N   UNL     1       2.135   4.674   1.850  0.00  0.00    -0.227 NA
ATOM     10  C   UNL     1       2.253   3.410   1.487  0.00  0.00    +0.166 A 
ATOM     11  N   UNL     1       3.431   2.840   1.236  0.00  0.00    -0.212 NA
ATOM     12  H   UNL     1       6.597   3.426   1.162  0.00  0.00    +0.147 HD
ENDROOT
BRANCH  10  13
ATOM     13  C   UNL     1       1.025   2.594   1.348  0.00  0.00    +0.061 A 
ATOM     14  C   UNL     1       1.113   1.257   0.961  0.00  0.00    +0.015 A 
ATOM     15  C   UNL     1      -0.034   0.501   0.834  0.00  0.00    +0.001 A 
ATOM     16  C   UNL     1      -1.273   1.066   1.083  0.00  0.00    +0.004 A 
ATOM     17  C   UNL     1      -1.372   2.388   1.472  0.00  0.00    +0.046 A 
ATOM     18  C   UNL     1      -0.228   3.160   1.605  0.00  0.00    +0.128 A 
BRANCH  18  19
ATOM     19  O   UNL     1      -0.324   4.461   1.982  0.00  0.00    -0.506 OA
ATOM     20  H   UNL     1      -0.417   5.078   1.243  0.00  0.00    +0.292 HD
ENDBRANCH  18  19
ENDBRANCH  10  13
BRANCH   1  21
ATOM     21  C   UNL     1       5.822   1.510   0.677  0.00  0.00    +0.084 C 
BRANCH  21  22
ATOM     22  C   UNL     1       7.277   1.093   0.449  0.00  0.00    -0.060 C 
BRANCH  22  23
ATOM     23  N   UNL     1       7.309  -0.334   0.064  0.00  0.00    +0.380 N 
ATOM     24  H   UNL     1       6.775  -0.877   0.753  0.00  0.00    -0.082 HD
BRANCH  23  26
ATOM     25  C   UNL     1       7.449   0.305  -2.320  0.00  0.00    -0.017 C 
ATOM     26  C   UNL     1       6.695  -0.511  -1.268  0.00  0.00    -0.082 C 
ENDBRANCH  23  26
BRANCH  23  27
ATOM     27  C   UNL     1       8.705  -0.820   0.046  0.00  0.00    -0.082 C 
ATOM     28  C   UNL     1       8.691  -2.350   0.010  0.00  0.00    -0.017 C 
ENDBRANCH  23  27
ENDBRANCH  22  23
ENDBRANCH  21  22
ENDBRANCH   1  21
TORSDOF 7
