REMARK  Name = ZINC63805043
REMARK  7 active torsions:
REMARK  status: ('A' for Active; 'I' for Inactive)
REMARK    1  A    between atoms: C_1  and  C_2
REMARK    2  A    between atoms: C_5  and  C_7
REMARK    3  A    between atoms: C_16  and  S_20
REMARK    4  A    between atoms: C_17  and  C_18
REMARK    5  A    between atoms: S_20  and  C_21
REMARK    6  A    between atoms: C_21  and  C_22
REMARK    7  A    between atoms: C_22  and  C_24
REMARK                            x       y       z     vdW  Elec       q    Type
REMARK                         _______ _______ _______ _____ _____    ______ ____
ROOT
ATOM      1  C   UNL     1       1.684  -3.245  -0.023  0.00  0.00    +0.125 C 
ATOM      2  C   UNL     1       2.528  -3.192  -1.277  0.00  0.00    -0.037 C 
ATOM      3  C   UNL     1       3.754  -2.726  -1.244  0.00  0.00    +0.009 C 
ATOM      4  C   UNL     1       4.639  -2.629  -2.460  0.00  0.00    +0.051 C 
ATOM      5  C   UNL     1       4.119  -3.515  -3.588  0.00  0.00    +0.006 C 
ATOM      6  C   UNL     1       2.627  -3.210  -3.777  0.00  0.00    +0.005 C 
ATOM      7  C   UNL     1       1.885  -3.709  -2.541  0.00  0.00    +0.033 C 
ATOM      8  N   UNL     1       4.309  -2.289  -0.036  0.00  0.00    -0.312 N 
ATOM      9  C   UNL     1       3.807  -2.727   1.163  0.00  0.00    +0.080 C 
ATOM     10  C   UNL     1       2.532  -3.204   1.213  0.00  0.00    +0.071 C 
ATOM     11  H   UNL     1       5.056  -1.671  -0.047  0.00  0.00    +0.152 HD
ENDROOT
BRANCH   1  16
ATOM     12  C   UNL     1      -0.018   1.503   0.010  0.00  0.00    +0.086 C 
ATOM     13  C   UNL     1       0.002  -0.004   0.002  0.00  0.00    +0.102 A 
ATOM     14  C   UNL     1      -1.078  -0.805   0.003  0.00  0.00    +0.044 A 
ATOM     15  C   UNL     1      -0.601  -2.136  -0.007  0.00  0.00    +0.046 A 
ATOM     16  C   UNL     1       0.742  -2.069  -0.013  0.00  0.00    +0.117 A 
ATOM     17  O   UNL     1       1.102  -0.775  -0.013  0.00  0.00    -0.464 OA
ENDBRANCH   1  16
BRANCH  10  18
ATOM     18  C   UNL     1       1.998  -3.670   2.457  0.00  0.00    +0.098 C 
ATOM     19  N   UNL     1       1.574  -4.040   3.444  0.00  0.00    -0.191 NA
ENDBRANCH  10  18
BRANCH   9  20
ATOM     20  S   UNL     1       4.797  -2.672   2.619  0.00  0.00    -0.101 S 
BRANCH  20  21
ATOM     21  C   UNL     1       6.373  -1.974   2.051  0.00  0.00    +0.155 C 
BRANCH  21  22
ATOM     22  C   UNL     1       7.325  -1.872   3.215  0.00  0.00    +0.173 C 
ATOM     23  O   UNL     1       6.975  -2.234   4.319  0.00  0.00    -0.291 OA
BRANCH  22  24
ATOM     24  C   UNL     1       8.678  -1.333   3.013  0.00  0.00    +0.018 A 
ATOM     25  C   UNL     1       9.082  -0.909   1.742  0.00  0.00    +0.014 A 
ATOM     26  C   UNL     1      10.351  -0.405   1.559  0.00  0.00    +0.039 A 
ATOM     27  C   UNL     1      11.227  -0.318   2.631  0.00  0.00    +0.123 A 
ATOM     28  C   UNL     1      10.832  -0.736   3.894  0.00  0.00    +0.039 A 
ATOM     29  C   UNL     1       9.564  -1.236   4.091  0.00  0.00    +0.014 A 
ATOM     30  F   UNL     1      12.471   0.176   2.445  0.00  0.00    -0.205 F 
ENDBRANCH  22  24
ENDBRANCH  21  22
ENDBRANCH  20  21
ENDBRANCH   9  20
TORSDOF 6
