REMARK  Name = ZINC22704450
REMARK  7 active torsions:
REMARK  status: ('A' for Active; 'I' for Inactive)
REMARK    1  A    between atoms: C_1  and  C_2
REMARK    2  A    between atoms: C_7  and  C_27
REMARK    3  A    between atoms: C_17  and  C_19
REMARK    4  A    between atoms: C_22  and  O_25
REMARK    5  A    between atoms: O_25  and  C_26
REMARK    6  A    between atoms: C_30  and  O_33
REMARK    7  A    between atoms: O_33  and  C_34
REMARK                            x       y       z     vdW  Elec       q    Type
REMARK                         _______ _______ _______ _____ _____    ______ ____
ROOT
ATOM      1  C   UNL     1      -2.303   0.252   0.793  0.00  0.00    +0.008 C 
ATOM      2  C   UNL     1      -1.711  -1.154   0.673  0.00  0.00    -0.001 C 
ATOM      3  C   UNL     1      -1.186  -1.375  -0.744  0.00  0.00    +0.055 C 
ATOM      4  C   UNL     1      -0.584  -2.765  -0.862  0.00  0.00    +0.017 C 
ATOM      5  C   UNL     1       0.023  -3.336   0.193  0.00  0.00    +0.037 C 
ATOM      6  C   UNL     1       0.664  -4.703   0.213  0.00  0.00    +0.147 C 
ATOM      7  N   UNL     1       0.826  -5.310  -1.091  0.00  0.00    -0.254 N 
ATOM      8  C   UNL     1      -0.282  -5.657  -1.864  0.00  0.00    +0.059 A 
ATOM      9  C   UNL     1      -0.566  -6.978  -2.174  0.00  0.00    +0.025 A 
ATOM     10  C   UNL     1      -1.703  -7.276  -2.905  0.00  0.00    +0.002 A 
ATOM     11  C   UNL     1      -2.552  -6.267  -3.321  0.00  0.00    +0.002 A 
ATOM     12  C   UNL     1      -2.263  -4.945  -3.028  0.00  0.00    +0.025 A 
ATOM     13  C   UNL     1      -1.114  -4.644  -2.317  0.00  0.00    +0.053 A 
ATOM     14  N   UNL     1      -0.706  -3.337  -2.087  0.00  0.00    -0.316 N 
ATOM     15  C   UNL     1       2.066  -5.544  -1.565  0.00  0.00    +0.252 C 
ATOM     16  O   UNL     1       3.035  -5.344  -0.858  0.00  0.00    -0.270 OA
ATOM     17  C   UNL     1       0.089  -2.654   1.431  0.00  0.00    +0.163 C 
ATOM     18  O   UNL     1       0.667  -3.182   2.360  0.00  0.00    -0.292 OA
ATOM     19  C   UNL     1      -0.528  -1.304   1.638  0.00  0.00    +0.083 C 
ATOM     20  H   UNL     1      -0.492  -2.791  -2.860  0.00  0.00    +0.152 HD
ENDROOT
BRANCH  15  21
ATOM     21  C   UNL     1       2.247  -6.043  -2.942  0.00  0.00    +0.037 A 
ATOM     22  C   UNL     1       1.373  -5.638  -3.955  0.00  0.00    +0.016 A 
ATOM     23  C   UNL     1       1.546  -6.106  -5.238  0.00  0.00    +0.046 A 
ATOM     24  C   UNL     1       2.588  -6.979  -5.527  0.00  0.00    +0.120 A 
ATOM     25  C   UNL     1       3.459  -7.385  -4.523  0.00  0.00    +0.046 A 
ATOM     26  C   UNL     1       3.297  -6.916  -3.238  0.00  0.00    +0.016 A 
BRANCH  24  27
ATOM     27  O   UNL     1       2.755  -7.438  -6.794  0.00  0.00    -0.495 OA
ATOM     28  C   UNL     1       3.846  -8.333  -7.021  0.00  0.00    +0.277 C 
ENDBRANCH  24  27
ENDBRANCH  15  21
BRANCH   6  29
ATOM     29  C   UNL     1      -0.186  -5.616   1.059  0.00  0.00    -0.022 A 
ATOM     30  C   UNL     1      -1.479  -5.912   0.670  0.00  0.00    +0.009 A 
ATOM     31  C   UNL     1      -2.260  -6.748   1.444  0.00  0.00    +0.046 A 
ATOM     32  C   UNL     1      -1.746  -7.291   2.612  0.00  0.00    +0.120 A 
ATOM     33  C   UNL     1      -0.448  -6.993   3.000  0.00  0.00    +0.046 A 
ATOM     34  C   UNL     1       0.331  -6.161   2.220  0.00  0.00    +0.009 A 
BRANCH  32  35
ATOM     35  O   UNL     1      -2.512  -8.114   3.376  0.00  0.00    -0.495 OA
ATOM     36  C   UNL     1      -1.917  -8.637   4.565  0.00  0.00    +0.277 C 
ENDBRANCH  32  35
ENDBRANCH   6  29
TORSDOF 4
