REMARK  Name = ZINC16977189
REMARK  9 active torsions:
REMARK  status: ('A' for Active; 'I' for Inactive)
REMARK    1  A    between atoms: C_1  and  C_2
REMARK    2  A    between atoms: C_3  and  C_13
REMARK    3  A    between atoms: C_13  and  C_14
REMARK    4  A    between atoms: C_14  and  N_15
REMARK    5  A    between atoms: N_15  and  C_16
REMARK    6  A    between atoms: N_15  and  C_22
REMARK    7  A    between atoms: C_16  and  C_17
REMARK    8  A    between atoms: C_22  and  N_24
REMARK    9  A    between atoms: N_24  and  C_25
REMARK                            x       y       z     vdW  Elec       q    Type
REMARK                         _______ _______ _______ _____ _____    ______ ____
ROOT
ATOM      1  N   UNL     1       3.826  -1.885  -1.761  0.00  0.00    -0.305 N 
ENDROOT
BRANCH   1   2
ATOM      2  C   UNL     1       5.162  -2.061  -1.767  0.00  0.00    +0.138 C 
ATOM      3  S   UNL     1       6.198  -0.738  -2.098  0.00  0.00    -0.018 S 
BRANCH   2   4
ATOM      4  N   UNL     1       5.683  -3.277  -1.512  0.00  0.00    -0.297 N 
ATOM      5  H   UNL     1       5.102  -4.007  -1.246  0.00  0.00    +0.154 HD
BRANCH   4   6
ATOM      6  C   UNL     1       7.062  -3.487  -1.631  0.00  0.00    +0.033 A 
ATOM      7  C   UNL     1       7.758  -2.941  -2.700  0.00  0.00    +0.026 A 
ATOM      8  C   UNL     1       9.120  -3.145  -2.813  0.00  0.00    +0.040 A 
ATOM      9  C   UNL     1       9.788  -3.904  -1.867  0.00  0.00    +0.124 A 
ATOM     10  C   UNL     1       9.094  -4.454  -0.802  0.00  0.00    +0.040 A 
ATOM     11  C   UNL     1       7.734  -4.247  -0.683  0.00  0.00    +0.026 A 
ATOM     12  F   UNL     1      11.119  -4.107  -1.982  0.00  0.00    -0.205 F 
ENDBRANCH   4   6
ENDBRANCH   2   4
ENDBRANCH   1   2
BRANCH   1  13
ATOM     13  C   UNL     1       3.260  -0.563  -2.038  0.00  0.00    +0.112 C 
BRANCH  13  14
ATOM     14  C   UNL     1       3.110   0.213  -0.728  0.00  0.00    +0.056 C 
BRANCH  14  17
ATOM     15  C   UNL     1       4.715   2.793  -1.361  0.00  0.00    +0.063 C 
ATOM     16  C   UNL     1       3.213   2.694  -1.288  0.00  0.00    +0.017 A 
ATOM     17  C   UNL     1       2.527   1.573  -1.013  0.00  0.00    -0.018 A 
ATOM     18  C   UNL     1       1.105   1.923  -1.044  0.00  0.00    +0.005 A 
ATOM     19  C   UNL     1      -0.075   1.205  -0.842  0.00  0.00    +0.030 A 
ATOM     20  C   UNL     1      -1.282   1.839  -0.949  0.00  0.00    +0.042 A 
ATOM     21  C   UNL     1      -1.342   3.195  -1.246  0.00  0.00    +0.022 A 
ATOM     22  C   UNL     1      -0.189   3.921  -1.448  0.00  0.00    +0.027 A 
ATOM     23  C   UNL     1       1.049   3.295  -1.349  0.00  0.00    +0.047 A 
ATOM     24  N   UNL     1       2.347   3.733  -1.492  0.00  0.00    -0.358 N 
ATOM     25  H   UNL     1       2.608   4.643  -1.705  0.00  0.00    +0.166 HD
ATOM     26 CL   UNL     1      -2.749   0.945  -0.705  0.00  0.00    -0.084 Cl
ENDBRANCH  14  17
ENDBRANCH  13  14
ENDBRANCH   1  13
BRANCH   1  27
ATOM     27  C   UNL     1       2.939  -3.017  -1.478  0.00  0.00    +0.181 C 
BRANCH  27  28
ATOM     28  C   UNL     1       2.589  -3.715  -2.766  0.00  0.00    +0.122 A 
ATOM     29  C   UNL     1       3.274  -4.730  -3.322  0.00  0.00    +0.046 A 
ATOM     30  C   UNL     1       2.598  -5.076  -4.515  0.00  0.00    +0.041 A 
ATOM     31  C   UNL     1       1.540  -4.252  -4.616  0.00  0.00    +0.195 A 
ATOM     32  O   UNL     1       1.536  -3.433  -3.551  0.00  0.00    -0.466 OA
ENDBRANCH  27  28
ENDBRANCH   1  27
TORSDOF 8
