REMARK  Name = ZINC06445969
REMARK  6 active torsions:
REMARK  status: ('A' for Active; 'I' for Inactive)
REMARK    1  A    between atoms: C_4  and  C_7
REMARK    2  A    between atoms: N_11  and  C_15
REMARK    3  A    between atoms: C_15  and  C_16
REMARK    4  A    between atoms: C_16  and  C_18
REMARK    5  A    between atoms: C_16  and  O_34
REMARK    6  A    between atoms: C_18  and  N_19
REMARK                            x       y       z     vdW  Elec       q    Type
REMARK                         _______ _______ _______ _____ _____    ______ ____
ROOT
ATOM      1  C   UNL     1       0.415   0.913   0.611  0.00  0.00    +0.152 C 
ENDROOT
BRANCH   1   2
ATOM      2  O   UNL     1       0.365   2.322   0.843  0.00  0.00    -0.388 OA
ATOM      3  H   UNL     1       1.210   2.773   0.711  0.00  0.00    +0.210 HD
ENDBRANCH   1   2
BRANCH   1   4
ATOM      4  C   UNL     1       0.845   0.649  -0.834  0.00  0.00    +0.150 C 
BRANCH   4   9
ATOM      5  C   UNL     1      -1.006   4.297  -3.640  0.00  0.00    +0.028 C 
ATOM      6  C   UNL     1      -0.940   3.067  -3.073  0.00  0.00    +0.080 C 
ATOM      7  C   UNL     1       0.069   2.508  -2.149  0.00  0.00    +0.260 C 
ATOM      8  O   UNL     1       1.025   3.162  -1.775  0.00  0.00    -0.269 OA
ATOM      9  N   UNL     1      -0.120   1.262  -1.750  0.00  0.00    -0.226 N 
ATOM     10  C   UNL     1      -1.178   0.540  -2.172  0.00  0.00    +0.286 C 
ATOM     11  O   UNL     1      -1.469  -0.607  -1.891  0.00  0.00    -0.262 OA
ATOM     12  S   UNL     1      -2.050   1.675  -3.239  0.00  0.00    -0.026 S 
BRANCH   5  16
ATOM     13  C   UNL     1       1.682   7.341  -2.420  0.00  0.00    +0.000 A 
ATOM     14  C   UNL     1       1.335   7.224  -3.755  0.00  0.00    +0.001 A 
ATOM     15  C   UNL     1       0.462   6.237  -4.160  0.00  0.00    +0.008 A 
ATOM     16  C   UNL     1      -0.074   5.353  -3.217  0.00  0.00    -0.024 A 
ATOM     17  C   UNL     1       0.277   5.482  -1.869  0.00  0.00    +0.008 A 
ATOM     18  C   UNL     1       1.156   6.471  -1.481  0.00  0.00    +0.001 A 
ENDBRANCH   5  16
ENDBRANCH   4   9
ENDBRANCH   1   4
BRANCH   1  19
ATOM     19  C   UNL     1       1.423   0.273   1.567  0.00  0.00    +0.155 C 
BRANCH  19  20
ATOM     20  N   UNL     1       0.950   0.422   2.946  0.00  0.00    -0.337 N 
ATOM     21  C   UNL     1       1.249   1.489   3.775  0.00  0.00    +0.050 A 
ATOM     22  C   UNL     1       2.003   2.643   3.580  0.00  0.00    +0.028 A 
ATOM     23  C   UNL     1       2.131   3.563   4.598  0.00  0.00    +0.022 A 
ATOM     24  C   UNL     1       1.510   3.354   5.821  0.00  0.00    +0.042 A 
ATOM     25  C   UNL     1       0.756   2.218   6.031  0.00  0.00    +0.030 A 
ATOM     26  C   UNL     1       0.618   1.281   5.010  0.00  0.00    +0.009 A 
ATOM     27  C   UNL     1      -0.097  -0.004   4.903  0.00  0.00    +0.009 A 
ATOM     28  C   UNL     1       0.144  -0.488   3.608  0.00  0.00    +0.050 A 
ATOM     29  C   UNL     1      -0.414  -1.701   3.219  0.00  0.00    +0.028 A 
ATOM     30  C   UNL     1      -1.195  -2.417   4.102  0.00  0.00    +0.022 A 
ATOM     31  C   UNL     1      -1.433  -1.937   5.382  0.00  0.00    +0.042 A 
ATOM     32  C   UNL     1      -0.888  -0.736   5.785  0.00  0.00    +0.030 A 
ATOM     33 CL   UNL     1      -2.419  -2.852   6.479  0.00  0.00    -0.084 Cl
ATOM     34 CL   UNL     1       1.685   4.524   7.092  0.00  0.00    -0.084 Cl
ENDBRANCH  19  20
ENDBRANCH   1  19
TORSDOF 6
