REMARK  Name = ZINC09330095
REMARK  7 active torsions:
REMARK  status: ('A' for Active; 'I' for Inactive)
REMARK    1  A    between atoms: C_1  and  O_2
REMARK    2  A    between atoms: O_2  and  C_3
REMARK    3  A    between atoms: C_6  and  C_9
REMARK    4  A    between atoms: C_14  and  C_22
REMARK    5  A    between atoms: C_25  and  O_29
REMARK    6  A    between atoms: C_26  and  O_28
REMARK    7  A    between atoms: O_29  and  C_30
REMARK                            x       y       z     vdW  Elec       q    Type
REMARK                         _______ _______ _______ _____ _____    ______ ____
ROOT
ATOM      1  C   UNL     1      -4.981  -2.629   0.035  0.00  0.00    +0.032 C 
ATOM      2  C   UNL     1      -5.087  -3.518   1.275  0.00  0.00    +0.060 C 
ATOM      3  C   UNL     1      -6.405  -4.256   1.261  0.00  0.00    +0.020 C 
ATOM      4  C   UNL     1      -6.996  -4.599   0.097  0.00  0.00    +0.041 C 
ATOM      5  C   UNL     1      -8.316  -5.336   0.051  0.00  0.00    +0.176 C 
ATOM      6  N   UNL     1      -8.634  -5.872   1.368  0.00  0.00    -0.221 N 
ATOM      7  C   UNL     1      -7.994  -5.495   2.502  0.00  0.00    +0.218 A 
ATOM      8  N   UNL     1      -8.518  -6.152   3.499  0.00  0.00    -0.201 NA
ATOM      9  C   UNL     1      -9.485  -6.956   3.046  0.00  0.00    +0.247 A 
ATOM     10  N   UNL     1      -9.588  -6.816   1.747  0.00  0.00    -0.156 NA
ATOM     11  N   UNL     1      -6.967  -4.564   2.477  0.00  0.00    -0.287 N 
ATOM     12  C   UNL     1      -6.401  -4.277  -1.137  0.00  0.00    +0.164 C 
ATOM     13  O   UNL     1      -6.946  -4.620  -2.167  0.00  0.00    -0.292 OA
ATOM     14  C   UNL     1      -5.105  -3.517  -1.208  0.00  0.00    +0.088 C 
ATOM     15  H   UNL     1      -6.654  -4.144   3.293  0.00  0.00    +0.155 HD
ENDROOT
BRANCH   1  19
ATOM     16  C   UNL     1      -1.200  -0.637   0.010  0.00  0.00    +0.120 A 
ATOM     17  C   UNL     1      -2.375   0.101   0.019  0.00  0.00    +0.046 A 
ATOM     18  C   UNL     1      -3.596  -0.545   0.027  0.00  0.00    +0.007 A 
ATOM     19  C   UNL     1      -3.648  -1.927   0.026  0.00  0.00    -0.043 A 
ATOM     20  C   UNL     1      -2.479  -2.665   0.017  0.00  0.00    +0.007 A 
ATOM     21  C   UNL     1      -1.255  -2.024   0.003  0.00  0.00    +0.046 A 
BRANCH  16  23
ATOM     22  C   UNL     1      -0.017   1.425   0.010  0.00  0.00    +0.277 C 
ATOM     23  O   UNL     1       0.002  -0.004   0.002  0.00  0.00    -0.495 OA
ENDBRANCH  16  23
ENDBRANCH   1  19
BRANCH   5  24
ATOM     24  C   UNL     1      -9.405  -4.385  -0.375  0.00  0.00    -0.015 A 
ATOM     25  C   UNL     1      -9.670  -3.257   0.380  0.00  0.00    +0.010 A 
ATOM     26  C   UNL     1     -10.668  -2.382  -0.007  0.00  0.00    +0.050 A 
ATOM     27  C   UNL     1     -11.405  -2.634  -1.153  0.00  0.00    +0.161 A 
ATOM     28  C   UNL     1     -11.138  -3.769  -1.913  0.00  0.00    +0.159 A 
ATOM     29  C   UNL     1     -10.133  -4.639  -1.522  0.00  0.00    +0.055 A 
BRANCH  28  30
ATOM     30  O   UNL     1     -11.858  -4.020  -3.039  0.00  0.00    -0.503 OA
ATOM     31  H   UNL     1     -11.480  -3.636  -3.841  0.00  0.00    +0.292 HD
ENDBRANCH  28  30
BRANCH  27  32
ATOM     32  O   UNL     1     -12.387  -1.774  -1.535  0.00  0.00    -0.491 OA
ATOM     33  C   UNL     1     -12.605  -0.630  -0.706  0.00  0.00    +0.277 C 
ENDBRANCH  27  32
ENDBRANCH   5  24
TORSDOF 5
