REMARK  Name = ZINC37966092
REMARK  12 active torsions:
REMARK  status: ('A' for Active; 'I' for Inactive)
REMARK    1  A    between atoms: C_1  and  C_2
REMARK    2  A    between atoms: C_2  and  C_3
REMARK    3  A    between atoms: C_3  and  C_4
REMARK    4  A    between atoms: C_3  and  C_11
REMARK    5  A    between atoms: C_3  and  N_16
REMARK    6  A    between atoms: C_11  and  O_13
REMARK    7  A    between atoms: O_13  and  C_14
REMARK    8  A    between atoms: C_14  and  C_15
REMARK    9  A    between atoms: N_16  and  C_17
REMARK   10  A    between atoms: C_17  and  C_18
REMARK   11  A    between atoms: C_18  and  C_19
REMARK   12  A    between atoms: C_18  and  C_20
REMARK                            x       y       z     vdW  Elec       q    Type
REMARK                         _______ _______ _______ _____ _____    ______ ____
ROOT
ATOM      1  C   UNL     1       0.718  -0.497  -1.257  0.00  0.00    +0.057 C 
ENDROOT
BRANCH   1   2
ATOM      2  C   UNL     1      -0.011   0.002  -2.478  0.00  0.00    -0.048 A 
ATOM      3  C   UNL     1       0.643   0.806  -3.392  0.00  0.00    +0.004 A 
ATOM      4  C   UNL     1      -0.024   1.264  -4.513  0.00  0.00    +0.015 A 
ATOM      5  C   UNL     1      -1.348   0.917  -4.718  0.00  0.00    +0.018 A 
ATOM      6  C   UNL     1      -2.002   0.112  -3.803  0.00  0.00    +0.015 A 
ATOM      7  C   UNL     1      -1.331  -0.349  -2.686  0.00  0.00    +0.004 A 
ATOM      8 BR   UNL     1      -2.262   1.543  -6.250  0.00  0.00    -0.050 Br
ENDBRANCH   1   2
BRANCH   1   9
ATOM      9  N   UNL     1       2.096   0.011  -1.267  0.00  0.00    +0.393 N 
ATOM     10  H   UNL     1       2.569  -0.314  -2.097  0.00  0.00    -0.084 HD
ATOM     11  H   UNL     1       2.083   1.020  -1.262  0.00  0.00    -0.084 HD
BRANCH   9  12
ATOM     12  C   UNL     1       2.807  -0.476  -0.077  0.00  0.00    -0.078 C 
BRANCH  12  13
ATOM     13  C   UNL     1       4.242   0.054  -0.088  0.00  0.00    -0.034 C 
ATOM     14  C   UNL     1       4.225   1.578   0.046  0.00  0.00    +0.005 C 
ATOM     15  C   UNL     1       5.018  -0.552   1.083  0.00  0.00    +0.005 C 
ENDBRANCH  12  13
ENDBRANCH   9  12
ENDBRANCH   1   9
BRANCH   1  17
ATOM     16  C   UNL     1      -0.019   1.526   0.010  0.00  0.00    +0.003 C 
ATOM     17  C   UNL     1       0.002  -0.004   0.002  0.00  0.00    -0.000 C 
ENDBRANCH   1  17
BRANCH   1  18
ATOM     18  C   UNL     1       0.739  -2.004  -1.265  0.00  0.00    +0.300 C 
ATOM     19  O   UNL     1      -0.104  -2.623  -0.660  0.00  0.00    -0.252 OA
BRANCH  18  20
ATOM     20  O   UNL     1       1.694  -2.659  -1.944  0.00  0.00    -0.466 OA
BRANCH  20  21
ATOM     21  C   UNL     1       1.652  -4.087  -1.909  0.00  0.00    +0.228 C 
ATOM     22  C   UNL     1       2.810  -4.651  -2.734  0.00  0.00    +0.048 C 
ENDBRANCH  20  21
ENDBRANCH  18  20
ENDBRANCH   1  18
TORSDOF 8
