REMARK  Name = ZINC08927863
REMARK  10 active torsions:
REMARK  status: ('A' for Active; 'I' for Inactive)
REMARK    1  A    between atoms: C_1  and  C_2
REMARK    2  A    between atoms: C_10  and  N_16
REMARK    3  A    between atoms: C_11  and  C_12
REMARK    4  A    between atoms: C_12  and  O_14
REMARK    5  A    between atoms: O_14  and  C_15
REMARK    6  A    between atoms: C_17  and  C_19
REMARK    7  A    between atoms: N_24  and  S_25
REMARK    8  A    between atoms: S_25  and  C_28
REMARK    9  A    between atoms: C_31  and  O_34
REMARK   10  A    between atoms: O_34  and  C_35
REMARK                            x       y       z     vdW  Elec       q    Type
REMARK                         _______ _______ _______ _____ _____    ______ ____
ROOT
ATOM      1  N   UNL     1       5.111  -6.460   3.794  0.00  0.00    -0.278 N 
ATOM      2  C   UNL     1       4.668  -5.266   4.234  0.00  0.00    +0.236 C 
ATOM      3  O   UNL     1       4.121  -5.183   5.314  0.00  0.00    -0.274 OA
ATOM      4  H   UNL     1       5.548  -6.527   2.930  0.00  0.00    +0.155 HD
ENDROOT
BRANCH   1  14
ATOM      5  C   UNL     1       1.988 -12.215   8.303  0.00  0.00    +0.109 C 
ATOM      6  C   UNL     1       3.232 -12.623   7.556  0.00  0.00    +0.213 C 
ATOM      7  O   UNL     1       3.403 -13.784   7.250  0.00  0.00    -0.276 OA
ATOM      8  N   UNL     1       4.154 -11.697   7.227  0.00  0.00    -0.297 N 
ATOM      9  C   UNL     1       5.378 -12.063   6.498  0.00  0.00    +0.113 C 
ATOM     10  C   UNL     1       5.378 -11.388   5.125  0.00  0.00    +0.056 C 
ATOM     11  C   UNL     1       5.027  -9.915   5.292  0.00  0.00    -0.018 A 
ATOM     12  C   UNL     1       4.399  -9.463   6.399  0.00  0.00    +0.013 A 
ATOM     13  S   UNL     1       4.205  -7.724   6.137  0.00  0.00    -0.076 S 
ATOM     14  C   UNL     1       4.941  -7.593   4.574  0.00  0.00    +0.086 A 
ATOM     15  C   UNL     1       5.325  -8.899   4.295  0.00  0.00    +0.091 A 
ATOM     16  C   UNL     1       3.974 -10.276   7.585  0.00  0.00    +0.150 C 
BRANCH  15  17
ATOM     17  C   UNL     1       6.006  -9.239   3.044  0.00  0.00    +0.342 C 
ATOM     18  O   UNL     1       7.220  -9.204   2.983  0.00  0.00    -0.245 OA
BRANCH  17  19
ATOM     19  O   UNL     1       5.286  -9.591   1.959  0.00  0.00    -0.464 OA
ATOM     20  C   UNL     1       6.027  -9.915   0.753  0.00  0.00    +0.280 C 
ENDBRANCH  17  19
ENDBRANCH  15  17
ENDBRANCH   1  14
BRANCH   2  21
ATOM     21  C   UNL     1       4.852  -4.035   3.386  0.00  0.00    +0.166 C 
ATOM     22  C   UNL     1       6.356  -3.762   3.171  0.00  0.00    +0.031 C 
ATOM     23  C   UNL     1       6.447  -2.216   3.253  0.00  0.00    +0.019 C 
ATOM     24  C   UNL     1       5.377  -1.898   4.328  0.00  0.00    +0.110 C 
ATOM     25  N   UNL     1       4.291  -2.864   4.076  0.00  0.00    -0.165 NA
BRANCH  25  26
ATOM     26  S   UNL     1       2.704  -2.665   4.505  0.00  0.00    +0.062 S 
ATOM     27  O   UNL     1       2.688  -1.746   5.589  0.00  0.00    -0.153 OA
ATOM     28  O   UNL     1       2.144  -3.968   4.603  0.00  0.00    -0.153 OA
BRANCH  26  29
ATOM     29  C   UNL     1       1.895  -1.869   3.158  0.00  0.00    +0.106 A 
ATOM     30  C   UNL     1       1.317  -2.626   2.155  0.00  0.00    +0.032 A 
ATOM     31  C   UNL     1       0.682  -2.003   1.098  0.00  0.00    +0.047 A 
ATOM     32  C   UNL     1       0.626  -0.618   1.042  0.00  0.00    +0.120 A 
ATOM     33  C   UNL     1       1.212   0.139   2.045  0.00  0.00    +0.047 A 
ATOM     34  C   UNL     1       1.840  -0.488   3.104  0.00  0.00    +0.032 A 
BRANCH  32  35
ATOM     35  O   UNL     1       0.002  -0.004   0.002  0.00  0.00    -0.495 OA
ATOM     36  C   UNL     1      -0.017   1.425   0.010  0.00  0.00    +0.277 C 
ENDBRANCH  32  35
ENDBRANCH  26  29
ENDBRANCH  25  26
ENDBRANCH   2  21
TORSDOF 7
