REMARK  Name = ZINC40783170
REMARK  4 active torsions:
REMARK  status: ('A' for Active; 'I' for Inactive)
REMARK    1  A    between atoms: C_1  and  C_2
REMARK    2  A    between atoms: C_13  and  N_25
REMARK    3  A    between atoms: C_14  and  S_18
REMARK    4  A    between atoms: S_18  and  C_19
REMARK                            x       y       z     vdW  Elec       q    Type
REMARK                         _______ _______ _______ _____ _____    ______ ____
ROOT
ATOM      1  C   UNL     1      -0.016   1.501   0.010  0.00  0.00    +0.046 C 
ATOM      2  C   UNL     1       0.009  -0.006   0.002  0.00  0.00    -0.024 A 
ATOM      3  C   UNL     1       0.016  -0.677  -1.194  0.00  0.00    +0.005 A 
ATOM      4  C   UNL     1       0.040  -2.063  -1.246  0.00  0.00    +0.001 A 
ATOM      5  C   UNL     1       0.056  -2.785  -0.066  0.00  0.00    +0.017 A 
ATOM      6  C   UNL     1       0.049  -2.122   1.134  0.00  0.00    +0.041 A 
ATOM      7  C   UNL     1       0.031  -0.711   1.227  0.00  0.00    +0.083 A 
ATOM      8  N   UNL     1       0.032  -0.206   2.480  0.00  0.00    -0.224 NA
ATOM      9  C   UNL     1       0.053  -0.971   3.548  0.00  0.00    +0.165 A 
ATOM     10  S   UNL     1       0.064  -2.612   2.842  0.00  0.00    -0.052 S 
ATOM     11  N   UNL     1       0.057  -0.600   4.879  0.00  0.00    -0.277 N 
ATOM     12  C   UNL     1       0.081  -1.573   5.873  0.00  0.00    +0.150 A 
ATOM     13  C   UNL     1       0.079  -1.211   7.221  0.00  0.00    +0.098 A 
ATOM     14  C   UNL     1       0.104  -2.228   8.177  0.00  0.00    +0.127 A 
ATOM     15  N   UNL     1       0.128  -3.496   7.770  0.00  0.00    -0.227 NA
ATOM     16  C   UNL     1       0.128  -3.794   6.487  0.00  0.00    +0.224 A 
ATOM     17  N   UNL     1       0.101  -2.865   5.553  0.00  0.00    -0.219 NA
ATOM     18  H   UNL     1       0.043   0.340   5.120  0.00  0.00    +0.156 HD
ENDROOT
BRANCH  13  19
ATOM     19  N   UNL     1       0.054   0.139   7.604  0.00  0.00    -0.353 N 
ATOM     20  H   UNL     1       0.038   0.835   6.928  0.00  0.00    +0.142 HD
ATOM     21  H   UNL     1       0.053   0.376   8.545  0.00  0.00    +0.142 HD
ENDBRANCH  13  19
BRANCH  14  22
ATOM     22  S   UNL     1       0.104  -1.841   9.896  0.00  0.00    -0.068 S 
BRANCH  22  23
ATOM     23  C   UNL     1      -0.015  -3.411  10.687  0.00  0.00    +0.014 A 
ATOM     24  C   UNL     1       1.135  -4.063  11.114  0.00  0.00    +0.015 A 
ATOM     25  C   UNL     1       1.039  -5.294  11.734  0.00  0.00    +0.001 A 
ATOM     26  C   UNL     1      -0.200  -5.877  11.929  0.00  0.00    +0.000 A 
ATOM     27  C   UNL     1      -1.347  -5.230  11.504  0.00  0.00    +0.001 A 
ATOM     28  C   UNL     1      -1.258  -3.996  10.890  0.00  0.00    +0.015 A 
ENDBRANCH  22  23
ENDBRANCH  14  22
TORSDOF 3
