REMARK  Name = ZINC58090445
REMARK  12 active torsions:
REMARK  status: ('A' for Active; 'I' for Inactive)
REMARK    1  A    between atoms: C_1  and  C_2
REMARK    2  A    between atoms: C_2  and  C_3
REMARK    3  A    between atoms: C_3  and  C_5
REMARK    4  A    between atoms: C_3  and  S_12
REMARK    5  A    between atoms: N_7  and  C_8
REMARK    6  A    between atoms: N_7  and  C_10
REMARK    7  A    between atoms: C_8  and  C_9
REMARK    8  A    between atoms: C_10  and  C_11
REMARK    9  A    between atoms: S_12  and  C_13
REMARK   10  A    between atoms: C_17  and  C_21
REMARK   11  A    between atoms: N_24  and  C_25
REMARK   12  A    between atoms: C_29  and  C_31
REMARK                            x       y       z     vdW  Elec       q    Type
REMARK                         _______ _______ _______ _____ _____    ______ ____
ROOT
ATOM      1  C   UNL     1      -2.066   1.826  -1.281  0.00  0.00    +0.178 A 
ATOM      2  N   UNL     1      -1.469   2.337  -0.228  0.00  0.00    -0.201 NA
ATOM      3  C   UNL     1      -1.306   3.668  -0.100  0.00  0.00    +0.187 A 
ATOM      4  C   UNL     1      -1.817   4.532  -1.179  0.00  0.00    +0.079 A 
ATOM      5  C   UNL     1      -1.530   5.829  -0.814  0.00  0.00    +0.046 A 
ATOM      6  N   UNL     1      -0.904   5.792   0.369  0.00  0.00    -0.279 N 
ATOM      7  H   UNL     1      -0.589   6.569   0.857  0.00  0.00    +0.189 HD
ATOM      8  N   UNL     1      -0.771   4.466   0.798  0.00  0.00    -0.153 NA
ATOM      9  C   UNL     1      -1.862   7.068  -1.605  0.00  0.00    +0.066 C 
ATOM     10  C   UNL     1      -2.467   3.881  -2.313  0.00  0.00    +0.115 A 
ATOM     11  N   UNL     1      -2.973   4.613  -3.362  0.00  0.00    -0.344 N 
ATOM     12  N   UNL     1      -2.549   2.551  -2.297  0.00  0.00    -0.276 N 
ATOM     13  H   UNL     1      -2.901   5.581  -3.357  0.00  0.00    +0.144 HD
ATOM     14  H   UNL     1      -3.401   4.163  -4.106  0.00  0.00    +0.144 HD
ENDROOT
BRANCH  12  15
ATOM     15  C   UNL     1      -3.152   1.904  -3.355  0.00  0.00    +0.050 A 
ATOM     16  C   UNL     1      -2.576   1.950  -4.623  0.00  0.00    +0.028 A 
ATOM     17  C   UNL     1      -3.183   1.300  -5.678  0.00  0.00    +0.022 A 
ATOM     18  C   UNL     1      -4.363   0.604  -5.478  0.00  0.00    +0.044 A 
ATOM     19  C   UNL     1      -4.939   0.554  -4.221  0.00  0.00    -0.030 A 
ATOM     20  C   UNL     1      -4.336   1.196  -3.158  0.00  0.00    +0.031 A 
ATOM     21  C   UNL     1      -6.223  -0.206  -4.010  0.00  0.00    +0.045 C 
ATOM     22 CL   UNL     1      -5.122  -0.211  -6.810  0.00  0.00    -0.083 Cl
ENDBRANCH  12  15
BRANCH   1  23
ATOM     23  S   UNL     1      -2.236   0.074  -1.365  0.00  0.00    -0.075 S 
BRANCH  23  24
ATOM     24  C   UNL     1      -1.382  -0.520   0.122  0.00  0.00    +0.140 C 
BRANCH  24  25
ATOM     25  C   UNL     1      -2.158  -0.107   1.345  0.00  0.00    +0.229 C 
ATOM     26  O   UNL     1      -3.350   0.105   1.265  0.00  0.00    -0.274 OA
ATOM     27  N   UNL     1      -1.528   0.028   2.529  0.00  0.00    -0.301 N 
BRANCH  27  28
ATOM     28  C   UNL     1      -0.088  -0.227   2.626  0.00  0.00    +0.104 C 
ATOM     29  C   UNL     1       0.678   1.070   2.360  0.00  0.00    +0.024 C 
ENDBRANCH  27  28
BRANCH  27  30
ATOM     30  C   UNL     1      -2.282   0.430   3.719  0.00  0.00    +0.104 C 
ATOM     31  C   UNL     1      -2.811  -0.815   4.433  0.00  0.00    +0.024 C 
ENDBRANCH  27  30
ENDBRANCH  24  25
BRANCH  24  33
ATOM     32  C   UNL     1      -0.374  -2.461  -1.087  0.00  0.00    +0.005 C 
ATOM     33  C   UNL     1      -1.279  -2.046   0.075  0.00  0.00    +0.020 C 
ENDBRANCH  24  33
ENDBRANCH  23  24
ENDBRANCH   1  23
TORSDOF 7
