REMARK  Name = ZINC08443452
REMARK  8 active torsions:
REMARK  status: ('A' for Active; 'I' for Inactive)
REMARK    1  A    between atoms: C_1  and  O_2
REMARK    2  A    between atoms: O_2  and  C_3
REMARK    3  A    between atoms: C_5  and  C_18
REMARK    4  A    between atoms: C_8  and  O_9
REMARK    5  A    between atoms: O_9  and  C_10
REMARK    6  A    between atoms: C_10  and  C_11
REMARK    7  A    between atoms: C_18  and  N_58
REMARK    8  A    between atoms: C_19  and  N_58
REMARK                            x       y       z     vdW  Elec       q    Type
REMARK                         _______ _______ _______ _____ _____    ______ ____
ROOT
ATOM      1  C   UNL     1      -3.248   9.172  -0.423  0.00  0.00    +0.163 A 
ATOM      2  C   UNL     1      -3.248   7.787  -0.468  0.00  0.00    +0.051 A 
ATOM      3  C   UNL     1      -2.214   7.115  -1.091  0.00  0.00    -0.060 A 
ATOM      4  C   UNL     1      -1.182   7.821  -1.681  0.00  0.00    +0.021 A 
ATOM      5  C   UNL     1      -1.178   9.204  -1.644  0.00  0.00    +0.063 A 
ATOM      6  C   UNL     1      -2.210   9.884  -1.016  0.00  0.00    +0.176 A 
ATOM      7 BR   UNL     1       0.236  10.167  -2.451  0.00  0.00    -0.046 Br
ENDROOT
BRANCH   1   9
ATOM      8  C   UNL     1      -5.294   9.038   0.781  0.00  0.00    +0.277 C 
ATOM      9  O   UNL     1      -4.262   9.834   0.194  0.00  0.00    -0.491 OA
ENDBRANCH   1   9
BRANCH   6  10
ATOM     10  O   UNL     1      -2.208  11.243  -0.980  0.00  0.00    -0.483 OA
BRANCH  10  11
ATOM     11  C   UNL     1      -2.854  11.922  -2.058  0.00  0.00    +0.264 C 
BRANCH  11  12
ATOM     12  C   UNL     1      -2.752  13.411  -1.848  0.00  0.00    -0.010 A 
ATOM     13  C   UNL     1      -3.738  14.080  -1.148  0.00  0.00    +0.007 A 
ATOM     14  C   UNL     1      -3.641  15.445  -0.951  0.00  0.00    +0.000 A 
ATOM     15  C   UNL     1      -2.563  16.142  -1.463  0.00  0.00    +0.000 A 
ATOM     16  C   UNL     1      -1.580  15.474  -2.168  0.00  0.00    +0.000 A 
ATOM     17  C   UNL     1      -1.673  14.109  -2.360  0.00  0.00    +0.007 A 
ENDBRANCH  11  12
ENDBRANCH  10  11
ENDBRANCH   6  10
BRANCH   3  18
ATOM     18  C   UNL     1      -2.214   5.608  -1.135  0.00  0.00    -0.046 C 
BRANCH  18  19
ATOM     19  N   UNL     1      -1.505   5.091   0.051  0.00  0.00    +0.385 N 
ATOM     20  H   UNL     1      -1.983   5.415   0.900  0.00  0.00    -0.085 HD
ATOM     21  H   UNL     1      -0.539   5.440   0.048  0.00  0.00    -0.085 HD
BRANCH  19  22
ATOM     22  C   UNL     1      -1.490   3.616   0.036  0.00  0.00    -0.067 C 
ATOM     23  C   UNL     1      -0.773   3.123  -1.223  0.00  0.00    -0.009 C 
ATOM     24  C   UNL     1      -0.753   1.593  -1.232  0.00  0.00    -0.012 C 
ATOM     25  C   UNL     1      -0.013   1.086   0.008  0.00  0.00    +0.007 C 
ATOM     26  C   UNL     1      -0.729   1.579   1.267  0.00  0.00    -0.012 C 
ATOM     27  C   UNL     1      -0.750   3.109   1.275  0.00  0.00    -0.009 C 
ATOM     28  C   UNL     1      -2.164   1.050   1.278  0.00  0.00    +0.007 C 
ATOM     29  C   UNL     1      -2.904   1.556   0.038  0.00  0.00    -0.012 C 
ATOM     30  C   UNL     1      -2.188   1.063  -1.221  0.00  0.00    +0.007 C 
ATOM     31  C   UNL     1      -2.925   3.086   0.047  0.00  0.00    -0.009 C 
ENDBRANCH  19  22
ENDBRANCH  18  19
ENDBRANCH   3  18
TORSDOF 7
