REMARK  Name = ZINC23215553
REMARK  4 active torsions:
REMARK  status: ('A' for Active; 'I' for Inactive)
REMARK    1  A    between atoms: C_1  and  C_2
REMARK    2  A    between atoms: C_5  and  C_11
REMARK    3  A    between atoms: C_7  and  N_8
REMARK    4  A    between atoms: N_15  and  C_19
REMARK                            x       y       z     vdW  Elec       q    Type
REMARK                         _______ _______ _______ _____ _____    ______ ____
ROOT
ATOM      1  C   UNL     1       2.367   0.862   0.344  0.00  0.00    +0.028 C 
ATOM      2  C   UNL     1       3.653   1.289   0.284  0.00  0.00    +0.077 C 
ATOM      3  C   UNL     1       4.907   0.539   0.507  0.00  0.00    +0.263 C 
ATOM      4  O   UNL     1       4.902  -0.644   0.793  0.00  0.00    -0.269 OA
ATOM      5  N   UNL     1       6.034   1.218   0.376  0.00  0.00    -0.224 N 
ATOM      6  C   UNL     1       6.034   2.531   0.066  0.00  0.00    +0.125 C 
ATOM      7  S   UNL     1       7.376   3.574  -0.139  0.00  0.00    -0.027 S 
ATOM      8  S   UNL     1       4.297   2.917  -0.080  0.00  0.00    -0.061 S 
ENDROOT
BRANCH   1  13
ATOM      9  C   UNL     1      -1.900   4.349  -1.288  0.00  0.00    +0.046 C 
ATOM     10  C   UNL     1      -0.781   3.434  -0.860  0.00  0.00    -0.020 A 
ATOM     11  C   UNL     1      -1.038   2.397   0.021  0.00  0.00    +0.006 A 
ATOM     12  C   UNL     1      -0.020   1.557   0.417  0.00  0.00    +0.008 A 
ATOM     13  C   UNL     1       1.276   1.754  -0.073  0.00  0.00    -0.022 A 
ATOM     14  C   UNL     1       1.527   2.804  -0.963  0.00  0.00    +0.041 A 
ATOM     15  C   UNL     1       0.499   3.639  -1.345  0.00  0.00    +0.130 A 
BRANCH  15  16
ATOM     16  N   UNL     1       0.763   4.754  -2.282  0.00  0.00    +0.057 N 
ATOM     17  O   UNL     1       1.851   4.853  -2.820  0.00  0.00    -0.126 OA
ATOM     18  O   UNL     1      -0.108   5.574  -2.515  0.00  0.00    -0.126 OA
ENDBRANCH  15  16
ENDBRANCH   1  13
BRANCH   5  19
ATOM     19  C   UNL     1       7.256   0.560   0.569  0.00  0.00    +0.043 A 
ATOM     20  C   UNL     1       7.686  -0.392  -0.345  0.00  0.00    +0.024 A 
ATOM     21  C   UNL     1       8.893  -1.035  -0.154  0.00  0.00    +0.002 A 
ATOM     22  C   UNL     1       9.669  -0.739   0.952  0.00  0.00    +0.000 A 
ATOM     23  C   UNL     1       9.241   0.205   1.867  0.00  0.00    +0.002 A 
ATOM     24  C   UNL     1       8.037   0.855   1.679  0.00  0.00    +0.024 A 
ENDBRANCH   5  19
TORSDOF 3
