REMARK  Name = ZINC58210002
REMARK  8 active torsions:
REMARK  status: ('A' for Active; 'I' for Inactive)
REMARK    1  A    between atoms: C_1  and  S_2
REMARK    2  A    between atoms: S_2  and  N_5
REMARK    3  A    between atoms: N_5  and  C_6
REMARK    4  A    between atoms: C_6  and  C_7
REMARK    5  A    between atoms: C_7  and  C_8
REMARK    6  A    between atoms: N_17  and  C_18
REMARK    7  A    between atoms: C_18  and  C_19
REMARK    8  A    between atoms: C_20  and  C_21
REMARK                            x       y       z     vdW  Elec       q    Type
REMARK                         _______ _______ _______ _____ _____    ______ ____
ROOT
ATOM      1  C   UNL     1       4.282  -0.584  -2.967  0.00  0.00    +0.079 C 
ATOM      2  C   UNL     1       4.710  -1.274  -4.266  0.00  0.00    +0.022 C 
ATOM      3  C   UNL     1       6.226  -1.144  -4.433  0.00  0.00    +0.003 C 
ATOM      4  C   UNL     1       6.930  -1.836  -3.264  0.00  0.00    +0.019 C 
ATOM      5  C   UNL     1       6.528  -1.153  -1.953  0.00  0.00    +0.109 C 
ATOM      6  N   UNL     1       5.061  -1.142  -1.853  0.00  0.00    -0.283 N 
ATOM      7  C   UNL     1       4.444  -1.637  -0.763  0.00  0.00    +0.303 C 
ATOM      8  O   UNL     1       3.231  -1.720  -0.736  0.00  0.00    -0.253 OA
ATOM      9  N   UNL     1       5.170  -2.041   0.298  0.00  0.00    -0.288 N 
ATOM     10  H   UNL     1       6.139  -2.043   0.250  0.00  0.00    +0.151 HD
ENDROOT
BRANCH   1  11
ATOM     11  C   UNL     1       2.792  -0.829  -2.723  0.00  0.00    +0.039 C 
BRANCH  11  12
ATOM     12  C   UNL     1       1.982  -0.247  -3.884  0.00  0.00    +0.107 C 
BRANCH  12  13
ATOM     13  N   UNL     1       0.567  -0.584  -3.709  0.00  0.00    -0.195 NA
ATOM     14  H   UNL     1       0.306  -1.272  -3.078  0.00  0.00    +0.148 HD
BRANCH  13  16
ATOM     15  C   UNL     1      -0.264  -0.260  -6.313  0.00  0.00    +0.214 C 
ATOM     16  S   UNL     1      -0.587   0.211  -4.592  0.00  0.00    +0.027 S 
ATOM     17  O   UNL     1      -0.305   1.590  -4.400  0.00  0.00    -0.158 OA
ATOM     18  O   UNL     1      -1.821  -0.343  -4.156  0.00  0.00    -0.158 OA
ENDBRANCH  13  16
ENDBRANCH  12  13
ENDBRANCH  11  12
ENDBRANCH   1  11
BRANCH   9  19
ATOM     19  C   UNL     1       4.496  -2.477   1.524  0.00  0.00    +0.195 C 
BRANCH  19  20
ATOM     20  C   UNL     1       5.503  -2.865   2.526  0.00  0.00    -0.078 C 
ATOM     21  C   UNL     1       6.306  -3.174   3.325  0.00  0.00    -0.065 C 
BRANCH  21  22
ATOM     22  C   UNL     1       7.285  -3.551   4.299  0.00  0.00    +0.025 A 
ATOM     23  C   UNL     1       8.644  -3.462   3.997  0.00  0.00    +0.017 A 
ATOM     24  C   UNL     1       9.582  -3.827   4.941  0.00  0.00    +0.001 A 
ATOM     25  C   UNL     1       9.178  -4.280   6.184  0.00  0.00    +0.000 A 
ATOM     26  C   UNL     1       7.832  -4.371   6.489  0.00  0.00    +0.001 A 
ATOM     27  C   UNL     1       6.883  -4.004   5.556  0.00  0.00    +0.017 A 
ENDBRANCH  21  22
ENDBRANCH  19  20
ENDBRANCH   9  19
TORSDOF 7
