REMARK  Name = ZINC35671336
REMARK  13 active torsions:
REMARK  status: ('A' for Active; 'I' for Inactive)
REMARK    1  A    between atoms: C_1  and  C_2
REMARK    2  A    between atoms: C_2  and  C_3
REMARK    3  A    between atoms: C_2  and  C_4
REMARK    4  A    between atoms: C_2  and  C_5
REMARK    5  A    between atoms: C_8  and  C_11
REMARK    6  A    between atoms: C_11  and  C_13
REMARK    7  A    between atoms: C_11  and  N_31
REMARK    8  A    between atoms: C_13  and  N_14
REMARK    9  A    between atoms: N_14  and  C_15
REMARK   10  A    between atoms: C_16  and  C_29
REMARK   11  A    between atoms: C_18  and  C_20
REMARK   12  A    between atoms: C_20  and  O_21
REMARK   13  A    between atoms: O_21  and  C_22
REMARK                            x       y       z     vdW  Elec       q    Type
REMARK                         _______ _______ _______ _____ _____    ______ ____
ROOT
ATOM      1  C   UNL     1       3.526  -3.158  -4.514  0.00  0.00    +0.094 C 
ENDROOT
BRANCH   1   2
ATOM      2  N   UNL     1       2.642  -4.201  -3.987  0.00  0.00    -0.314 N 
ATOM      3  H   UNL     1       1.689  -4.036  -3.911  0.00  0.00    +0.149 HD
BRANCH   2   4
ATOM      4  C   UNL     1       3.165  -5.417  -3.600  0.00  0.00    +0.225 A 
ATOM      5  C   UNL     1       2.463  -6.496  -3.091  0.00  0.00    +0.201 A 
ATOM      6  N   UNL     1       3.375  -7.479  -2.847  0.00  0.00    -0.198 NA
ATOM      7  C   UNL     1       4.552  -7.044  -3.178  0.00  0.00    +0.237 A 
ATOM      8  O   UNL     1       4.457  -5.789  -3.647  0.00  0.00    -0.421 OA
BRANCH   5   9
ATOM      9  C   UNL     1       1.050  -6.566  -2.865  0.00  0.00    +0.124 C 
ATOM     10  N   UNL     1      -0.070  -6.622  -2.685  0.00  0.00    -0.189 NA
ENDBRANCH   5   9
BRANCH   7  11
ATOM     11  C   UNL     1       5.832  -7.831  -3.060  0.00  0.00    +0.324 C 
BRANCH  11  12
ATOM     12  O   UNL     1       6.061  -8.553  -4.272  0.00  0.00    -0.483 OA
BRANCH  12  13
ATOM     13  C   UNL     1       7.182  -9.319  -4.332  0.00  0.00    +0.121 A 
ATOM     14  C   UNL     1       8.041  -9.379  -3.244  0.00  0.00    +0.047 A 
ATOM     15  C   UNL     1       9.180 -10.159  -3.307  0.00  0.00    +0.023 A 
ATOM     16  C   UNL     1       9.464 -10.879  -4.453  0.00  0.00    +0.041 A 
ATOM     17  C   UNL     1       8.609 -10.820  -5.539  0.00  0.00    +0.023 A 
ATOM     18  C   UNL     1       7.466 -10.047  -5.478  0.00  0.00    +0.047 A 
ATOM     19 CL   UNL     1      10.896 -11.857  -4.530  0.00  0.00    -0.084 Cl
ENDBRANCH  12  13
ENDBRANCH  11  12
ENDBRANCH   7  11
ENDBRANCH   2   4
ENDBRANCH   1   2
BRANCH   1  20
ATOM     20  C   UNL     1       2.723  -1.875  -4.739  0.00  0.00    -0.020 C 
BRANCH  20  24
ATOM     21  C   UNL     1       1.361  -0.374  -0.979  0.00  0.00    -0.042 A 
ATOM     22  C   UNL     1       0.501  -1.093  -1.788  0.00  0.00    +0.004 A 
ATOM     23  C   UNL     1       0.942  -1.578  -3.005  0.00  0.00    +0.002 A 
ATOM     24  C   UNL     1       2.243  -1.345  -3.413  0.00  0.00    -0.059 A 
ATOM     25  C   UNL     1       3.102  -0.625  -2.603  0.00  0.00    +0.002 A 
ATOM     26  C   UNL     1       2.659  -0.136  -1.388  0.00  0.00    +0.004 A 
BRANCH  21  28
ATOM     27  C   UNL     1       0.998   1.681   0.361  0.00  0.00    +0.015 C 
ATOM     28  C   UNL     1       0.880   0.155   0.348  0.00  0.00    -0.013 C 
ATOM     29  C   UNL     1       1.736  -0.433   1.472  0.00  0.00    +0.015 C 
ATOM     30  C   UNL     1      -0.582  -0.245   0.557  0.00  0.00    +0.015 C 
ENDBRANCH  21  28
ENDBRANCH  20  24
BRANCH  20  31
ATOM     31  N   UNL     1       3.577  -0.871  -5.387  0.00  0.00    +0.385 N 
ATOM     32  C   UNL     1       3.997  -1.345  -6.730  0.00  0.00    -0.078 C 
ATOM     33  C   UNL     1       4.367  -0.035  -7.470  0.00  0.00    -0.020 C 
ATOM     34  C   UNL     1       3.307   0.965  -6.954  0.00  0.00    -0.020 C 
ATOM     35  C   UNL     1       2.813   0.374  -5.620  0.00  0.00    -0.078 C 
ATOM     36  H   UNL     1       4.386  -0.680  -4.816  0.00  0.00    -0.081 HD
ENDBRANCH  20  31
ENDBRANCH   1  20
TORSDOF 10
