REMARK  Name = ZINC20701427
REMARK  5 active torsions:
REMARK  status: ('A' for Active; 'I' for Inactive)
REMARK    1  A    between atoms: C_1  and  N_2
REMARK    2  A    between atoms: N_5  and  S_8
REMARK    3  A    between atoms: S_8  and  C_11
REMARK    4  A    between atoms: C_24  and  C_27
REMARK    5  A    between atoms: C_32  and  O_33
REMARK                            x       y       z     vdW  Elec       q    Type
REMARK                         _______ _______ _______ _____ _____    ______ ____
ROOT
ATOM      1  C   UNL     1       3.574  -0.751  -0.367  0.00  0.00    +0.106 A 
ATOM      2  C   UNL     1       2.853   0.429  -0.389  0.00  0.00    +0.030 A 
ATOM      3  C   UNL     1       1.476   0.392  -0.300  0.00  0.00    +0.025 A 
ATOM      4  C   UNL     1       0.820  -0.828  -0.189  0.00  0.00    +0.031 A 
ATOM      5  C   UNL     1       1.538  -2.013  -0.169  0.00  0.00    -0.018 A 
ATOM      6  C   UNL     1       2.922  -1.962  -0.258  0.00  0.00    +0.034 A 
ATOM      7  C   UNL     1       0.875  -3.349  -0.057  0.00  0.00    +0.049 C 
ATOM      8  C   UNL     1       1.040  -3.933   1.325  0.00  0.00    -0.023 C 
ATOM      9  C   UNL     1      -0.042  -4.586   1.674  0.00  0.00    -0.030 C 
ATOM     10  C   UNL     1      -1.076  -4.531   0.566  0.00  0.00    +0.033 C 
ATOM     11  C   UNL     1      -0.654  -3.279  -0.241  0.00  0.00    +0.029 C 
ATOM     12  C   UNL     1      -1.212  -2.051   0.484  0.00  0.00    +0.109 C 
ATOM     13  N   UNL     1      -0.576  -0.849  -0.095  0.00  0.00    -0.336 N 
ATOM     14  H   UNL     1      -1.198  -0.008  -0.436  0.00  0.00    +0.147 HD
ENDROOT
BRANCH  12  15
ATOM     15  C   UNL     1      -0.916  -2.157   1.958  0.00  0.00    +0.017 A 
ATOM     16  C   UNL     1       0.300  -1.724   2.452  0.00  0.00    +0.029 A 
ATOM     17  C   UNL     1       0.572  -1.822   3.805  0.00  0.00    +0.043 A 
ATOM     18  C   UNL     1      -0.372  -2.352   4.666  0.00  0.00    +0.043 A 
ATOM     19  C   UNL     1      -1.589  -2.786   4.176  0.00  0.00    +0.084 A 
ATOM     20  C   UNL     1      -1.866  -2.684   2.819  0.00  0.00    +0.140 A 
ATOM     21 CL   UNL     1      -2.774  -3.452   5.257  0.00  0.00    -0.080 Cl
ATOM     22 CL   UNL     1       2.100  -1.277   4.422  0.00  0.00    -0.083 Cl
BRANCH  20  23
ATOM     23  O   UNL     1      -3.065  -3.105   2.336  0.00  0.00    -0.505 OA
ATOM     24  H   UNL     1      -3.818  -3.522   3.020  0.00  0.00    +0.292 HD
ENDBRANCH  20  23
ENDBRANCH  12  15
BRANCH   1  25
ATOM     25  S   UNL     1       5.332  -0.707  -0.479  0.00  0.00    +0.061 S 
ATOM     26  O   UNL     1       5.736   0.577  -0.024  0.00  0.00    -0.153 OA
ATOM     27  O   UNL     1       5.806  -1.909   0.113  0.00  0.00    -0.153 OA
BRANCH  25  32
ATOM     28  C   UNL     1       4.700  -1.037  -6.149  0.00  0.00    -0.096 C 
ATOM     29  N   UNL     1       5.372  -0.947  -4.846  0.00  0.00    +0.380 N 
ATOM     30  C   UNL     1       5.010   0.296  -4.152  0.00  0.00    -0.062 C 
ATOM     31  C   UNL     1       5.865   0.440  -2.889  0.00  0.00    +0.091 C 
ATOM     32  N   UNL     1       5.723  -0.785  -2.086  0.00  0.00    -0.180 NA
ATOM     33  C   UNL     1       5.942  -2.080  -2.748  0.00  0.00    +0.091 C 
ATOM     34  C   UNL     1       5.078  -2.124  -4.019  0.00  0.00    -0.062 C 
ATOM     35  H   UNL     1       6.457  -0.926  -5.025  0.00  0.00    -0.082 HD
ENDBRANCH  25  32
ENDBRANCH   1  25
TORSDOF 4
