REMARK  Name = ZINC08717074
REMARK  8 active torsions:
REMARK  status: ('A' for Active; 'I' for Inactive)
REMARK    1  A    between atoms: C_1  and  C_2
REMARK    2  A    between atoms: C_2  and  C_30
REMARK    3  A    between atoms: C_4  and  N_9
REMARK    4  A    between atoms: N_9  and  C_10
REMARK    5  A    between atoms: C_10  and  C_11
REMARK    6  A    between atoms: N_21  and  C_22
REMARK    7  A    between atoms: C_22  and  N_24
REMARK    8  A    between atoms: N_24  and  C_25
REMARK                            x       y       z     vdW  Elec       q    Type
REMARK                         _______ _______ _______ _____ _____    ______ ____
ROOT
ATOM      1  C   UNL     1       0.594  -0.688  -1.365  0.00  0.00    +0.122 C 
ATOM      2  C   UNL     1       1.635  -0.069  -2.265  0.00  0.00    -0.022 A 
ATOM      3  C   UNL     1       1.980  -0.753  -3.422  0.00  0.00    +0.006 A 
ATOM      4  C   UNL     1       2.917  -0.233  -4.290  0.00  0.00    +0.000 A 
ATOM      5  C   UNL     1       3.517   0.980  -4.005  0.00  0.00    +0.000 A 
ATOM      6  C   UNL     1       3.177   1.659  -2.854  0.00  0.00    +0.004 A 
ATOM      7  C   UNL     1       2.237   1.135  -1.975  0.00  0.00    -0.041 A 
ATOM      8  C   UNL     1       1.935   1.919  -0.725  0.00  0.00    +0.054 C 
ATOM      9  C   UNL     1       0.593   1.497  -0.129  0.00  0.00    +0.112 C 
ATOM     10  N   UNL     1       0.561   0.026  -0.084  0.00  0.00    -0.304 N 
ENDROOT
BRANCH  10  11
ATOM     11  C   UNL     1       0.502  -0.638   1.087  0.00  0.00    +0.134 C 
ATOM     12  S   UNL     1       0.268  -2.334   1.098  0.00  0.00    -0.019 S 
BRANCH  11  13
ATOM     13  N   UNL     1       0.627   0.033   2.249  0.00  0.00    -0.324 N 
ATOM     14  H   UNL     1       0.696   1.130   2.246  0.00  0.00    +0.148 HD
BRANCH  13  15
ATOM     15  C   UNL     1       0.671  -0.700   3.517  0.00  0.00    +0.072 C 
ATOM     16  C   UNL     1      -0.760  -0.921   4.049  0.00  0.00    +0.022 C 
ATOM     17  C   UNL     1      -0.622  -0.766   5.584  0.00  0.00    +0.002 C 
ATOM     18  C   UNL     1       0.406   0.383   5.721  0.00  0.00    +0.002 C 
ATOM     19  C   UNL     1       1.412   0.129   4.580  0.00  0.00    +0.022 C 
ENDBRANCH  13  15
ENDBRANCH  11  13
ENDBRANCH  10  11
BRANCH   1  20
ATOM     20  C   UNL     1       0.944  -2.157  -1.120  0.00  0.00    +0.128 C 
BRANCH  20  21
ATOM     21  N   UNL     1      -0.284  -2.915  -0.867  0.00  0.00    -0.345 N 
ATOM     22  H   UNL     1      -1.243  -2.388  -0.756  0.00  0.00    +0.146 HD
BRANCH  21  26
ATOM     23  C   UNL     1      -1.255  -6.294  -2.657  0.00  0.00    +0.011 C 
ATOM     24  C   UNL     1      -1.403  -6.430  -1.140  0.00  0.00    -0.023 C 
ATOM     25  C   UNL     1      -1.506  -5.039  -0.501  0.00  0.00    +0.057 C 
ATOM     26  C   UNL     1      -0.237  -4.274  -0.768  0.00  0.00    +0.008 C 
ATOM     27  C   UNL     1       0.946  -4.909  -0.906  0.00  0.00    +0.064 C 
ATOM     28  C   UNL     1       1.048  -6.301  -0.818  0.00  0.00    +0.158 C 
ATOM     29  O   UNL     1       2.132  -6.835  -0.947  0.00  0.00    -0.293 OA
ATOM     30  C   UNL     1      -0.175  -7.144  -0.567  0.00  0.00    +0.085 C 
ATOM     31  C   UNL     1      -2.662  -7.238  -0.819  0.00  0.00    +0.011 C 
ENDBRANCH  21  26
ENDBRANCH  20  21
ENDBRANCH   1  20
TORSDOF 6
