REMARK  Name = ZINC36416318
REMARK  12 active torsions:
REMARK  status: ('A' for Active; 'I' for Inactive)
REMARK    1  A    between atoms: C_1  and  C_2
REMARK    2  A    between atoms: C_7  and  N_8
REMARK    3  A    between atoms: C_9  and  C_11
REMARK    4  A    between atoms: C_11  and  C_12
REMARK    5  A    between atoms: C_11  and  O_13
REMARK    6  A    between atoms: O_13  and  C_14
REMARK    7  A    between atoms: C_14  and  C_16
REMARK    8  A    between atoms: C_18  and  S_23
REMARK    9  A    between atoms: S_23  and  N_26
REMARK   10  A    between atoms: N_26  and  C_27
REMARK   11  A    between atoms: C_27  and  C_28
REMARK   12  A    between atoms: C_27  and  C_29
REMARK                            x       y       z     vdW  Elec       q    Type
REMARK                         _______ _______ _______ _____ _____    ______ ____
ROOT
ATOM      1  C   UNL     1       5.574   1.779   3.948  0.00  0.00    +0.341 C 
ATOM      2  O   UNL     1       5.962   2.473   3.030  0.00  0.00    -0.245 OA
ENDROOT
BRANCH   1   3
ATOM      3  C   UNL     1       6.094   2.000   5.312  0.00  0.00    +0.075 A 
ATOM      4  C   UNL     1       5.654   1.199   6.369  0.00  0.00    +0.044 A 
ATOM      5  C   UNL     1       6.143   1.411   7.641  0.00  0.00    +0.106 A 
ATOM      6  C   UNL     1       7.069   2.414   7.872  0.00  0.00    +0.029 A 
ATOM      7  C   UNL     1       7.510   3.211   6.831  0.00  0.00    +0.018 A 
ATOM      8  C   UNL     1       7.033   3.006   5.551  0.00  0.00    +0.032 A 
ATOM      9 BR   UNL     1       7.642   4.091   4.128  0.00  0.00    -0.049 Br
BRANCH   5  10
ATOM     10  S   UNL     1       5.589   0.403   8.975  0.00  0.00    +0.059 S 
ATOM     11  O   UNL     1       5.787   1.156  10.163  0.00  0.00    -0.153 OA
ATOM     12  O   UNL     1       4.316  -0.105   8.599  0.00  0.00    -0.153 OA
BRANCH  10  13
ATOM     13  N   UNL     1       6.610  -0.898   9.063  0.00  0.00    -0.187 NA
ATOM     14  H   UNL     1       6.274  -1.791   8.886  0.00  0.00    +0.148 HD
BRANCH  13  15
ATOM     15  C   UNL     1       8.020  -0.700   9.408  0.00  0.00    +0.070 C 
ATOM     16  C   UNL     1       8.512  -1.885  10.242  0.00  0.00    +0.025 C 
ATOM     17  C   UNL     1       8.849  -0.599   8.126  0.00  0.00    +0.025 C 
ENDBRANCH  13  15
ENDBRANCH  10  13
ENDBRANCH   5  10
ENDBRANCH   1   3
BRANCH   1  18
ATOM     18  O   UNL     1       4.668   0.807   3.721  0.00  0.00    -0.449 OA
BRANCH  18  19
ATOM     19  C   UNL     1       4.209   0.649   2.377  0.00  0.00    +0.259 C 
ATOM     20  C   UNL     1       5.113  -0.342   1.642  0.00  0.00    +0.062 C 
BRANCH  19  22
ATOM     21  N   UNL     1       2.116  -0.004   1.231  0.00  0.00    -0.309 N 
ATOM     22  C   UNL     1       2.795   0.128   2.388  0.00  0.00    +0.254 C 
ATOM     23  O   UNL     1       2.268  -0.174   3.438  0.00  0.00    -0.272 OA
ATOM     24  H   UNL     1       2.538   0.237   0.392  0.00  0.00    +0.149 HD
BRANCH  21  31
ATOM     25  C   UNL     1      -0.019   1.526   0.010  0.00  0.00    +0.009 C 
ATOM     26  C   UNL     1       0.002  -0.004   0.002  0.00  0.00    +0.006 C 
ATOM     27  C   UNL     1      -1.433  -0.534   0.013  0.00  0.00    +0.005 C 
ATOM     28  C   UNL     1      -1.413  -2.063   0.004  0.00  0.00    +0.000 C 
ATOM     29  C   UNL     1      -0.673  -2.570   1.244  0.00  0.00    +0.002 C 
ATOM     30  C   UNL     1       0.763  -2.041   1.233  0.00  0.00    +0.022 C 
ATOM     31  C   UNL     1       0.742  -0.511   1.242  0.00  0.00    +0.076 C 
ENDBRANCH  21  31
ENDBRANCH  19  22
ENDBRANCH  18  19
ENDBRANCH   1  18
TORSDOF 8
