REMARK  Name = ZINC39686232
REMARK  11 active torsions:
REMARK  status: ('A' for Active; 'I' for Inactive)
REMARK    1  A    between atoms: C_1  and  C_2
REMARK    2  A    between atoms: C_2  and  C_3
REMARK    3  A    between atoms: C_3  and  C_4
REMARK    4  A    between atoms: C_3  and  C_6
REMARK    5  A    between atoms: C_4  and  C_5
REMARK    6  A    between atoms: C_10  and  C_19
REMARK    7  A    between atoms: N_21  and  C_22
REMARK    8  A    between atoms: C_28  and  C_30
REMARK    9  A    between atoms: C_30  and  C_31
REMARK   10  A    between atoms: C_31  and  C_32
REMARK   11  A    between atoms: C_31  and  C_33
REMARK                            x       y       z     vdW  Elec       q    Type
REMARK                         _______ _______ _______ _____ _____    ______ ____
ROOT
ATOM      1  C   UNL     1       0.564  -2.020  -1.693  0.00  0.00    +0.219 C 
ATOM      2  O   UNL     1       1.484  -2.781  -1.910  0.00  0.00    -0.275 OA
ATOM      3  N   UNL     1      -0.691  -2.497  -1.571  0.00  0.00    -0.300 N 
ATOM      4  C   UNL     1      -1.933  -1.731  -1.315  0.00  0.00    +0.121 C 
ATOM      5  C   UNL     1      -3.000  -2.408  -2.203  0.00  0.00    +0.100 C 
ATOM      6  C   UNL     1      -2.475  -3.836  -2.428  0.00  0.00    -0.004 C 
ATOM      7  C   UNL     1      -1.141  -3.906  -1.671  0.00  0.00    +0.115 C 
ATOM      8  C   UNL     1      -2.245  -4.086  -3.916  0.00  0.00    -0.010 C 
ATOM      9  C   UNL     1      -1.777  -5.530  -4.119  0.00  0.00    -0.082 C 
ATOM     10  N   UNL     1      -2.793  -6.453  -3.599  0.00  0.00    +0.379 N 
ATOM     11  C   UNL     1      -2.942  -6.269  -2.150  0.00  0.00    -0.082 C 
ATOM     12  C   UNL     1      -3.458  -4.856  -1.863  0.00  0.00    -0.010 C 
ATOM     13  H   UNL     1      -3.676  -6.270  -4.052  0.00  0.00    -0.086 HD
ATOM     14  H   UNL     1      -2.511  -7.403  -3.788  0.00  0.00    -0.086 HD
ENDROOT
BRANCH   5  15
ATOM     15  C   UNL     1      -4.329  -2.441  -1.494  0.00  0.00    +0.218 C 
ATOM     16  O   UNL     1      -4.371  -2.419  -0.282  0.00  0.00    -0.275 OA
ATOM     17  N   UNL     1      -5.472  -2.496  -2.206  0.00  0.00    -0.312 N 
ATOM     18  H   UNL     1      -5.439  -2.514  -3.176  0.00  0.00    +0.149 HD
BRANCH  17  19
ATOM     19  C   UNL     1      -6.764  -2.528  -1.517  0.00  0.00    +0.076 C 
ATOM     20  C   UNL     1      -7.103  -3.971  -1.136  0.00  0.00    +0.041 C 
ATOM     21  C   UNL     1      -8.438  -3.996  -0.385  0.00  0.00    +0.109 C 
ATOM     22  N   UNL     1      -9.458  -3.334  -1.210  0.00  0.00    -0.301 N 
ATOM     23  C   UNL     1      -9.193  -1.977  -1.706  0.00  0.00    +0.109 C 
ATOM     24  C   UNL     1      -7.850  -1.974  -2.443  0.00  0.00    +0.041 C 
ATOM     25  C   UNL     1     -10.614  -3.961  -1.507  0.00  0.00    +0.216 C 
ATOM     26  O   UNL     1     -10.820  -5.082  -1.092  0.00  0.00    -0.276 OA
BRANCH  25  27
ATOM     27  C   UNL     1     -11.650  -3.269  -2.355  0.00  0.00    +0.099 C 
BRANCH  27  28
ATOM     28  C   UNL     1     -12.856  -4.191  -2.540  0.00  0.00    -0.008 C 
ATOM     29  C   UNL     1     -13.531  -4.426  -1.187  0.00  0.00    +0.008 C 
ATOM     30  C   UNL     1     -13.853  -3.540  -3.501  0.00  0.00    +0.008 C 
ENDBRANCH  27  28
ENDBRANCH  25  27
ENDBRANCH  17  19
ENDBRANCH   5  15
BRANCH   1  31
ATOM     31  C   UNL     1       0.825  -0.542  -1.558  0.00  0.00    +0.075 C 
BRANCH  31  33
ATOM     32  C   UNL     1       0.515   1.451  -0.084  0.00  0.00    +0.004 C 
ATOM     33  C   UNL     1       0.382  -0.071  -0.171  0.00  0.00    +0.009 C 
ENDBRANCH  31  33
BRANCH  31  34
ATOM     34  C   UNL     1       2.319  -0.269  -1.737  0.00  0.00    +0.009 C 
ATOM     35  C   UNL     1       2.727  -0.588  -3.177  0.00  0.00    +0.004 C 
ENDBRANCH  31  34
ENDBRANCH   1  31
TORSDOF 7
