REMARK  Name = ZINC39634230
REMARK  8 active torsions:
REMARK  status: ('A' for Active; 'I' for Inactive)
REMARK    1  A    between atoms: C_1  and  C_2
REMARK    2  A    between atoms: C_5  and  C_8
REMARK    3  A    between atoms: C_8  and  N_9
REMARK    4  A    between atoms: C_10  and  C_12
REMARK    5  A    between atoms: C_23  and  C_25
REMARK    6  A    between atoms: C_30  and  O_31
REMARK    7  A    between atoms: O_31  and  C_32
REMARK    8  A    between atoms: C_32  and  C_34
REMARK                            x       y       z     vdW  Elec       q    Type
REMARK                         _______ _______ _______ _____ _____    ______ ____
ROOT
ATOM      1  C   UNL     1       2.675  -6.749   0.070  0.00  0.00    +0.100 C 
ATOM      2  C   UNL     1       3.554  -6.093   1.159  0.00  0.00    +0.121 C 
ATOM      3  N   UNL     1       3.682  -7.129   2.211  0.00  0.00    -0.296 N 
ATOM      4  C   UNL     1       3.832  -8.399   1.461  0.00  0.00    +0.115 C 
ATOM      5  C   UNL     1       2.864  -8.262   0.269  0.00  0.00    -0.004 C 
ATOM      6  C   UNL     1       3.474  -8.888  -0.982  0.00  0.00    -0.010 C 
ATOM      7  C   UNL     1       3.597 -10.401  -0.782  0.00  0.00    -0.082 C 
ATOM      8  N   UNL     1       2.270 -10.972  -0.522  0.00  0.00    +0.379 N 
ATOM      9  C   UNL     1       1.730 -10.434   0.733  0.00  0.00    -0.082 C 
ATOM     10  C   UNL     1       1.528  -8.922   0.597  0.00  0.00    -0.010 C 
ATOM     11  C   UNL     1       3.666  -6.955   3.547  0.00  0.00    +0.250 C 
ATOM     12  O   UNL     1       3.878  -7.898   4.285  0.00  0.00    -0.270 OA
ATOM     13  H   UNL     1       1.649 -10.737  -1.282  0.00  0.00    -0.086 HD
ATOM     14  H   UNL     1       2.345 -11.976  -0.451  0.00  0.00    -0.086 HD
ENDROOT
BRANCH  11  15
ATOM     15  C   UNL     1       3.391  -5.621   4.115  0.00  0.00    +0.079 A 
ATOM     16  C   UNL     1       3.845  -4.473   3.462  0.00  0.00    +0.017 A 
ATOM     17  C   UNL     1       3.585  -3.230   3.998  0.00  0.00    +0.001 A 
ATOM     18  C   UNL     1       2.874  -3.114   5.181  0.00  0.00    +0.004 A 
ATOM     19  C   UNL     1       2.419  -4.241   5.836  0.00  0.00    +0.047 A 
ATOM     20  C   UNL     1       2.667  -5.499   5.309  0.00  0.00    +0.144 A 
BRANCH  20  21
ATOM     21  O   UNL     1       2.216  -6.608   5.949  0.00  0.00    -0.425 OA
BRANCH  21  22
ATOM     22  C   UNL     1       1.026  -7.109   5.579  0.00  0.00    +0.309 C 
ATOM     23  O   UNL     1       0.433  -6.629   4.642  0.00  0.00    -0.251 OA
ATOM     24  C   UNL     1       0.430  -8.269   6.334  0.00  0.00    +0.136 C 
ENDBRANCH  21  22
ENDBRANCH  20  21
ENDBRANCH  11  15
BRANCH   1  26
ATOM     25  N   UNL     1       0.404  -6.296  -0.800  0.00  0.00    -0.311 N 
ATOM     26  C   UNL     1       1.230  -6.370   0.263  0.00  0.00    +0.218 C 
ATOM     27  O   UNL     1       0.809  -6.132   1.376  0.00  0.00    -0.275 OA
ATOM     28  H   UNL     1       0.741  -6.487  -1.689  0.00  0.00    +0.149 HD
BRANCH  25  29
ATOM     29  C   UNL     1      -1.001  -5.928  -0.612  0.00  0.00    +0.139 C 
BRANCH  29  34
ATOM     30  C   UNL     1      -3.687  -5.889  -5.728  0.00  0.00    +0.044 C 
ATOM     31  C   UNL     1      -2.986  -5.900  -4.394  0.00  0.00    -0.050 A 
ATOM     32  C   UNL     1      -2.948  -7.059  -3.642  0.00  0.00    +0.003 A 
ATOM     33  C   UNL     1      -2.305  -7.068  -2.418  0.00  0.00    +0.005 A 
ATOM     34  C   UNL     1      -1.701  -5.918  -1.946  0.00  0.00    -0.030 A 
ATOM     35  C   UNL     1      -1.739  -4.759  -2.698  0.00  0.00    +0.005 A 
ATOM     36  C   UNL     1      -2.377  -4.751  -3.924  0.00  0.00    +0.003 A 
ENDBRANCH  29  34
ENDBRANCH  25  29
ENDBRANCH   1  26
TORSDOF 6
