REMARK  Name = ZINC00711109
REMARK  7 active torsions:
REMARK  status: ('A' for Active; 'I' for Inactive)
REMARK    1  A    between atoms: C_4  and  C_7
REMARK    2  A    between atoms: C_8  and  C_13
REMARK    3  A    between atoms: N_14  and  N_15
REMARK    4  A    between atoms: C_16  and  C_18
REMARK    5  A    between atoms: C_18  and  O_19
REMARK    6  A    between atoms: O_19  and  C_20
REMARK    7  A    between atoms: C_25  and  N_26
REMARK                            x       y       z     vdW  Elec       q    Type
REMARK                         _______ _______ _______ _____ _____    ______ ____
ROOT
ATOM      1  N   UNL     1      -2.733   5.381  -0.106  0.00  0.00    -0.204 N 
ATOM      2  C   UNL     1      -2.532   4.066  -0.323  0.00  0.00    +0.270 C 
ATOM      3  O   UNL     1      -3.478   3.333  -0.524  0.00  0.00    -0.270 OA
ATOM      4  H   UNL     1      -1.977   5.967   0.055  0.00  0.00    +0.177 HD
ENDROOT
BRANCH   1   6
ATOM      5  C   UNL     1      -4.227   7.168   0.094  0.00  0.00    +0.142 C 
ATOM      6  N   UNL     1      -4.034   5.902  -0.114  0.00  0.00    -0.188 NA
BRANCH   5   8
ATOM      7  C   UNL     1      -6.842   6.956  -0.036  0.00  0.00    +0.101 A 
ATOM      8  C   UNL     1      -5.596   7.716   0.085  0.00  0.00    +0.040 A 
ATOM      9  C   UNL     1      -5.949   9.034   0.183  0.00  0.00    +0.115 A 
ATOM     10  N   UNL     1      -7.292   9.110   0.135  0.00  0.00    -0.284 N 
ATOM     11  H   UNL     1      -7.824   9.955   0.186  0.00  0.00    +0.188 HD
ATOM     12  N   UNL     1      -7.828   7.825   0.004  0.00  0.00    -0.173 NA
BRANCH   7  16
ATOM     13  C   UNL     1      -7.204   2.738  -0.430  0.00  0.00    +0.000 A 
ATOM     14  C   UNL     1      -6.325   3.271   0.496  0.00  0.00    +0.001 A 
ATOM     15  C   UNL     1      -6.203   4.639   0.628  0.00  0.00    +0.010 A 
ATOM     16  C   UNL     1      -6.968   5.485  -0.174  0.00  0.00    +0.003 A 
ATOM     17  C   UNL     1      -7.855   4.943  -1.102  0.00  0.00    +0.010 A 
ATOM     18  C   UNL     1      -7.965   3.573  -1.229  0.00  0.00    +0.001 A 
ENDBRANCH   7  16
ENDBRANCH   5   8
ENDBRANCH   1   6
BRANCH   2  19
ATOM     19  C   UNL     1      -1.133   3.506  -0.314  0.00  0.00    +0.326 C 
BRANCH  19  20
ATOM     20  O   UNL     1      -1.181   2.100  -0.565  0.00  0.00    -0.480 OA
BRANCH  20  21
ATOM     21  C   UNL     1       0.005   1.437  -0.591  0.00  0.00    +0.151 A 
ATOM     22  C   UNL     1       1.191   2.126  -0.385  0.00  0.00    +0.048 A 
ATOM     23  C   UNL     1       2.395   1.451  -0.418  0.00  0.00    +0.004 A 
ATOM     24  C   UNL     1       2.420   0.089  -0.656  0.00  0.00    +0.002 A 
ATOM     25  C   UNL     1       1.239  -0.600  -0.861  0.00  0.00    +0.036 A 
ATOM     26  C   UNL     1       0.032   0.071  -0.830  0.00  0.00    +0.168 A 
BRANCH  26  27
ATOM     27  N   UNL     1      -1.232  -0.668  -1.051  0.00  0.00    +0.060 N 
ATOM     28  O   UNL     1      -1.208  -1.867  -1.260  0.00  0.00    -0.126 OA
ATOM     29  O   UNL     1      -2.296  -0.076  -1.023  0.00  0.00    -0.126 OA
ENDBRANCH  26  27
ENDBRANCH  20  21
ENDBRANCH  19  20
ENDBRANCH   2  19
TORSDOF 7
