REMARK  Name = ZINC62039036
REMARK  8 active torsions:
REMARK  status: ('A' for Active; 'I' for Inactive)
REMARK    1  A    between atoms: C_1  and  C_2
REMARK    2  A    between atoms: C_6  and  C_9
REMARK    3  A    between atoms: C_16  and  S_18
REMARK    4  A    between atoms: S_18  and  C_19
REMARK    5  A    between atoms: C_19  and  C_20
REMARK    6  A    between atoms: N_22  and  C_23
REMARK    7  A    between atoms: C_25  and  N_30
REMARK    8  A    between atoms: C_28  and  O_29
REMARK                            x       y       z     vdW  Elec       q    Type
REMARK                         _______ _______ _______ _____ _____    ______ ____
ROOT
ATOM      1  C   UNL     1       0.641   1.359   0.025  0.00  0.00    +0.088 C 
ATOM      2  C   UNL     1       0.523  -0.143  -0.017  0.00  0.00    +0.128 A 
ATOM      3  N   UNL     1       0.377  -0.746  -1.180  0.00  0.00    -0.225 NA
ATOM      4  C   UNL     1       0.272  -2.060  -1.243  0.00  0.00    +0.113 A 
ATOM      5  C   UNL     1       0.312  -2.857  -0.080  0.00  0.00    +0.047 A 
ATOM      6  C   UNL     1       0.183  -4.291  -0.313  0.00  0.00    +0.001 A 
ATOM      7  C   UNL     1       0.039  -4.734  -1.584  0.00  0.00    +0.056 A 
ATOM      8  S   UNL     1       0.070  -3.238  -2.553  0.00  0.00    -0.076 S 
ATOM      9  C   UNL     1       0.471  -2.147   1.141  0.00  0.00    +0.110 A 
ATOM     10  N   UNL     1       0.574  -0.827   1.112  0.00  0.00    -0.225 NA
ENDROOT
BRANCH   6  11
ATOM     11  C   UNL     1       0.209  -5.245   0.821  0.00  0.00    -0.017 A 
ATOM     12  C   UNL     1      -0.734  -5.143   1.843  0.00  0.00    +0.010 A 
ATOM     13  C   UNL     1      -0.705  -6.034   2.897  0.00  0.00    +0.020 A 
ATOM     14  C   UNL     1       0.258  -7.027   2.940  0.00  0.00    +0.041 A 
ATOM     15  C   UNL     1       1.196  -7.133   1.928  0.00  0.00    +0.020 A 
ATOM     16  C   UNL     1       1.173  -6.252   0.867  0.00  0.00    +0.010 A 
ATOM     17 CL   UNL     1       0.289  -8.144   4.269  0.00  0.00    -0.084 Cl
ENDBRANCH   6  11
BRANCH   9  18
ATOM     18  S   UNL     1       0.537  -3.013   2.673  0.00  0.00    -0.096 S 
BRANCH  18  19
ATOM     19  C   UNL     1       0.743  -1.702   3.910  0.00  0.00    +0.171 C 
BRANCH  19  20
ATOM     20  C   UNL     1       0.815  -2.315   5.285  0.00  0.00    +0.228 C 
ATOM     21  O   UNL     1       0.735  -3.518   5.417  0.00  0.00    -0.275 OA
ATOM     22  N   UNL     1       0.968  -1.526   6.367  0.00  0.00    -0.282 N 
ATOM     23  H   UNL     1       0.963  -0.561   6.269  0.00  0.00    +0.155 HD
BRANCH  22  24
ATOM     24  C   UNL     1       1.135  -2.100   7.634  0.00  0.00    +0.078 A 
ATOM     25  C   UNL     1       1.809  -3.305   7.769  0.00  0.00    +0.059 A 
ATOM     26  C   UNL     1       1.973  -3.870   9.020  0.00  0.00    +0.128 A 
ATOM     27  C   UNL     1       1.465  -3.236  10.139  0.00  0.00    +0.036 A 
ATOM     28  C   UNL     1       0.792  -2.036  10.013  0.00  0.00    +0.049 A 
ATOM     29  C   UNL     1       0.629  -1.460   8.763  0.00  0.00    +0.138 A 
BRANCH  26  30
ATOM     30  N   UNL     1       2.692  -5.156   9.161  0.00  0.00    +0.056 N 
ATOM     31  O   UNL     1       3.136  -5.711   8.183  0.00  0.00    -0.126 OA
ATOM     32  O   UNL     1       2.836  -5.651  10.255  0.00  0.00    -0.126 OA
ENDBRANCH  26  30
BRANCH  29  33
ATOM     33  O   UNL     1      -0.027  -0.276   8.638  0.00  0.00    -0.505 OA
ATOM     34  H   UNL     1      -0.981  -0.367   8.506  0.00  0.00    +0.292 HD
ENDBRANCH  29  33
ENDBRANCH  22  24
ENDBRANCH  19  20
ENDBRANCH  18  19
ENDBRANCH   9  18
TORSDOF 7
