REMARK  Name = ZINC09764808
REMARK  7 active torsions:
REMARK  status: ('A' for Active; 'I' for Inactive)
REMARK    1  A    between atoms: C_4  and  C_7
REMARK    2  A    between atoms: C_7  and  C_8
REMARK    3  A    between atoms: C_8  and  C_31
REMARK    4  A    between atoms: N_11  and  C_15
REMARK    5  A    between atoms: C_15  and  C_16
REMARK    6  A    between atoms: N_18  and  C_19
REMARK    7  A    between atoms: C_24  and  C_25
REMARK                            x       y       z     vdW  Elec       q    Type
REMARK                         _______ _______ _______ _____ _____    ______ ____
ROOT
ATOM      1  C   UNL     1      -0.019   1.453   0.016  0.00  0.00    +0.142 C 
ATOM      2  C   UNL     1       1.449   1.830   0.008  0.00  0.00    +0.252 C 
ATOM      3  O   UNL     1       1.918   2.948   0.018  0.00  0.00    -0.272 OA
ATOM      4  N   UNL     1       2.125   0.664  -0.014  0.00  0.00    -0.215 N 
ATOM      5  C   UNL     1       1.296  -0.387  -0.021  0.00  0.00    +0.310 C 
ATOM      6  O   UNL     1       1.671  -1.543  -0.040  0.00  0.00    -0.252 OA
ATOM      7  N   UNL     1       0.002  -0.020  -0.004  0.00  0.00    -0.281 N 
ATOM      8  H   UNL     1      -0.768  -0.611  -0.004  0.00  0.00    +0.152 HD
ENDROOT
BRANCH   1   9
ATOM      9  C   UNL     1      -0.711   1.990  -1.210  0.00  0.00    -0.015 A 
ATOM     10  C   UNL     1      -1.381   3.198  -1.152  0.00  0.00    +0.006 A 
ATOM     11  C   UNL     1      -2.013   3.693  -2.278  0.00  0.00    +0.000 A 
ATOM     12  C   UNL     1      -1.982   2.975  -3.459  0.00  0.00    +0.000 A 
ATOM     13  C   UNL     1      -1.317   1.765  -3.516  0.00  0.00    +0.000 A 
ATOM     14  C   UNL     1      -0.681   1.272  -2.391  0.00  0.00    +0.006 A 
ENDBRANCH   1   9
BRANCH   1  15
ATOM     15  C   UNL     1      -0.699   1.964   1.288  0.00  0.00    +0.075 C 
BRANCH  15  19
ATOM     16  C   UNL     1       1.413   0.524   4.710  0.00  0.00    +0.000 A 
ATOM     17  C   UNL     1       1.767   1.731   4.137  0.00  0.00    +0.000 A 
ATOM     18  C   UNL     1       1.084   2.197   3.029  0.00  0.00    +0.004 A 
ATOM     19  C   UNL     1       0.046   1.456   2.495  0.00  0.00    -0.045 A 
ATOM     20  C   UNL     1      -0.312   0.252   3.072  0.00  0.00    +0.004 A 
ATOM     21  C   UNL     1       0.374  -0.216   4.176  0.00  0.00    +0.000 A 
ENDBRANCH  15  19
ENDBRANCH   1  15
BRANCH   4  22
ATOM     22  C   UNL     1       3.586   0.559  -0.030  0.00  0.00    +0.214 C 
BRANCH  22  23
ATOM     23  C   UNL     1       4.073   0.542  -1.456  0.00  0.00    +0.235 C 
ATOM     24  O   UNL     1       3.278   0.611  -2.369  0.00  0.00    -0.274 OA
ATOM     25  N   UNL     1       5.392   0.451  -1.716  0.00  0.00    -0.284 N 
ATOM     26  H   UNL     1       6.033   0.477  -0.988  0.00  0.00    +0.155 HD
BRANCH  25  27
ATOM     27  C   UNL     1       5.837   0.319  -3.034  0.00  0.00    +0.041 A 
ATOM     28  C   UNL     1       5.002  -0.223  -4.000  0.00  0.00    +0.024 A 
ATOM     29  C   UNL     1       5.441  -0.347  -5.304  0.00  0.00    +0.002 A 
ATOM     30  C   UNL     1       6.718   0.057  -5.652  0.00  0.00    +0.001 A 
ATOM     31  C   UNL     1       7.562   0.593  -4.701  0.00  0.00    +0.010 A 
ATOM     32  C   UNL     1       7.129   0.728  -3.384  0.00  0.00    +0.003 A 
BRANCH  32  33
ATOM     33  C   UNL     1       8.031   1.304  -2.358  0.00  0.00    -0.016 A 
ATOM     34  C   UNL     1       7.587   2.337  -1.535  0.00  0.00    +0.008 A 
ATOM     35  C   UNL     1       8.429   2.864  -0.577  0.00  0.00    +0.001 A 
ATOM     36  C   UNL     1       9.717   2.378  -0.442  0.00  0.00    +0.000 A 
ATOM     37  C   UNL     1      10.166   1.357  -1.260  0.00  0.00    +0.001 A 
ATOM     38  C   UNL     1       9.330   0.818  -2.217  0.00  0.00    +0.008 A 
ENDBRANCH  32  33
ENDBRANCH  25  27
ENDBRANCH  22  23
ENDBRANCH   4  22
TORSDOF 7
