REMARK  Name = ZINC63138955
REMARK  10 active torsions:
REMARK  status: ('A' for Active; 'I' for Inactive)
REMARK    1  A    between atoms: C_1  and  C_2
REMARK    2  A    between atoms: C_2  and  C_3
REMARK    3  A    between atoms: C_3  and  N_4
REMARK    4  A    between atoms: C_24  and  C_26
REMARK    5  A    between atoms: C_28  and  O_36
REMARK    6  A    between atoms: C_29  and  O_34
REMARK    7  A    between atoms: C_30  and  O_32
REMARK    8  A    between atoms: O_32  and  C_33
REMARK    9  A    between atoms: O_34  and  C_35
REMARK   10  A    between atoms: O_36  and  C_37
REMARK                            x       y       z     vdW  Elec       q    Type
REMARK                         _______ _______ _______ _____ _____    ______ ____
ROOT
ATOM      1  N   UNL     1       0.762  -1.976   1.234  0.00  0.00    -0.291 N 
ATOM      2  C   UNL     1      -0.311  -2.768   1.862  0.00  0.00    +0.203 C 
ATOM      3  C   UNL     1       0.323  -3.867   2.687  0.00  0.00    +0.234 C 
ATOM      4  O   UNL     1      -0.075  -4.134   3.802  0.00  0.00    -0.274 OA
ATOM      5  N   UNL     1       1.369  -4.548   2.115  0.00  0.00    -0.279 N 
ATOM      6  C   UNL     1       1.681  -4.177   0.751  0.00  0.00    +0.167 C 
ATOM      7  C   UNL     1       1.773  -2.676   0.639  0.00  0.00    +0.237 C 
ATOM      8  O   UNL     1       2.687  -2.126   0.061  0.00  0.00    -0.274 OA
ATOM      9  C   UNL     1       2.826  -4.875   0.064  0.00  0.00    +0.065 C 
ATOM     10  C   UNL     1       3.590  -5.705   1.058  0.00  0.00    -0.034 C 
ATOM     11  C   UNL     1       4.887  -5.910   1.235  0.00  0.00    -0.001 A 
ATOM     12  C   UNL     1       6.065  -5.434   0.490  0.00  0.00    +0.010 A 
ATOM     13  C   UNL     1       7.275  -5.839   0.959  0.00  0.00    +0.001 A 
ATOM     14  C   UNL     1       7.430  -6.660   2.080  0.00  0.00    +0.002 A 
ATOM     15  C   UNL     1       6.403  -7.146   2.822  0.00  0.00    +0.026 A 
ATOM     16  C   UNL     1       5.081  -6.792   2.425  0.00  0.00    +0.043 A 
ATOM     17  N   UNL     1       3.934  -7.120   2.939  0.00  0.00    -0.375 N 
ATOM     18  C   UNL     1       2.866  -6.515   2.132  0.00  0.00    +0.131 C 
ATOM     19  C   UNL     1       2.064  -5.516   2.952  0.00  0.00    +0.134 C 
ATOM     20  H   UNL     1       3.804  -7.673   3.726  0.00  0.00    +0.160 HD
ENDROOT
BRANCH  19  21
ATOM     21  C   UNL     1       3.032  -4.785   3.846  0.00  0.00    -0.018 A 
ATOM     22  C   UNL     1       3.758  -3.719   3.351  0.00  0.00    +0.055 A 
ATOM     23  C   UNL     1       4.650  -3.044   4.171  0.00  0.00    +0.165 A 
ATOM     24  C   UNL     1       4.813  -3.441   5.493  0.00  0.00    +0.204 A 
ATOM     25  C   UNL     1       4.080  -4.514   5.987  0.00  0.00    +0.165 A 
ATOM     26  C   UNL     1       3.187  -5.180   5.162  0.00  0.00    +0.055 A 
BRANCH  25  27
ATOM     27  O   UNL     1       4.236  -4.907   7.280  0.00  0.00    -0.491 OA
ATOM     28  C   UNL     1       3.451  -6.016   7.720  0.00  0.00    +0.277 C 
ENDBRANCH  25  27
BRANCH  24  29
ATOM     29  O   UNL     1       5.687  -2.782   6.301  0.00  0.00    -0.488 OA
ATOM     30  C   UNL     1       5.177  -1.671   7.040  0.00  0.00    +0.277 C 
ENDBRANCH  24  29
BRANCH  23  31
ATOM     31  O   UNL     1       5.365  -1.995   3.682  0.00  0.00    -0.491 OA
ATOM     32  C   UNL     1       5.147  -1.643   2.315  0.00  0.00    +0.277 C 
ENDBRANCH  23  31
ENDBRANCH  19  21
BRANCH   1  33
ATOM     33  C   UNL     1       0.742  -0.511   1.242  0.00  0.00    +0.108 C 
BRANCH  33  35
ATOM     34  C   UNL     1      -0.019   1.526   0.010  0.00  0.00    +0.005 C 
ATOM     35  C   UNL     1       0.002  -0.004   0.002  0.00  0.00    +0.016 C 
ENDBRANCH  33  35
ENDBRANCH   1  33
TORSDOF 6
