REMARK  Name = ZINC42361944
REMARK  8 active torsions:
REMARK  status: ('A' for Active; 'I' for Inactive)
REMARK    1  A    between atoms: C_1  and  C_2
REMARK    2  A    between atoms: C_2  and  O_3
REMARK    3  A    between atoms: O_3  and  C_4
REMARK    4  A    between atoms: C_5  and  N_19
REMARK    5  A    between atoms: C_8  and  N_10
REMARK    6  A    between atoms: N_10  and  C_11
REMARK    7  A    between atoms: N_10  and  C_12
REMARK    8  A    between atoms: C_12  and  C_13
REMARK                            x       y       z     vdW  Elec       q    Type
REMARK                         _______ _______ _______ _____ _____    ______ ____
ROOT
ATOM      1  C   UNL     1       0.802  -1.823   1.306  0.00  0.00    +0.238 A 
ATOM      2  C   UNL     1       1.460  -2.345   2.417  0.00  0.00    +0.087 A 
ATOM      3  C   UNL     1       1.564  -3.725   2.555  0.00  0.00    +0.031 A 
ATOM      4  C   UNL     1       1.006  -4.532   1.577  0.00  0.00    +0.046 A 
ATOM      5  C   UNL     1       0.365  -3.943   0.495  0.00  0.00    +0.125 A 
ATOM      6  N   UNL     1       0.277  -2.625   0.394  0.00  0.00    -0.196 NA
ENDROOT
BRANCH   2   7
ATOM      7  N   UNL     1       2.010  -1.490   3.384  0.00  0.00    -0.354 N 
ATOM      8  H   UNL     1       1.934  -0.529   3.281  0.00  0.00    +0.142 HD
ATOM      9  H   UNL     1       2.467  -1.861   4.155  0.00  0.00    +0.142 HD
ENDBRANCH   2   7
BRANCH   5  10
ATOM     10  N   UNL     1      -0.198  -4.748  -0.493  0.00  0.00    -0.314 N 
ATOM     11  C   UNL     1      -0.207  -6.204  -0.334  0.00  0.00    +0.131 C 
BRANCH  10  12
ATOM     12  C   UNL     1      -0.780  -4.138  -1.691  0.00  0.00    +0.141 C 
BRANCH  12  13
ATOM     13  C   UNL     1       0.280  -4.009  -2.754  0.00  0.00    -0.022 A 
ATOM     14  C   UNL     1       1.060  -2.869  -2.833  0.00  0.00    +0.028 A 
ATOM     15  C   UNL     1       2.005  -2.785  -3.802  0.00  0.00    +0.055 A 
ATOM     16  S   UNL     1       1.811  -4.348  -4.644  0.00  0.00    -0.090 S 
ATOM     17  C   UNL     1       0.488  -5.010  -3.644  0.00  0.00    +0.051 A 
ATOM     18 BR   UNL     1       3.214  -1.378  -4.168  0.00  0.00    -0.043 Br
ENDBRANCH  12  13
ENDBRANCH  10  12
ENDBRANCH   5  10
BRANCH   1  19
ATOM     19  O   UNL     1       0.693  -0.477   1.160  0.00  0.00    -0.475 OA
BRANCH  19  21
ATOM     20  C   UNL     1      -0.019   1.526   0.010  0.00  0.00    +0.048 C 
ATOM     21  C   UNL     1       0.002  -0.004   0.002  0.00  0.00    +0.227 C 
ENDBRANCH  19  21
ENDBRANCH   1  19
TORSDOF 6
