REMARK  Name = ZINC45330344
REMARK  8 active torsions:
REMARK  status: ('A' for Active; 'I' for Inactive)
REMARK    1  A    between atoms: C_1  and  C_2
REMARK    2  A    between atoms: C_5  and  S_8
REMARK    3  A    between atoms: S_8  and  N_11
REMARK    4  A    between atoms: N_11  and  C_12
REMARK    5  A    between atoms: N_11  and  C_13
REMARK    6  A    between atoms: C_13  and  C_14
REMARK    7  A    between atoms: N_16  and  N_17
REMARK    8  A    between atoms: C_26  and  O_27
REMARK                            x       y       z     vdW  Elec       q    Type
REMARK                         _______ _______ _______ _____ _____    ______ ____
ROOT
ATOM      1  C   UNL     1       3.089  -3.942  -1.678  0.00  0.00    +0.248 C 
ATOM      2  O   UNL     1       3.042  -2.974  -0.950  0.00  0.00    -0.273 OA
ATOM      3  N   UNL     1       3.805  -3.894  -2.819  0.00  0.00    -0.205 N 
ATOM      4  H   UNL     1       3.843  -4.668  -3.401  0.00  0.00    +0.177 HD
ENDROOT
BRANCH   3   5
ATOM      5  N   UNL     1       4.441  -2.817  -3.136  0.00  0.00    -0.174 NA
ATOM      6  C   UNL     1       5.139  -2.770  -4.247  0.00  0.00    +0.152 C 
ATOM      7  C   UNL     1       5.934  -1.637  -4.774  0.00  0.00    +0.035 A 
ATOM      8  C   UNL     1       6.195  -0.351  -4.324  0.00  0.00    +0.032 A 
ATOM      9  C   UNL     1       7.000   0.487  -5.073  0.00  0.00    +0.043 A 
ATOM     10  C   UNL     1       7.546   0.046  -6.269  0.00  0.00    +0.042 A 
ATOM     11  C   UNL     1       7.296  -1.230  -6.730  0.00  0.00    +0.068 A 
ATOM     12  C   UNL     1       6.483  -2.095  -5.988  0.00  0.00    +0.095 A 
ATOM     13  N   UNL     1       6.082  -3.376  -6.206  0.00  0.00    -0.210 NA
ATOM     14  C   UNL     1       5.316  -3.836  -5.253  0.00  0.00    +0.241 C 
ATOM     15 CL   UNL     1       7.989  -1.762  -8.229  0.00  0.00    -0.081 Cl
ATOM     16 CL   UNL     1       7.329   2.098  -4.514  0.00  0.00    -0.083 Cl
BRANCH  14  17
ATOM     17  O   UNL     1       4.774  -5.076  -5.198  0.00  0.00    -0.491 OA
ATOM     18  H   UNL     1       5.003  -5.639  -5.951  0.00  0.00    +0.294 HD
ENDBRANCH  14  17
ENDBRANCH   3   5
BRANCH   1  19
ATOM     19  C   UNL     1       2.346  -5.200  -1.308  0.00  0.00    +0.206 C 
BRANCH  19  20
ATOM     20  N   UNL     1       1.651  -4.999  -0.034  0.00  0.00    -0.171 NA
ATOM     21  C   UNL     1       2.360  -5.214   1.229  0.00  0.00    +0.132 C 
BRANCH  20  22
ATOM     22  S   UNL     1       0.063  -4.530  -0.023  0.00  0.00    +0.061 S 
ATOM     23  O   UNL     1      -0.476  -4.950   1.223  0.00  0.00    -0.153 OA
ATOM     24  O   UNL     1      -0.490  -4.937  -1.267  0.00  0.00    -0.153 OA
BRANCH  22  29
ATOM     25  C   UNL     1      -0.018   1.503   0.010  0.00  0.00    +0.044 C 
ATOM     26  C   UNL     1       0.002  -0.004   0.002  0.00  0.00    -0.050 A 
ATOM     27  C   UNL     1       0.006  -0.689  -1.199  0.00  0.00    +0.005 A 
ATOM     28  C   UNL     1       0.025  -2.071  -1.206  0.00  0.00    +0.029 A 
ATOM     29  C   UNL     1       0.040  -2.768  -0.013  0.00  0.00    +0.105 A 
ATOM     30  C   UNL     1       0.037  -2.084   1.188  0.00  0.00    +0.029 A 
ATOM     31  C   UNL     1       0.023  -0.702   1.195  0.00  0.00    +0.005 A 
ENDBRANCH  22  29
ENDBRANCH  20  22
ENDBRANCH  19  20
ENDBRANCH   1  19
TORSDOF 6
