REMARK  Name = ZINC46528590
REMARK  9 active torsions:
REMARK  status: ('A' for Active; 'I' for Inactive)
REMARK    1  A    between atoms: C_1  and  C_2
REMARK    2  A    between atoms: C_2  and  C_4
REMARK    3  A    between atoms: C_2  and  N_18
REMARK    4  A    between atoms: N_6  and  C_7
REMARK    5  A    between atoms: C_8  and  C_15
REMARK    6  A    between atoms: N_18  and  C_19
REMARK    7  A    between atoms: N_18  and  C_20
REMARK    8  A    between atoms: C_20  and  C_21
REMARK    9  A    between atoms: C_24  and  C_27
REMARK                            x       y       z     vdW  Elec       q    Type
REMARK                         _______ _______ _______ _____ _____    ______ ____
ROOT
ATOM      1  C   UNL     1       1.249  -0.502  -1.090  0.00  0.00    +0.204 C 
ATOM      2  O   UNL     1       2.265  -1.065  -0.742  0.00  0.00    -0.277 OA
ATOM      3  N   UNL     1       1.016  -0.282  -2.399  0.00  0.00    -0.281 N 
ATOM      4  H   UNL     1       0.203   0.168  -2.678  0.00  0.00    +0.155 HD
ENDROOT
BRANCH   3   5
ATOM      5  C   UNL     1       1.937  -0.699  -3.348  0.00  0.00    +0.084 A 
ATOM      6  C   UNL     1       1.869  -0.554  -4.721  0.00  0.00    +0.068 A 
ATOM      7  C   UNL     1       2.982  -1.085  -5.506  0.00  0.00    -0.023 A 
ATOM      8  C   UNL     1       3.949  -1.660  -4.769  0.00  0.00    -0.004 A 
ATOM      9  S   UNL     1       3.395  -1.488  -3.092  0.00  0.00    -0.077 S 
ATOM     10  C   UNL     1       5.066  -2.192  -5.625  0.00  0.00    +0.043 C 
ATOM     11  C   UNL     1       4.470  -2.255  -7.049  0.00  0.00    +0.010 C 
ATOM     12  C   UNL     1       3.373  -1.173  -6.980  0.00  0.00    +0.037 C 
BRANCH   6  13
ATOM     13  C   UNL     1       0.727   0.103  -5.363  0.00  0.00    +0.244 C 
ATOM     14  O   UNL     1       0.747   1.305  -5.557  0.00  0.00    -0.270 OA
ATOM     15  N   UNL     1      -0.345  -0.622  -5.739  0.00  0.00    -0.325 N 
ATOM     16  H   UNL     1      -0.361  -1.579  -5.584  0.00  0.00    +0.145 HD
ATOM     17  H   UNL     1      -1.101  -0.187  -6.163  0.00  0.00    +0.145 HD
ENDBRANCH   6  13
ENDBRANCH   3   5
BRANCH   1  19
ATOM     18  C   UNL     1       0.539   1.401   0.333  0.00  0.00    -0.004 C 
ATOM     19  C   UNL     1       0.247  -0.049  -0.060  0.00  0.00    +0.016 C 
BRANCH  19  20
ATOM     20  N   UNL     1       0.344  -0.907   1.128  0.00  0.00    +0.388 N 
ATOM     21  C   UNL     1       0.029  -2.293   0.758  0.00  0.00    -0.095 C 
ATOM     22  H   UNL     1       1.281  -0.863   1.500  0.00  0.00    -0.081 HD
BRANCH  20  23
ATOM     23  C   UNL     1      -0.609  -0.444   2.146  0.00  0.00    -0.042 C 
BRANCH  23  24
ATOM     24  C   UNL     1      -0.424  -1.246   3.409  0.00  0.00    -0.064 A 
ATOM     25  C   UNL     1      -1.140  -2.415   3.594  0.00  0.00    +0.003 A 
ATOM     26  C   UNL     1      -0.976  -3.153   4.747  0.00  0.00    +0.019 A 
ATOM     27  C   UNL     1      -0.084  -2.719   5.729  0.00  0.00    +0.052 A 
ATOM     28  C   UNL     1       0.637  -1.539   5.536  0.00  0.00    +0.019 A 
ATOM     29  C   UNL     1       0.466  -0.812   4.376  0.00  0.00    +0.003 A 
BRANCH  27  30
ATOM     30  C   UNL     1       0.092  -3.481   6.929  0.00  0.00    +0.099 C 
ATOM     31  N   UNL     1       0.231  -4.085   7.881  0.00  0.00    -0.191 NA
ENDBRANCH  27  30
ENDBRANCH  23  24
ENDBRANCH  20  23
ENDBRANCH  19  20
ENDBRANCH   1  19
TORSDOF 7
