REMARK  Name = ZINC06399148
REMARK  10 active torsions:
REMARK  status: ('A' for Active; 'I' for Inactive)
REMARK    1  A    between atoms: C_1  and  C_2
REMARK    2  A    between atoms: C_2  and  C_3
REMARK    3  A    between atoms: C_6  and  C_9
REMARK    4  A    between atoms: C_9  and  N_10
REMARK    5  A    between atoms: N_10  and  C_11
REMARK    6  A    between atoms: N_10  and  C_17
REMARK    7  A    between atoms: C_11  and  C_12
REMARK    8  A    between atoms: C_17  and  N_19
REMARK    9  A    between atoms: N_19  and  C_20
REMARK   10  A    between atoms: C_22  and  C_27
REMARK                            x       y       z     vdW  Elec       q    Type
REMARK                         _______ _______ _______ _____ _____    ______ ____
ROOT
ATOM      1  N   UNL     1       3.114  -0.517   5.234  0.00  0.00    -0.301 N 
ENDROOT
BRANCH   1   2
ATOM      2  C   UNL     1       4.318   0.056   5.036  0.00  0.00    +0.138 C 
ATOM      3  S   UNL     1       5.147  -0.184   3.558  0.00  0.00    -0.018 S 
BRANCH   2   4
ATOM      4  N   UNL     1       4.869   0.817   6.002  0.00  0.00    -0.296 N 
ATOM      5  H   UNL     1       4.367   1.018   6.807  0.00  0.00    +0.154 HD
BRANCH   4   6
ATOM      6  C   UNL     1       6.167   1.318   5.844  0.00  0.00    +0.051 A 
ATOM      7  C   UNL     1       7.176   0.494   5.364  0.00  0.00    +0.028 A 
ATOM      8  C   UNL     1       8.456   0.991   5.208  0.00  0.00    -0.049 A 
ATOM      9  C   UNL     1       8.732   2.307   5.530  0.00  0.00    +0.005 A 
ATOM     10  C   UNL     1       7.730   3.131   6.009  0.00  0.00    +0.022 A 
ATOM     11  C   UNL     1       6.446   2.641   6.161  0.00  0.00    +0.062 A 
ATOM     12 CL   UNL     1       5.186   3.677   6.755  0.00  0.00    -0.082 Cl
ATOM     13  C   UNL     1       9.552   0.098   4.688  0.00  0.00    +0.044 C 
ENDBRANCH   4   6
ENDBRANCH   2   4
ENDBRANCH   1   2
BRANCH   1  14
ATOM     14  C   UNL     1       2.515  -1.345   4.184  0.00  0.00    +0.142 C 
BRANCH  14  18
ATOM     15  C   UNL     1       0.130   1.106   1.625  0.00  0.00    -0.048 A 
ATOM     16  C   UNL     1       1.468   0.907   1.341  0.00  0.00    +0.004 A 
ATOM     17  C   UNL     1       2.240   0.115   2.169  0.00  0.00    +0.005 A 
ATOM     18  C   UNL     1       1.674  -0.479   3.282  0.00  0.00    -0.030 A 
ATOM     19  C   UNL     1       0.336  -0.280   3.566  0.00  0.00    +0.005 A 
ATOM     20  C   UNL     1      -0.435   0.516   2.740  0.00  0.00    +0.004 A 
BRANCH  15  22
ATOM     21  C   UNL     1      -0.652   3.421   1.203  0.00  0.00    +0.009 C 
ATOM     22  C   UNL     1      -0.712   1.970   0.722  0.00  0.00    +0.032 C 
ENDBRANCH  15  22
ENDBRANCH  14  18
ENDBRANCH   1  14
BRANCH   1  23
ATOM     23  C   UNL     1       2.405  -0.312   6.500  0.00  0.00    +0.181 C 
BRANCH  23  24
ATOM     24  C   UNL     1       2.798  -1.391   7.476  0.00  0.00    +0.122 A 
ATOM     25  C   UNL     1       3.820  -1.328   8.348  0.00  0.00    +0.046 A 
ATOM     26  C   UNL     1       3.825  -2.549   9.062  0.00  0.00    +0.041 A 
ATOM     27  C   UNL     1       2.805  -3.284   8.583  0.00  0.00    +0.195 A 
ATOM     28  O   UNL     1       2.183  -2.575   7.627  0.00  0.00    -0.466 OA
ENDBRANCH  23  24
ENDBRANCH   1  23
TORSDOF 8
