REMARK  Name = ZINC13466938
REMARK  5 active torsions:
REMARK  status: ('A' for Active; 'I' for Inactive)
REMARK    1  A    between atoms: C_1  and  C_2
REMARK    2  A    between atoms: C_2  and  O_4
REMARK    3  A    between atoms: O_4  and  C_5
REMARK    4  A    between atoms: C_11  and  C_29
REMARK    5  A    between atoms: C_22  and  C_28
REMARK                            x       y       z     vdW  Elec       q    Type
REMARK                         _______ _______ _______ _____ _____    ______ ____
ROOT
ATOM      1  C   UNL     1       2.356  -1.678   3.381  0.00  0.00    +0.183 C 
ATOM      2  C   UNL     1       1.357  -2.810   3.684  0.00  0.00    +0.045 C 
ATOM      3  C   UNL     1       0.315  -2.804   2.547  0.00  0.00    +0.008 C 
ATOM      4  C   UNL     1       0.419  -1.382   1.918  0.00  0.00    +0.002 C 
ATOM      5  C   UNL     1       1.917  -1.072   2.039  0.00  0.00    +0.008 C 
ATOM      6  C   UNL     1       2.267   0.390   1.936  0.00  0.00    +0.011 C 
ATOM      7  C   UNL     1       1.356   1.330   2.695  0.00  0.00    +0.005 C 
ATOM      8  C   UNL     1      -0.124   1.017   2.540  0.00  0.00    -0.001 C 
ATOM      9  C   UNL     1      -0.408  -0.447   2.795  0.00  0.00    -0.004 C 
ATOM     10  C   UNL     1      -1.897  -0.757   2.658  0.00  0.00    +0.004 C 
ATOM     11  C   UNL     1      -2.411  -0.281   1.298  0.00  0.00    +0.004 C 
ATOM     12  C   UNL     1      -2.216   1.231   1.190  0.00  0.00    -0.004 C 
ATOM     13  C   UNL     1      -0.727   1.578   1.263  0.00  0.00    -0.019 C 
ATOM     14  C   UNL     1      -0.614   3.117   1.308  0.00  0.00    +0.081 C 
ATOM     15  C   UNL     1      -1.296   3.666   0.075  0.00  0.00    +0.134 C 
ATOM     16  O   UNL     1      -0.709   4.412  -0.674  0.00  0.00    -0.297 OA
ATOM     17  C   UNL     1      -2.726   3.262  -0.197  0.00  0.00    +0.074 C 
ATOM     18  C   UNL     1      -2.848   1.740  -0.101  0.00  0.00    +0.011 C 
ATOM     19  C   UNL     1      -0.013   1.086   0.008  0.00  0.00    +0.012 C 
ATOM     20  C   UNL     1       2.656  -1.818   0.918  0.00  0.00    +0.015 C 
ENDROOT
BRANCH   1  21
ATOM     21  O   UNL     1       3.701  -2.213   3.267  0.00  0.00    -0.461 OA
BRANCH  21  23
ATOM     22  C   UNL     1       5.863  -2.743   4.336  0.00  0.00    +0.136 C 
ATOM     23  C   UNL     1       4.456  -2.205   4.377  0.00  0.00    +0.304 C 
ATOM     24  O   UNL     1       4.008  -1.766   5.410  0.00  0.00    -0.251 OA
ENDBRANCH  21  23
ENDBRANCH   1  21
TORSDOF 2
