REMARK  Name = ZINC39639729
REMARK  8 active torsions:
REMARK  status: ('A' for Active; 'I' for Inactive)
REMARK    1  A    between atoms: C_1  and  C_2
REMARK    2  A    between atoms: C_2  and  C_3
REMARK    3  A    between atoms: C_2  and  C_4
REMARK    4  A    between atoms: C_4  and  C_6
REMARK    5  A    between atoms: C_4  and  O_12
REMARK    6  A    between atoms: O_12  and  C_13
REMARK    7  A    between atoms: C_13  and  C_15
REMARK    8  A    between atoms: C_21  and  C_23
REMARK                            x       y       z     vdW  Elec       q    Type
REMARK                         _______ _______ _______ _____ _____    ______ ____
ROOT
ATOM      1  C   UNL     1      -1.003  -3.875   1.259  0.00  0.00    +0.110 C 
ATOM      2  C   UNL     1      -2.106  -4.371   0.322  0.00  0.00    +0.015 C 
ATOM      3  C   UNL     1      -2.291  -5.879   0.506  0.00  0.00    +0.001 C 
ATOM      4  C   UNL     1      -2.683  -6.171   1.956  0.00  0.00    +0.001 C 
ATOM      5  C   UNL     1      -1.580  -5.675   2.893  0.00  0.00    +0.013 C 
ATOM      6  C   UNL     1      -1.395  -4.167   2.708  0.00  0.00    +0.089 C 
ENDROOT
BRANCH   6   7
ATOM      7  C   UNL     1      -2.686  -3.460   3.032  0.00  0.00    +0.224 C 
ATOM      8  O   UNL     1      -3.335  -2.946   2.146  0.00  0.00    -0.275 OA
ATOM      9  N   UNL     1      -3.119  -3.398   4.307  0.00  0.00    -0.271 N 
ATOM     10  C   UNL     1      -2.377  -3.889   5.471  0.00  0.00    +0.118 C 
ATOM     11  C   UNL     1      -3.280  -3.593   6.680  0.00  0.00    +0.056 C 
ATOM     12  C   UNL     1      -4.505  -2.934   6.087  0.00  0.00    -0.024 A 
ATOM     13  C   UNL     1      -4.339  -2.849   4.713  0.00  0.00    +0.039 A 
ATOM     14  C   UNL     1      -5.348  -2.268   3.944  0.00  0.00    +0.024 A 
ATOM     15  C   UNL     1      -6.489  -1.782   4.546  0.00  0.00    +0.002 A 
ATOM     16  C   UNL     1      -6.643  -1.867   5.917  0.00  0.00    +0.000 A 
ATOM     17  C   UNL     1      -5.652  -2.450   6.685  0.00  0.00    +0.005 A 
ENDBRANCH   6   7
BRANCH   1  18
ATOM     18  C   UNL     1      -0.821  -2.390   1.078  0.00  0.00    +0.312 C 
ATOM     19  O   UNL     1      -0.988  -1.642   2.012  0.00  0.00    -0.250 OA
BRANCH  18  20
ATOM     20  O   UNL     1      -0.474  -1.897  -0.122  0.00  0.00    -0.451 OA
BRANCH  20  21
ATOM     21  C   UNL     1      -0.319  -0.480  -0.222  0.00  0.00    +0.264 C 
BRANCH  21  22
ATOM     22  C   UNL     1      -0.661  -0.035  -1.620  0.00  0.00    +0.261 C 
ATOM     23  O   UNL     1      -0.930  -0.857  -2.469  0.00  0.00    -0.271 OA
ATOM     24  N   UNL     1      -0.668   1.278  -1.926  0.00  0.00    -0.237 N 
ATOM     25  C   UNL     1      -0.882   1.672  -3.197  0.00  0.00    +0.303 C 
ATOM     26  O   UNL     1      -1.070   0.844  -4.067  0.00  0.00    -0.253 OA
ATOM     27  N   UNL     1      -0.889   2.985  -3.503  0.00  0.00    -0.313 N 
ATOM     28  H   UNL     1      -0.518   1.939  -1.232  0.00  0.00    +0.159 HD
ATOM     29  H   UNL     1      -0.740   3.646  -2.809  0.00  0.00    +0.146 HD
ATOM     30  H   UNL     1      -1.044   3.269  -4.418  0.00  0.00    +0.146 HD
ENDBRANCH  21  22
BRANCH  21  32
ATOM     31  C   UNL     1       1.463  -0.512   1.530  0.00  0.00    +0.011 C 
ATOM     32  C   UNL     1       1.130  -0.103   0.094  0.00  0.00    +0.033 C 
ATOM     33  C   UNL     1       2.068  -0.827  -0.874  0.00  0.00    +0.011 C 
ENDBRANCH  21  32
ENDBRANCH  20  21
ENDBRANCH  18  20
ENDBRANCH   1  18
TORSDOF 6
