REMARK  Name = ZINC04770543
REMARK  5 active torsions:
REMARK  status: ('A' for Active; 'I' for Inactive)
REMARK    1  A    between atoms: C_1  and  C_2
REMARK    2  A    between atoms: C_6  and  C_8
REMARK    3  A    between atoms: C_8  and  O_9
REMARK    4  A    between atoms: O_9  and  C_10
REMARK    5  A    between atoms: C_13  and  C_16
REMARK                            x       y       z     vdW  Elec       q    Type
REMARK                         _______ _______ _______ _____ _____    ______ ____
ROOT
ATOM      1  C   UNL     1      -0.171  11.417  -2.023  0.00  0.00    +0.066 C 
ATOM      2  C   UNL     1      -1.423  11.997  -1.361  0.00  0.00    +0.109 C 
ATOM      3  C   UNL     1      -1.269  11.950   0.136  0.00  0.00    +0.219 C 
ATOM      4  O   UNL     1      -2.240  11.752   0.835  0.00  0.00    -0.275 OA
ATOM      5  N   UNL     1      -0.061  12.126   0.704  0.00  0.00    -0.271 N 
ATOM      6  C   UNL     1       1.058  12.344  -0.077  0.00  0.00    +0.120 A 
ATOM      7  C   UNL     1       1.056  12.022  -1.392  0.00  0.00    +0.065 A 
ATOM      8  C   UNL     1       2.208  12.255  -2.174  0.00  0.00    +0.280 A 
ATOM      9  O   UNL     1       2.224  11.971  -3.363  0.00  0.00    -0.265 OA
ATOM     10  N   UNL     1       3.286  12.793  -1.583  0.00  0.00    -0.184 NA
ATOM     11  C   UNL     1       3.270  13.096  -0.311  0.00  0.00    +0.182 A 
ATOM     12  N   UNL     1       2.189  12.900   0.508  0.00  0.00    -0.282 N 
ATOM     13  C   UNL     1       2.336  13.274   1.824  0.00  0.00    +0.102 A 
ATOM     14  C   UNL     1       3.476  13.800   2.267  0.00  0.00    +0.067 A 
ATOM     15  S   UNL     1       4.477  13.806   0.788  0.00  0.00    -0.058 S 
ATOM     16  H   UNL     1       0.024  12.101   1.670  0.00  0.00    +0.156 HD
ENDROOT
BRANCH   1  20
ATOM     17  C   UNL     1      -0.109   7.178  -1.486  0.00  0.00    +0.121 A 
ATOM     18  C   UNL     1      -0.116   8.019  -0.382  0.00  0.00    +0.046 A 
ATOM     19  C   UNL     1      -0.130   9.389  -0.558  0.00  0.00    +0.008 A 
ATOM     20  C   UNL     1      -0.149   9.922  -1.834  0.00  0.00    -0.039 A 
ATOM     21  C   UNL     1      -0.148   9.087  -2.935  0.00  0.00    +0.008 A 
ATOM     22  C   UNL     1      -0.128   7.716  -2.764  0.00  0.00    +0.046 A 
BRANCH  17  23
ATOM     23  O   UNL     1      -0.089   5.830  -1.315  0.00  0.00    -0.487 OA
BRANCH  23  24
ATOM     24  C   UNL     1      -0.070   5.347   0.030  0.00  0.00    +0.264 C 
BRANCH  24  30
ATOM     25  C   UNL     1      -2.514   0.980   0.019  0.00  0.00    +0.044 C 
ATOM     26  C   UNL     1      -1.219   1.751   0.017  0.00  0.00    -0.050 A 
ATOM     27  C   UNL     1      -0.013   1.076   0.008  0.00  0.00    +0.003 A 
ATOM     28  C   UNL     1       1.175   1.783   0.000  0.00  0.00    +0.001 A 
ATOM     29  C   UNL     1       1.156   3.166   0.008  0.00  0.00    +0.007 A 
ATOM     30  C   UNL     1      -0.050   3.840   0.022  0.00  0.00    -0.010 A 
ATOM     31  C   UNL     1      -1.238   3.133   0.029  0.00  0.00    +0.010 A 
ENDBRANCH  24  30
ENDBRANCH  23  24
ENDBRANCH  17  23
ENDBRANCH   1  20
TORSDOF 4
