REMARK  Name = ZINC35694835
REMARK  14 active torsions:
REMARK  status: ('A' for Active; 'I' for Inactive)
REMARK    1  A    between atoms: C_1  and  C_2
REMARK    2  A    between atoms: C_5  and  C_8
REMARK    3  A    between atoms: N_10  and  C_32
REMARK    4  A    between atoms: N_13  and  C_14
REMARK    5  A    between atoms: C_14  and  C_16
REMARK    6  A    between atoms: C_16  and  N_17
REMARK    7  A    between atoms: N_17  and  C_18
REMARK    8  A    between atoms: C_18  and  C_19
REMARK    9  A    between atoms: C_19  and  N_20
REMARK   10  A    between atoms: N_20  and  C_21
REMARK   11  A    between atoms: N_20  and  C_22
REMARK   12  A    between atoms: C_23  and  C_25
REMARK   13  A    between atoms: C_30  and  C_31
REMARK   14  A    between atoms: C_35  and  C_38
REMARK                            x       y       z     vdW  Elec       q    Type
REMARK                         _______ _______ _______ _____ _____    ______ ____
ROOT
ATOM      1  C   UNL     1      -0.424  -3.377  -0.837  0.00  0.00    +0.066 A 
ATOM      2  C   UNL     1      -0.387  -4.023   0.342  0.00  0.00    +0.120 A 
ATOM      3  N   UNL     1      -0.275  -5.375   0.086  0.00  0.00    -0.287 N 
ATOM      4  C   UNL     1      -0.242  -5.550  -1.262  0.00  0.00    +0.205 A 
ATOM      5  N   UNL     1      -0.339  -4.328  -1.847  0.00  0.00    -0.326 N 
ATOM      6  N   UNL     1      -0.140  -6.717  -1.898  0.00  0.00    -0.145 NA
ATOM      7  H   UNL     1      -0.346  -4.150  -2.801  0.00  0.00    +0.169 HD
ENDROOT
BRANCH   1  12
ATOM      8  C   UNL     1      -0.876   2.313  -1.570  0.00  0.00    +0.044 C 
ATOM      9  C   UNL     1      -0.757   0.824  -1.378  0.00  0.00    -0.050 A 
ATOM     10  C   UNL     1      -0.680  -0.009  -2.480  0.00  0.00    +0.004 A 
ATOM     11  C   UNL     1      -0.572  -1.374  -2.311  0.00  0.00    +0.010 A 
ATOM     12  C   UNL     1      -0.539  -1.914  -1.025  0.00  0.00    -0.000 A 
ATOM     13  C   UNL     1      -0.617  -1.069   0.082  0.00  0.00    +0.010 A 
ATOM     14  C   UNL     1      -0.720   0.294  -0.100  0.00  0.00    +0.004 A 
ENDBRANCH   1  12
BRANCH   3  15
ATOM     15  C   UNL     1      -0.205  -6.390   1.049  0.00  0.00    +0.049 A 
ATOM     16  C   UNL     1      -0.086  -7.716   0.654  0.00  0.00    +0.026 A 
ATOM     17  C   UNL     1      -0.017  -8.714   1.605  0.00  0.00    +0.005 A 
ATOM     18  C   UNL     1      -0.066  -8.395   2.950  0.00  0.00    -0.050 A 
ATOM     19  C   UNL     1      -0.185  -7.076   3.346  0.00  0.00    +0.005 A 
ATOM     20  C   UNL     1      -0.249  -6.072   2.400  0.00  0.00    +0.026 A 
ATOM     21  C   UNL     1       0.009  -9.488   3.985  0.00  0.00    +0.044 C 
ENDBRANCH   3  15
BRANCH   6  22
ATOM     22  C   UNL     1      -0.119  -6.750  -3.225  0.00  0.00    +0.256 C 
ATOM     23  O   UNL     1      -0.194  -5.715  -3.861  0.00  0.00    -0.272 OA
BRANCH  22  24
ATOM     24  C   UNL     1      -0.003  -8.069  -3.944  0.00  0.00    +0.205 C 
BRANCH  24  25
ATOM     25  N   UNL     1      -0.002  -7.838  -5.391  0.00  0.00    -0.290 N 
ATOM     26  C   UNL     1      -1.165  -7.826  -6.072  0.00  0.00    +0.247 C 
ATOM     27  O   UNL     1      -1.160  -7.718  -7.283  0.00  0.00    -0.270 OA
BRANCH  26  28
ATOM     28  C   UNL     1      -2.448  -7.944  -5.346  0.00  0.00    +0.040 A 
ATOM     29  C   UNL     1      -2.696  -9.054  -4.537  0.00  0.00    +0.013 A 
ATOM     30  C   UNL     1      -3.895  -9.158  -3.862  0.00  0.00    +0.001 A 
ATOM     31  C   UNL     1      -4.851  -8.165  -3.987  0.00  0.00    +0.000 A 
ATOM     32  C   UNL     1      -4.611  -7.062  -4.788  0.00  0.00    +0.004 A 
ATOM     33  C   UNL     1      -3.414  -6.944  -5.463  0.00  0.00    -0.038 A 
ATOM     34  C   UNL     1      -3.152  -5.739  -6.331  0.00  0.00    +0.044 C 
ENDBRANCH  26  28
BRANCH  25  35
ATOM     35  C   UNL     1       1.262  -7.621  -6.098  0.00  0.00    +0.090 C 
BRANCH  35  36
ATOM     36  C   UNL     1       1.881  -8.972  -6.463  0.00  0.00    -0.060 C 
BRANCH  36  37
ATOM     37  N   UNL     1       3.206  -8.758  -7.061  0.00  0.00    +0.377 N 
ATOM     38  C   UNL     1       3.855 -10.055  -7.290  0.00  0.00    -0.097 C 
ATOM     39  C   UNL     1       3.057  -8.052  -8.341  0.00  0.00    -0.097 C 
ATOM     40  H   UNL     1       3.772  -8.204  -6.435  0.00  0.00    -0.083 HD
ENDBRANCH  36  37
ENDBRANCH  35  36
ENDBRANCH  25  35
ENDBRANCH  24  25
ENDBRANCH  22  24
ENDBRANCH   6  22
TORSDOF 9
