REMARK  Name = ZINC02197982
REMARK  6 active torsions:
REMARK  status: ('A' for Active; 'I' for Inactive)
REMARK    1  A    between atoms: C_1  and  C_2
REMARK    2  A    between atoms: C_6  and  C_8
REMARK    3  A    between atoms: C_8  and  S_9
REMARK    4  A    between atoms: S_9  and  C_10
REMARK    5  A    between atoms: C_22  and  C_24
REMARK    6  A    between atoms: C_22  and  C_25
REMARK                            x       y       z     vdW  Elec       q    Type
REMARK                         _______ _______ _______ _____ _____    ______ ____
ROOT
ATOM      1  C   UNL     1      -0.117   7.714  -1.497  0.00  0.00    +0.211 A 
ATOM      2  N   UNL     1      -0.115   8.370  -0.337  0.00  0.00    -0.183 NA
ATOM      3  C   UNL     1      -0.135   9.679  -0.560  0.00  0.00    +0.254 A 
ATOM      4  N   UNL     1      -0.144  10.728   0.273  0.00  0.00    -0.215 NA
ATOM      5  C   UNL     1      -0.168  11.961  -0.182  0.00  0.00    +0.058 A 
ATOM      6  C   UNL     1      -0.179  12.184  -1.576  0.00  0.00    +0.057 A 
ATOM      7  C   UNL     1      -0.171  11.101  -2.440  0.00  0.00    +0.129 A 
ATOM      8  N   UNL     1      -0.150   9.858  -1.917  0.00  0.00    -0.202 N 
ATOM      9  N   UNL     1      -0.133   8.580  -2.490  0.00  0.00    -0.137 NA
ATOM     10  C   UNL     1      -0.197  13.556  -2.106  0.00  0.00    +0.167 C 
ATOM     11  O   UNL     1       0.001  13.779  -3.282  0.00  0.00    -0.292 OA
ATOM     12  C   UNL     1      -0.473  14.681  -1.129  0.00  0.00    +0.086 C 
ATOM     13  C   UNL     1       0.329  14.389   0.146  0.00  0.00    -0.022 C 
ATOM     14  C   UNL     1      -0.189  13.107   0.793  0.00  0.00    +0.063 C 
ATOM     15  C   UNL     1       1.807  14.221  -0.208  0.00  0.00    +0.011 C 
ATOM     16  C   UNL     1       0.169  15.554   1.126  0.00  0.00    +0.011 C 
ENDROOT
BRANCH   1  17
ATOM     17  S   UNL     1      -0.095   5.962  -1.675  0.00  0.00    -0.080 S 
BRANCH  17  18
ATOM     18  C   UNL     1      -0.070   5.347   0.032  0.00  0.00    +0.112 C 
BRANCH  18  24
ATOM     19  C   UNL     1      -2.514   0.980   0.019  0.00  0.00    +0.044 C 
ATOM     20  C   UNL     1      -1.219   1.751   0.017  0.00  0.00    -0.050 A 
ATOM     21  C   UNL     1      -0.013   1.076   0.008  0.00  0.00    +0.003 A 
ATOM     22  C   UNL     1       1.175   1.783   0.000  0.00  0.00    +0.001 A 
ATOM     23  C   UNL     1       1.156   3.166   0.008  0.00  0.00    +0.004 A 
ATOM     24  C   UNL     1      -0.050   3.840   0.023  0.00  0.00    -0.037 A 
ATOM     25  C   UNL     1      -1.238   3.133   0.030  0.00  0.00    +0.007 A 
ENDBRANCH  18  24
ENDBRANCH  17  18
ENDBRANCH   1  17
TORSDOF 3
