REMARK  Name = ZINC39015731
REMARK  4 active torsions:
REMARK  status: ('A' for Active; 'I' for Inactive)
REMARK    1  A    between atoms: C_7  and  C_10
REMARK    2  A    between atoms: N_11  and  N_12
REMARK    3  A    between atoms: C_13  and  C_15
REMARK    4  A    between atoms: C_18  and  C_21
REMARK                            x       y       z     vdW  Elec       q    Type
REMARK                         _______ _______ _______ _____ _____    ______ ____
ROOT
ATOM      1  N   UNL     1       0.256  -5.438  -0.031  0.00  0.00    -0.202 N 
ATOM      2  C   UNL     1       0.734  -6.698  -0.043  0.00  0.00    +0.279 C 
ATOM      3  O   UNL     1       1.935  -6.893  -0.056  0.00  0.00    -0.267 OA
ATOM      4  H   UNL     1      -0.701  -5.282  -0.020  0.00  0.00    +0.178 HD
ENDROOT
BRANCH   2   5
ATOM      5  C   UNL     1      -0.191  -7.830  -0.040  0.00  0.00    +0.124 C 
ATOM      6  N   UNL     1      -1.482  -7.740  -0.032  0.00  0.00    -0.186 NA
ATOM      7  N   UNL     1      -2.135  -8.971  -0.032  0.00  0.00    -0.261 N 
ATOM      8  C   UNL     1      -1.130 -10.045  -0.041  0.00  0.00    +0.126 C 
ATOM      9  C   UNL     1       0.212  -9.287  -0.052  0.00  0.00    +0.091 C 
ATOM     10  H   UNL     1      -3.097  -9.099  -0.027  0.00  0.00    +0.169 HD
BRANCH   8  11
ATOM     11  C   UNL     1      -1.269 -10.891  -1.280  0.00  0.00    -0.006 A 
ATOM     12  C   UNL     1      -1.862 -10.366  -2.412  0.00  0.00    +0.027 A 
ATOM     13  C   UNL     1      -1.990 -11.143  -3.550  0.00  0.00    +0.041 A 
ATOM     14  C   UNL     1      -1.524 -12.446  -3.554  0.00  0.00    +0.021 A 
ATOM     15  C   UNL     1      -0.931 -12.971  -2.421  0.00  0.00    +0.022 A 
ATOM     16  C   UNL     1      -0.798 -12.192  -1.286  0.00  0.00    +0.046 A 
ATOM     17 CL   UNL     1      -0.046 -12.849   0.135  0.00  0.00    -0.083 Cl
ATOM     18 CL   UNL     1      -2.736 -10.483  -4.972  0.00  0.00    -0.084 Cl
ENDBRANCH   8  11
ENDBRANCH   2   5
BRANCH   1  20
ATOM     19  C   UNL     1       0.678  -3.127  -0.022  0.00  0.00    +0.136 C 
ATOM     20  N   UNL     1       1.142  -4.353  -0.034  0.00  0.00    -0.188 NA
BRANCH  19  27
ATOM     21  C   UNL     1      -0.016   1.353   0.009  0.00  0.00    +0.001 A 
ATOM     22  C   UNL     1       1.164   2.101   0.002  0.00  0.00    +0.002 A 
ATOM     23  C   UNL     1       2.384   1.513  -0.013  0.00  0.00    +0.026 A 
ATOM     24  C   UNL     1       2.485   0.096  -0.022  0.00  0.00    +0.043 A 
ATOM     25  N   UNL     1       3.531  -0.703  -0.037  0.00  0.00    -0.380 N 
ATOM     26  C   UNL     1       3.076  -2.096  -0.041  0.00  0.00    +0.150 C 
ATOM     27  C   UNL     1       1.564  -2.042  -0.025  0.00  0.00    +0.000 C 
ATOM     28  C   UNL     1       1.238  -0.688  -0.013  0.00  0.00    +0.004 A 
ATOM     29  C   UNL     1       0.002  -0.004   0.002  0.00  0.00    +0.010 A 
ATOM     30  H   UNL     1       4.457  -0.415  -0.045  0.00  0.00    +0.160 HD
ENDBRANCH  19  27
ENDBRANCH   1  20
TORSDOF 4
