REMARK  Name = ZINC30954722
REMARK  6 active torsions:
REMARK  status: ('A' for Active; 'I' for Inactive)
REMARK    1  A    between atoms: C_1  and  C_2
REMARK    2  A    between atoms: C_2  and  C_3
REMARK    3  A    between atoms: C_2  and  C_4
REMARK    4  A    between atoms: N_23  and  C_24
REMARK    5  A    between atoms: C_24  and  C_25
REMARK    6  A    between atoms: C_25  and  C_26
REMARK                            x       y       z     vdW  Elec       q    Type
REMARK                         _______ _______ _______ _____ _____    ______ ____
ROOT
ATOM      1  C   UNL     1       1.401   1.607  -0.003  0.00  0.00    -0.044 A 
ATOM      2  C   UNL     1       1.618   2.970  -0.003  0.00  0.00    +0.006 A 
ATOM      3  C   UNL     1       2.895   3.510  -0.007  0.00  0.00    +0.024 A 
ATOM      4  C   UNL     1       3.966   2.615  -0.024  0.00  0.00    +0.041 A 
ATOM      5  C   UNL     1       3.732   1.235  -0.028  0.00  0.00    +0.025 A 
ATOM      6  C   UNL     1       2.460   0.705  -0.018  0.00  0.00    +0.013 A 
ATOM      7  C   UNL     1       5.078   0.580  -0.047  0.00  0.00    +0.208 C 
ATOM      8  C   UNL     1       6.056   1.738  -0.055  0.00  0.00    +0.264 C 
ATOM      9  O   UNL     1       7.266   1.659  -0.073  0.00  0.00    -0.271 OA
ATOM     10  N   UNL     1       5.326   2.872  -0.038  0.00  0.00    -0.282 N 
ATOM     11  N   UNL     1       5.246  -0.219  -1.263  0.00  0.00    -0.312 N 
ATOM     12  C   UNL     1       4.690  -1.493  -1.305  0.00  0.00    +0.041 A 
ATOM     13  C   UNL     1       4.281  -2.070  -2.496  0.00  0.00    +0.024 A 
ATOM     14  C   UNL     1       3.744  -3.344  -2.490  0.00  0.00    +0.002 A 
ATOM     15  C   UNL     1       3.614  -4.048  -1.302  0.00  0.00    +0.001 A 
ATOM     16  C   UNL     1       4.012  -3.485  -0.108  0.00  0.00    +0.015 A 
ATOM     17  C   UNL     1       4.548  -2.199  -0.098  0.00  0.00    +0.058 A 
ATOM     18  C   UNL     1       4.958  -1.545   1.158  0.00  0.00    +0.251 C 
ATOM     19  O   UNL     1       5.004  -2.180   2.194  0.00  0.00    -0.270 OA
ATOM     20  N   UNL     1       5.281  -0.235   1.147  0.00  0.00    -0.265 N 
ATOM     21  H   UNL     1       5.689   3.910  -0.034  0.00  0.00    +0.155 HD
ATOM     22  H   UNL     1       5.803   0.192  -2.119  0.00  0.00    +0.149 HD
ENDROOT
BRANCH   1  24
ATOM     23  C   UNL     1      -0.753   1.593  -1.232  0.00  0.00    +0.012 C 
ATOM     24  C   UNL     1      -0.013   1.086   0.008  0.00  0.00    +0.013 C 
ATOM     25  C   UNL     1      -0.729   1.579   1.267  0.00  0.00    +0.012 C 
ENDBRANCH   1  24
BRANCH  20  26
ATOM     26  C   UNL     1       5.844   0.378   2.352  0.00  0.00    +0.115 C 
BRANCH  26  27
ATOM     27  C   UNL     1       4.711   0.924   3.224  0.00  0.00    +0.054 C 
BRANCH  27  28
ATOM     28  C   UNL     1       5.290   1.555   4.463  0.00  0.00    -0.046 A 
ATOM     29  C   UNL     1       5.482   0.795   5.602  0.00  0.00    +0.004 A 
ATOM     30  C   UNL     1       6.017   1.373   6.737  0.00  0.00    +0.000 A 
ATOM     31  C   UNL     1       6.353   2.714   6.738  0.00  0.00    +0.000 A 
ATOM     32  C   UNL     1       6.157   3.475   5.601  0.00  0.00    +0.000 A 
ATOM     33  C   UNL     1       5.626   2.896   4.464  0.00  0.00    +0.004 A 
ENDBRANCH  27  28
ENDBRANCH  26  27
ENDBRANCH  20  26
TORSDOF 4
