REMARK  Name = ZINC39887367
REMARK  8 active torsions:
REMARK  status: ('A' for Active; 'I' for Inactive)
REMARK    1  A    between atoms: C_1  and  C_2
REMARK    2  A    between atoms: C_2  and  C_3
REMARK    3  A    between atoms: C_3  and  C_4
REMARK    4  A    between atoms: C_4  and  C_5
REMARK    5  A    between atoms: C_8  and  N_11
REMARK    6  A    between atoms: C_12  and  C_22
REMARK    7  A    between atoms: C_17  and  C_20
REMARK    8  A    between atoms: C_28  and  C_31
REMARK                            x       y       z     vdW  Elec       q    Type
REMARK                         _______ _______ _______ _____ _____    ______ ____
ROOT
ATOM      1  N   UNL     1      -6.915  -4.099   0.318  0.00  0.00    -0.270 N 
ATOM      2  C   UNL     1      -7.611  -4.272  -0.961  0.00  0.00    +0.197 C 
ATOM      3  N   UNL     1      -8.318  -5.554  -0.971  0.00  0.00    -0.288 N 
ATOM      4  C   UNL     1      -8.797  -6.082   0.173  0.00  0.00    +0.258 C 
ATOM      5  O   UNL     1      -9.421  -7.128   0.151  0.00  0.00    -0.269 OA
ATOM      6  C   UNL     1      -8.565  -5.390   1.443  0.00  0.00    +0.142 C 
ATOM      7  C   UNL     1      -7.587  -4.386   1.481  0.00  0.00    +0.103 C 
ATOM      8  S   UNL     1      -7.235  -3.518   2.974  0.00  0.00    -0.033 SA
ATOM      9  H   UNL     1      -8.442  -6.028  -1.808  0.00  0.00    +0.151 HD
ENDROOT
BRANCH   2  10
ATOM     10  C   UNL     1      -8.604  -3.153  -1.147  0.00  0.00    -0.008 A 
ATOM     11  C   UNL     1      -8.334  -1.904  -0.583  0.00  0.00    +0.009 A 
ATOM     12  C   UNL     1      -9.189  -0.860  -0.717  0.00  0.00    +0.032 A 
ATOM     13  C   UNL     1     -10.388  -1.030  -1.446  0.00  0.00    +0.114 A 
ATOM     14  C   UNL     1     -10.670  -2.347  -2.040  0.00  0.00    +0.049 A 
ATOM     15  C   UNL     1      -9.734  -3.384  -1.864  0.00  0.00    +0.021 A 
ATOM     16  C   UNL     1     -11.896  -2.235  -2.690  0.00  0.00    +0.175 A 
ATOM     17  O   UNL     1     -12.335  -0.980  -2.521  0.00  0.00    -0.353 OA
ATOM     18  N   UNL     1     -11.400  -0.245  -1.754  0.00  0.00    -0.078 NA
BRANCH  16  19
ATOM     19  C   UNL     1     -12.587  -3.305  -3.432  0.00  0.00    +0.021 A 
ATOM     20  C   UNL     1     -12.712  -4.580  -2.872  0.00  0.00    +0.011 A 
ATOM     21  C   UNL     1     -13.360  -5.576  -3.572  0.00  0.00    +0.001 A 
ATOM     22  C   UNL     1     -13.886  -5.316  -4.825  0.00  0.00    +0.000 A 
ATOM     23  C   UNL     1     -13.767  -4.056  -5.386  0.00  0.00    +0.001 A 
ATOM     24  C   UNL     1     -13.126  -3.049  -4.696  0.00  0.00    +0.011 A 
ENDBRANCH  16  19
ENDBRANCH   2  10
BRANCH   1  28
ATOM     25  C   UNL     1      -2.968  -2.775   0.421  0.00  0.00    -0.047 A 
ATOM     26  C   UNL     1      -3.267  -4.011  -0.121  0.00  0.00    +0.005 A 
ATOM     27  C   UNL     1      -4.574  -4.453  -0.156  0.00  0.00    +0.024 A 
ATOM     28  C   UNL     1      -5.590  -3.654   0.353  0.00  0.00    +0.036 A 
ATOM     29  C   UNL     1      -5.286  -2.413   0.896  0.00  0.00    +0.024 A 
ATOM     30  C   UNL     1      -3.976  -1.979   0.933  0.00  0.00    +0.005 A 
BRANCH  25  31
ATOM     31  C   UNL     1      -1.539  -2.296   0.458  0.00  0.00    +0.035 C 
BRANCH  31  32
ATOM     32  C   UNL     1      -0.883  -2.748   1.764  0.00  0.00    +0.004 C 
BRANCH  32  34
ATOM     33  C   UNL     1       1.222  -2.715   3.108  0.00  0.00    +0.004 C 
ATOM     34  C   UNL     1       0.567  -2.262   1.802  0.00  0.00    -0.003 C 
ENDBRANCH  32  34
ENDBRANCH  31  32
ENDBRANCH  25  31
ENDBRANCH   1  28
BRANCH   6  35
ATOM     35  C   UNL     1      -9.313  -5.733   2.615  0.00  0.00    +0.107 C 
ATOM     36  N   UNL     1      -9.907  -6.005   3.544  0.00  0.00    -0.191 NA
ENDBRANCH   6  35
TORSDOF 7
