REMARK  Name = ZINC66079869
REMARK  6 active torsions:
REMARK  status: ('A' for Active; 'I' for Inactive)
REMARK    1  A    between atoms: C_1  and  C_2
REMARK    2  A    between atoms: C_5  and  C_8
REMARK    3  A    between atoms: N_13  and  C_15
REMARK    4  A    between atoms: C_15  and  N_16
REMARK    5  A    between atoms: C_19  and  N_22
REMARK    6  A    between atoms: C_23  and  C_25
REMARK                            x       y       z     vdW  Elec       q    Type
REMARK                         _______ _______ _______ _____ _____    ______ ____
ROOT
ATOM      1  C   UNL     1       0.101  -7.525  -1.534  0.00  0.00    +0.072 C 
ENDROOT
BRANCH   1   7
ATOM      2  C   UNL     1       0.059  -4.252  -0.021  0.00  0.00    +0.160 A 
ATOM      3  N   UNL     1       0.070  -5.065   1.095  0.00  0.00    -0.317 N 
ATOM      4  H   UNL     1       0.066  -4.764   2.017  0.00  0.00    +0.169 HD
ATOM      5  C   UNL     1       0.086  -6.348   0.684  0.00  0.00    +0.174 A 
ATOM      6  S   UNL     1       0.104  -7.732   1.691  0.00  0.00    -0.012 S 
ATOM      7  N   UNL     1       0.086  -6.345  -0.665  0.00  0.00    -0.257 N 
ATOM      8  N   UNL     1       0.064  -5.008  -1.084  0.00  0.00    -0.153 NA
BRANCH   2  13
ATOM      9  C   UNL     1      -0.018   1.503   0.010  0.00  0.00    +0.044 C 
ATOM     10  C   UNL     1       0.002  -0.004   0.002  0.00  0.00    -0.050 A 
ATOM     11  C   UNL     1       0.006  -0.686  -1.202  0.00  0.00    +0.004 A 
ATOM     12  C   UNL     1       0.024  -2.066  -1.216  0.00  0.00    +0.012 A 
ATOM     13  C   UNL     1       0.040  -2.773  -0.013  0.00  0.00    +0.019 A 
ATOM     14  C   UNL     1       0.036  -2.079   1.197  0.00  0.00    +0.012 A 
ATOM     15  C   UNL     1       0.023  -0.699   1.198  0.00  0.00    +0.004 A 
ENDBRANCH   2  13
ENDBRANCH   1   7
BRANCH   1  16
ATOM     16  N   UNL     1      -1.234  -7.723  -2.113  0.00  0.00    +0.393 N 
ATOM     17  C   UNL     1      -1.561  -6.591  -2.987  0.00  0.00    -0.074 C 
ATOM     18  C   UNL     1      -2.982  -6.753  -3.529  0.00  0.00    +0.004 C 
ATOM     19  C   UNL     1      -3.074  -8.057  -4.326  0.00  0.00    +0.069 C 
ATOM     20  C   UNL     1      -2.660  -9.224  -3.425  0.00  0.00    +0.004 C 
ATOM     21  C   UNL     1      -1.250  -8.971  -2.887  0.00  0.00    -0.074 C 
ATOM     22  H   UNL     1      -1.916  -7.781  -1.371  0.00  0.00    -0.079 HD
BRANCH  19  23
ATOM     23  N   UNL     1      -4.451  -8.257  -4.783  0.00  0.00    -0.312 N 
ATOM     24  C   UNL     1      -4.697  -9.007  -5.875  0.00  0.00    +0.216 C 
ATOM     25  O   UNL     1      -3.777  -9.518  -6.479  0.00  0.00    -0.276 OA
ATOM     26  H   UNL     1      -5.187  -7.848  -4.300  0.00  0.00    +0.149 HD
BRANCH  24  27
ATOM     27  C   UNL     1      -6.114  -9.212  -6.346  0.00  0.00    +0.075 C 
ATOM     28  C   UNL     1      -6.651  -8.055  -7.204  0.00  0.00    +0.013 C 
ATOM     29  C   UNL     1      -6.082  -8.799  -8.424  0.00  0.00    +0.001 C 
ATOM     30  C   UNL     1      -6.224 -10.091  -7.603  0.00  0.00    +0.013 C 
ENDBRANCH  24  27
ENDBRANCH  19  23
ENDBRANCH   1  16
TORSDOF 5
