REMARK  Name = ZINC64166661
REMARK  6 active torsions:
REMARK  status: ('A' for Active; 'I' for Inactive)
REMARK    1  A    between atoms: C_1  and  O_2
REMARK    2  A    between atoms: O_2  and  C_3
REMARK    3  A    between atoms: C_8  and  C_13
REMARK    4  A    between atoms: N_15  and  C_16
REMARK    5  A    between atoms: N_21  and  C_23
REMARK    6  A    between atoms: C_23  and  C_24
REMARK                            x       y       z     vdW  Elec       q    Type
REMARK                         _______ _______ _______ _____ _____    ______ ____
ROOT
ATOM      1  C   UNL     1       3.643  -4.651   3.590  0.00  0.00    +0.240 C 
ATOM      2  O   UNL     1       4.640  -3.982   3.417  0.00  0.00    -0.273 OA
ATOM      3  N   UNL     1       3.728  -5.996   3.609  0.00  0.00    -0.312 N 
ATOM      4  H   UNL     1       2.930  -6.530   3.747  0.00  0.00    +0.149 HD
ENDROOT
BRANCH   1  10
ATOM      5  C   UNL     1       0.626  -0.619   1.042  0.00  0.00    +0.121 A 
ATOM      6  C   UNL     1       1.202   0.173   2.051  0.00  0.00    +0.047 A 
ATOM      7  C   UNL     1       1.839  -0.358   3.116  0.00  0.00    +0.029 A 
ATOM      8  C   UNL     1       1.947  -1.815   3.248  0.00  0.00    +0.043 A 
ATOM      9  N   UNL     1       2.500  -2.573   4.161  0.00  0.00    -0.370 N 
ATOM     10  C   UNL     1       2.308  -3.978   3.782  0.00  0.00    +0.190 C 
ATOM     11  C   UNL     1       1.541  -3.954   2.479  0.00  0.00    +0.016 C 
ATOM     12  C   UNL     1       1.340  -2.650   2.185  0.00  0.00    -0.000 A 
ATOM     13  C   UNL     1       0.667  -1.972   1.072  0.00  0.00    +0.055 A 
ATOM     14  H   UNL     1       2.961  -2.259   4.955  0.00  0.00    +0.161 HD
BRANCH   5  16
ATOM     15  C   UNL     1      -0.017   1.425   0.010  0.00  0.00    +0.277 C 
ATOM     16  O   UNL     1       0.002  -0.004   0.002  0.00  0.00    -0.495 OA
ENDBRANCH   5  16
ENDBRANCH   1  10
BRANCH   3  17
ATOM     17  C   UNL     1       5.025  -6.650   3.422  0.00  0.00    +0.056 C 
ATOM     18  C   UNL     1       5.755  -6.734   4.766  0.00  0.00    +0.018 C 
ATOM     19  C   UNL     1       7.073  -7.488   4.574  0.00  0.00    -0.017 C 
ATOM     20  C   UNL     1       6.782  -8.870   3.985  0.00  0.00    -0.079 C 
ATOM     21  N   UNL     1       6.108  -8.723   2.690  0.00  0.00    +0.381 N 
ATOM     22  C   UNL     1       4.810  -8.063   2.875  0.00  0.00    -0.056 C 
ATOM     23  H   UNL     1       6.682  -8.165   2.075  0.00  0.00    -0.082 HD
BRANCH  21  24
ATOM     24  C   UNL     1       5.901 -10.049   2.093  0.00  0.00    -0.075 C 
BRANCH  24  25
ATOM     25  C   UNL     1       7.257 -10.682   1.775  0.00  0.00    -0.028 C 
ATOM     26  C   UNL     1       7.964  -9.859   0.696  0.00  0.00    +0.002 C 
ATOM     27  C   UNL     1       9.320 -10.492   0.378  0.00  0.00    +0.000 C 
ATOM     28  C   UNL     1       9.110 -11.921  -0.127  0.00  0.00    +0.000 C 
ATOM     29  C   UNL     1       8.403 -12.744   0.952  0.00  0.00    +0.000 C 
ATOM     30  C   UNL     1       7.047 -12.111   1.270  0.00  0.00    +0.002 C 
ENDBRANCH  24  25
ENDBRANCH  21  24
ENDBRANCH   3  17
TORSDOF 5
