REMARK  Name = ZINC63573605
REMARK  9 active torsions:
REMARK  status: ('A' for Active; 'I' for Inactive)
REMARK    1  A    between atoms: C_1  and  N_2
REMARK    2  A    between atoms: N_15  and  C_26
REMARK    3  A    between atoms: C_16  and  C_18
REMARK    4  A    between atoms: C_21  and  O_24
REMARK    5  A    between atoms: O_24  and  C_25
REMARK    6  A    between atoms: C_26  and  C_27
REMARK    7  A    between atoms: N_29  and  C_30
REMARK    8  A    between atoms: C_30  and  C_31
REMARK    9  A    between atoms: C_31  and  C_32
REMARK                            x       y       z     vdW  Elec       q    Type
REMARK                         _______ _______ _______ _____ _____    ______ ____
ROOT
ATOM      1  C   UNL     1      -0.018   1.461   0.010  0.00  0.00    +0.130 C 
ATOM      2  N   UNL     1       0.002  -0.004   0.002  0.00  0.00    -0.321 N 
ATOM      3  C   UNL     1       0.009  -0.817  -1.137  0.00  0.00    +0.034 A 
ATOM      4  C   UNL     1      -0.358  -0.519  -2.449  0.00  0.00    +0.023 A 
ATOM      5  C   UNL     1      -0.232  -1.472  -3.438  0.00  0.00    +0.002 A 
ATOM      6  C   UNL     1       0.260  -2.729  -3.134  0.00  0.00    +0.000 A 
ATOM      7  C   UNL     1       0.608  -3.037  -1.832  0.00  0.00    +0.006 A 
ATOM      8  C   UNL     1       0.465  -2.092  -0.835  0.00  0.00    -0.019 A 
ATOM      9  C   UNL     1       0.674  -2.179   0.660  0.00  0.00    +0.075 C 
ATOM     10  C   UNL     1       0.025  -0.873   1.192  0.00  0.00    +0.169 C 
ATOM     11  C   UNL     1      -1.393  -1.277   1.529  0.00  0.00    +0.238 C 
ATOM     12  O   UNL     1      -2.296  -0.501   1.759  0.00  0.00    -0.274 OA
ATOM     13  N   UNL     1      -1.513  -2.614   1.537  0.00  0.00    -0.283 N 
ATOM     14  C   UNL     1      -0.222  -3.282   1.252  0.00  0.00    +0.116 C 
ENDROOT
BRANCH  14  15
ATOM     15  C   UNL     1       0.379  -3.810   2.530  0.00  0.00    -0.026 A 
ATOM     16  C   UNL     1       0.214  -3.109   3.710  0.00  0.00    +0.009 A 
ATOM     17  C   UNL     1       0.765  -3.590   4.883  0.00  0.00    +0.046 A 
ATOM     18  C   UNL     1       1.482  -4.777   4.875  0.00  0.00    +0.120 A 
ATOM     19  C   UNL     1       1.645  -5.479   3.689  0.00  0.00    +0.046 A 
ATOM     20  C   UNL     1       1.089  -4.996   2.520  0.00  0.00    +0.009 A 
BRANCH  18  21
ATOM     21  O   UNL     1       2.025  -5.252   6.026  0.00  0.00    -0.495 OA
ATOM     22  C   UNL     1       2.751  -6.481   5.943  0.00  0.00    +0.277 C 
ENDBRANCH  18  21
ENDBRANCH  14  15
BRANCH  13  23
ATOM     23  C   UNL     1      -2.766  -3.328   1.793  0.00  0.00    +0.204 C 
BRANCH  23  24
ATOM     24  C   UNL     1      -3.490  -3.556   0.491  0.00  0.00    +0.230 C 
ATOM     25  O   UNL     1      -3.007  -3.160  -0.548  0.00  0.00    -0.274 OA
ATOM     26  N   UNL     1      -4.674  -4.199   0.483  0.00  0.00    -0.314 N 
ATOM     27  H   UNL     1      -5.061  -4.516   1.314  0.00  0.00    +0.149 HD
BRANCH  26  28
ATOM     28  C   UNL     1      -5.378  -4.421  -0.783  0.00  0.00    +0.108 C 
BRANCH  28  29
ATOM     29  C   UNL     1      -6.687  -5.167  -0.515  0.00  0.00    +0.052 C 
BRANCH  29  30
ATOM     30  C   UNL     1      -7.411  -5.395  -1.817  0.00  0.00    -0.040 C 
ATOM     31  C   UNL     1      -7.364  -6.503  -2.591  0.00  0.00    -0.001 A 
ATOM     32  C   UNL     1      -6.651  -7.779  -2.457  0.00  0.00    +0.010 A 
ATOM     33  C   UNL     1      -6.805  -8.720  -3.417  0.00  0.00    +0.001 A 
ATOM     34  C   UNL     1      -7.625  -8.507  -4.533  0.00  0.00    +0.002 A 
ATOM     35  C   UNL     1      -8.312  -7.361  -4.725  0.00  0.00    +0.026 A 
ATOM     36  C   UNL     1      -8.225  -6.303  -3.778  0.00  0.00    +0.043 A 
ATOM     37  N   UNL     1      -8.783  -5.117  -3.740  0.00  0.00    -0.380 N 
ATOM     38  C   UNL     1      -8.342  -4.432  -2.519  0.00  0.00    +0.144 C 
ATOM     39  H   UNL     1      -9.388  -4.755  -4.405  0.00  0.00    +0.160 HD
ENDBRANCH  29  30
ENDBRANCH  28  29
ENDBRANCH  26  28
ENDBRANCH  23  24
ENDBRANCH  13  23
TORSDOF 7
