REMARK  Name = ZINC08709067
REMARK  4 active torsions:
REMARK  status: ('A' for Active; 'I' for Inactive)
REMARK    1  A    between atoms: C_1  and  C_2
REMARK    2  A    between atoms: C_13  and  C_15
REMARK    3  A    between atoms: C_15  and  S_16
REMARK    4  A    between atoms: S_16  and  C_17
REMARK                            x       y       z     vdW  Elec       q    Type
REMARK                         _______ _______ _______ _____ _____    ______ ____
ROOT
ATOM      1  C   UNL     1      -0.019   1.526   0.010  0.00  0.00    +0.008 C 
ATOM      2  C   UNL     1       0.002  -0.004   0.002  0.00  0.00    -0.009 C 
ATOM      3  C   UNL     1      -1.433  -0.538   0.033  0.00  0.00    +0.008 C 
ATOM      4  C   UNL     1      -1.432  -2.044  -0.225  0.00  0.00    +0.037 C 
ATOM      5  C   UNL     1      -0.465  -2.712   0.750  0.00  0.00    -0.023 A 
ATOM      6  C   UNL     1       0.488  -1.985   1.379  0.00  0.00    -0.004 A 
ATOM      7  S   UNL     1       1.364  -3.148   2.394  0.00  0.00    -0.073 S 
ATOM      8  C   UNL     1       0.454  -4.601   1.975  0.00  0.00    +0.116 A 
ATOM      9  C   UNL     1      -0.508  -4.131   1.053  0.00  0.00    +0.075 A 
ATOM     10  C   UNL     1      -1.421  -5.099   0.514  0.00  0.00    +0.260 A 
ATOM     11  O   UNL     1      -2.288  -4.797  -0.288  0.00  0.00    -0.267 OA
ATOM     12  N   UNL     1      -1.259  -6.369   0.955  0.00  0.00    -0.310 N 
ATOM     13  C   UNL     1      -0.302  -6.726   1.846  0.00  0.00    +0.121 A 
ATOM     14  N   UNL     1       0.552  -5.869   2.361  0.00  0.00    -0.226 NA
ATOM     15  C   UNL     1       0.744  -0.516   1.245  0.00  0.00    +0.046 C 
ATOM     16  H   UNL     1      -1.855  -7.055   0.618  0.00  0.00    +0.170 HD
ENDROOT
BRANCH  13  17
ATOM     17  C   UNL     1      -0.214  -8.170   2.266  0.00  0.00    +0.151 C 
BRANCH  17  18
ATOM     18  S   UNL     1       1.141  -8.372   3.455  0.00  0.00    -0.085 S 
BRANCH  18  19
ATOM     19  C   UNL     1       1.114 -10.091   3.844  0.00  0.00    +0.128 C 
ATOM     20  N   UNL     1       0.245 -10.933   3.306  0.00  0.00    -0.366 N 
ATOM     21  C   UNL     1       0.488 -12.284   3.836  0.00  0.00    +0.133 C 
ATOM     22  C   UNL     1       1.676 -12.084   4.799  0.00  0.00    +0.124 C 
ATOM     23  N   UNL     1       1.965 -10.646   4.693  0.00  0.00    -0.324 N 
ATOM     24  H   UNL     1       2.667 -10.177   5.172  0.00  0.00    +0.148 HD
ATOM     25  H   UNL     1      -0.443 -10.696   2.665  0.00  0.00    +0.161 HD
ENDBRANCH  18  19
ENDBRANCH  17  18
ENDBRANCH  13  17
TORSDOF 3
