REMARK  Name = ZINC62247027
REMARK  5 active torsions:
REMARK  status: ('A' for Active; 'I' for Inactive)
REMARK    1  A    between atoms: C_1  and  C_2
REMARK    2  A    between atoms: C_5  and  N_9
REMARK    3  A    between atoms: C_10  and  C_16
REMARK    4  A    between atoms: C_11  and  C_14
REMARK    5  A    between atoms: C_14  and  N_15
REMARK                            x       y       z     vdW  Elec       q    Type
REMARK                         _______ _______ _______ _____ _____    ______ ____
ROOT
ATOM      1  N   UNL     1       0.057  -4.174  -0.020  0.00  0.00    -0.214 N 
ATOM      2  C   UNL     1       0.779  -4.968   0.817  0.00  0.00    +0.095 A 
ATOM      3  C   UNL     1       0.502  -6.243   0.455  0.00  0.00    +0.072 A 
ATOM      4  N   UNL     1      -0.359  -6.170  -0.566  0.00  0.00    -0.136 NA
ATOM      5  N   UNL     1      -0.606  -4.933  -0.820  0.00  0.00    -0.060 NA
ENDROOT
BRANCH   1  10
ATOM      6  C   UNL     1      -0.031   1.502   0.028  0.00  0.00    +0.045 C 
ATOM      7  C   UNL     1      -0.007  -0.004   0.015  0.00  0.00    -0.032 A 
ATOM      8  C   UNL     1      -0.298  -0.709   1.168  0.00  0.00    +0.007 A 
ATOM      9  C   UNL     1      -0.278  -2.090   1.160  0.00  0.00    +0.028 A 
ATOM     10  C   UNL     1       0.035  -2.771  -0.009  0.00  0.00    +0.069 A 
ATOM     11  C   UNL     1       0.327  -2.062  -1.166  0.00  0.00    +0.048 A 
ATOM     12  C   UNL     1       0.299  -0.680  -1.153  0.00  0.00    +0.046 A 
ATOM     13 CL   UNL     1       0.657   0.208  -2.601  0.00  0.00    -0.083 Cl
ENDBRANCH   1  10
BRANCH   2  14
ATOM     14  C   UNL     1       1.699  -4.520   1.923  0.00  0.00    +0.169 C 
ATOM     15  C   UNL     1       2.957  -3.834   1.331  0.00  0.00    +0.040 C 
ATOM     16  C   UNL     1       3.386  -2.929   2.518  0.00  0.00    +0.031 C 
ATOM     17  C   UNL     1       2.027  -2.535   3.136  0.00  0.00    +0.161 C 
ATOM     18  O   UNL     1       1.062  -3.512   2.724  0.00  0.00    -0.370 OA
ENDBRANCH   2  14
BRANCH   3  19
ATOM     19  C   UNL     1       1.055  -7.498   1.079  0.00  0.00    -0.026 C 
BRANCH  19  20
ATOM     20  N   UNL     1       0.175  -7.928   2.174  0.00  0.00    +0.382 N 
ATOM     21  H   UNL     1       0.546  -8.769   2.592  0.00  0.00    -0.090 HD
ATOM     22  H   UNL     1       0.124  -7.200   2.871  0.00  0.00    -0.090 HD
ATOM     23  H   UNL     1      -0.748  -8.112   1.812  0.00  0.00    -0.090 HD
ENDBRANCH  19  20
ENDBRANCH   3  19
TORSDOF 4
