REMARK  Name = ZINC06239796
REMARK  13 active torsions:
REMARK  status: ('A' for Active; 'I' for Inactive)
REMARK    1  A    between atoms: C_1  and  O_2
REMARK    2  A    between atoms: O_2  and  C_3
REMARK    3  A    between atoms: C_6  and  C_9
REMARK    4  A    between atoms: C_9  and  N_10
REMARK    5  A    between atoms: N_10  and  C_11
REMARK    6  A    between atoms: N_10  and  S_26
REMARK    7  A    between atoms: C_11  and  C_12
REMARK    8  A    between atoms: C_17  and  O_24
REMARK    9  A    between atoms: O_24  and  C_25
REMARK   10  A    between atoms: S_26  and  C_29
REMARK   11  A    between atoms: C_32  and  C_35
REMARK   12  A    between atoms: C_35  and  O_37
REMARK   13  A    between atoms: O_37  and  C_38
REMARK                            x       y       z     vdW  Elec       q    Type
REMARK                         _______ _______ _______ _____ _____    ______ ____
ROOT
ATOM      1  N   UNL     1       2.326   1.159   9.063  0.00  0.00    -0.168 NA
ENDROOT
BRANCH   1   2
ATOM      2  S   UNL     1       3.961   1.080   8.807  0.00  0.00    +0.061 S 
ATOM      3  O   UNL     1       4.568   1.879   9.813  0.00  0.00    -0.153 OA
ATOM      4  O   UNL     1       4.278  -0.294   8.630  0.00  0.00    -0.153 OA
BRANCH   2   5
ATOM      5  C   UNL     1       4.286   1.875   7.268  0.00  0.00    +0.106 A 
ATOM      6  C   UNL     1       4.279   1.137   6.098  0.00  0.00    +0.029 A 
ATOM      7  C   UNL     1       4.528   1.754   4.889  0.00  0.00    +0.017 A 
ATOM      8  C   UNL     1       4.798   3.123   4.850  0.00  0.00    +0.059 A 
ATOM      9  C   UNL     1       4.809   3.860   6.036  0.00  0.00    +0.017 A 
ATOM     10  C   UNL     1       4.553   3.232   7.237  0.00  0.00    +0.029 A 
BRANCH   8  11
ATOM     11  C   UNL     1       5.070   3.789   3.560  0.00  0.00    +0.339 C 
ATOM     12  O   UNL     1       5.304   4.981   3.529  0.00  0.00    -0.245 OA
BRANCH  11  13
ATOM     13  O   UNL     1       5.059   3.075   2.418  0.00  0.00    -0.464 OA
ATOM     14  C   UNL     1       5.336   3.795   1.187  0.00  0.00    +0.280 C 
ENDBRANCH  11  13
ENDBRANCH   8  11
ENDBRANCH   2   5
ENDBRANCH   1   2
BRANCH   1  15
ATOM     15  C   UNL     1       1.751   2.300   9.779  0.00  0.00    +0.145 C 
BRANCH  15  19
ATOM     16  C   UNL     1       1.322   1.318  13.916  0.00  0.00    +0.120 A 
ATOM     17  C   UNL     1       2.496   1.899  13.458  0.00  0.00    +0.046 A 
ATOM     18  C   UNL     1       2.632   2.216  12.120  0.00  0.00    +0.008 A 
ATOM     19  C   UNL     1       1.600   1.954  11.238  0.00  0.00    -0.031 A 
ATOM     20  C   UNL     1       0.427   1.380  11.693  0.00  0.00    +0.008 A 
ATOM     21  C   UNL     1       0.288   1.056  13.028  0.00  0.00    +0.046 A 
BRANCH  16  23
ATOM     22  C   UNL     1      -0.050   0.409  15.632  0.00  0.00    +0.277 C 
ATOM     23  O   UNL     1       1.186   1.005  15.231  0.00  0.00    -0.495 OA
ENDBRANCH  16  23
ENDBRANCH  15  19
ENDBRANCH   1  15
BRANCH   1  24
ATOM     24  C   UNL     1       1.456   0.087   8.574  0.00  0.00    +0.150 C 
BRANCH  24  25
ATOM     25  C   UNL     1       0.900   0.467   7.226  0.00  0.00    +0.033 A 
ATOM     26  C   UNL     1       1.518   0.041   6.095  0.00  0.00    +0.020 A 
ATOM     27  C   UNL     1       0.954   0.428   4.802  0.00  0.00    -0.001 A 
ATOM     28  C   UNL     1       1.548   0.018   3.603  0.00  0.00    +0.013 A 
ATOM     29  C   UNL     1       0.996   0.389   2.411  0.00  0.00    +0.046 A 
ATOM     30  C   UNL     1      -0.149   1.183   2.378  0.00  0.00    +0.122 A 
ATOM     31  C   UNL     1      -0.752   1.598   3.553  0.00  0.00    +0.072 A 
ATOM     32  C   UNL     1      -0.207   1.225   4.775  0.00  0.00    +0.053 A 
ATOM     33  N   UNL     1      -0.787   1.624   5.961  0.00  0.00    -0.322 N 
ATOM     34  H   UNL     1      -1.612   2.190   5.941  0.00  0.00    +0.169 HD
ATOM     35  C   UNL     1      -0.260   1.265   7.144  0.00  0.00    +0.254 A 
ATOM     36  O   UNL     1      -0.798   1.637   8.173  0.00  0.00    -0.268 OA
BRANCH  30  37
ATOM     37  O   UNL     1      -0.682   1.547   1.184  0.00  0.00    -0.495 OA
ATOM     38  C   UNL     1      -0.013   1.086   0.008  0.00  0.00    +0.277 C 
ENDBRANCH  30  37
ENDBRANCH  24  25
ENDBRANCH   1  24
TORSDOF 10
