REMARK  Name = ZINC44321191
REMARK  10 active torsions:
REMARK  status: ('A' for Active; 'I' for Inactive)
REMARK    1  A    between atoms: C_4  and  C_7
REMARK    2  A    between atoms: C_7  and  O_8
REMARK    3  A    between atoms: O_8  and  C_9
REMARK    4  A    between atoms: C_14  and  C_17
REMARK    5  A    between atoms: C_17  and  CA_18
REMARK    6  A    between atoms: CA_18  and  C_20
REMARK    7  A    between atoms: CA_18  and  N_23
REMARK    8  A    between atoms: C_24  and  O_26
REMARK    9  A    between atoms: O_26  and  C_27
REMARK   10  A    between atoms: C_27  and  C_28
REMARK                            x       y       z     vdW  Elec       q    Type
REMARK                         _______ _______ _______ _____ _____    ______ ____
ROOT
ATOM      1  CA  UNL     1       9.177  -4.061   4.647  0.00  0.00    +0.189 C 
ENDROOT
BRANCH   1   2
ATOM      2  N   UNL     1       9.341  -4.021   3.191  0.00  0.00    -0.268 N 
ATOM      3  C   UNL     1      10.492  -3.569   2.655  0.00  0.00    +0.401 C 
ATOM      4  O   UNL     1      11.393  -3.195   3.379  0.00  0.00    -0.226 OA
ATOM      5  H   UNL     1       8.621  -4.319   2.614  0.00  0.00    +0.153 HD
BRANCH   3   6
ATOM      6  O   UNL     1      10.642  -3.532   1.318  0.00  0.00    -0.449 OA
BRANCH   6   7
ATOM      7  C   UNL     1      11.888  -3.041   0.819  0.00  0.00    +0.246 C 
BRANCH   7   8
ATOM      8  C   UNL     1      11.873  -3.074  -0.711  0.00  0.00    +0.088 C 
ATOM      9  C   UNL     1      11.874  -4.502  -1.200  0.00  0.00    -0.029 A 
ATOM     10  C   UNL     1      10.987  -5.542  -1.021  0.00  0.00    +0.005 A 
ATOM     11  C   UNL     1      11.239  -6.775  -1.596  0.00  0.00    +0.000 A 
ATOM     12  C   UNL     1      12.382  -6.966  -2.351  0.00  0.00    +0.001 A 
ATOM     13  C   UNL     1      13.275  -5.931  -2.536  0.00  0.00    +0.009 A 
ATOM     14  C   UNL     1      13.026  -4.684  -1.959  0.00  0.00    -0.014 A 
ATOM     15  C   UNL     1      13.801  -3.419  -1.994  0.00  0.00    -0.014 A 
ATOM     16  C   UNL     1      13.132  -2.446  -1.257  0.00  0.00    -0.029 A 
ATOM     17  C   UNL     1      13.659  -1.177  -1.140  0.00  0.00    +0.005 A 
ATOM     18  C   UNL     1      14.858  -0.866  -1.757  0.00  0.00    +0.000 A 
ATOM     19  C   UNL     1      15.530  -1.826  -2.493  0.00  0.00    +0.001 A 
ATOM     20  C   UNL     1      15.010  -3.098  -2.614  0.00  0.00    +0.009 A 
ENDBRANCH   7   8
ENDBRANCH   6   7
ENDBRANCH   3   6
ENDBRANCH   1   2
BRANCH   1  21
ATOM     21  C   UNL     1       9.761  -5.342   5.183  0.00  0.00    +0.376 C 
ATOM     22  O   UNL     1       9.764  -6.347   4.492  0.00  0.00    -0.244 OA
ATOM     23  OXT UNL     1      10.231  -5.375   6.307  0.00  0.00    -0.244 OA
ENDBRANCH   1  21
BRANCH   1  24
ATOM     24  C   UNL     1       7.688  -3.994   4.994  0.00  0.00    +0.039 C 
BRANCH  24  30
ATOM     25  C   UNL     1       5.308  -1.599   1.465  0.00  0.00    +0.403 C 
ATOM     26  O   UNL     1       5.944  -1.955   0.493  0.00  0.00    -0.226 OA
ATOM     27  N   UNL     1       5.770  -1.857   2.704  0.00  0.00    -0.267 N 
ATOM     28  C   UNL     1       5.101  -1.488   3.965  0.00  0.00    +0.111 C 
ATOM     29  C   UNL     1       5.646  -2.492   5.012  0.00  0.00    +0.024 C 
ATOM     30  C   UNL     1       7.123  -2.640   4.561  0.00  0.00    +0.010 C 
ATOM     31  C   UNL     1       7.023  -2.557   3.023  0.00  0.00    +0.114 C 
BRANCH  25  32
ATOM     32  O   UNL     1       4.141  -0.946   1.304  0.00  0.00    -0.445 OA
BRANCH  32  33
ATOM     33  C   UNL     1       3.711  -0.707  -0.038  0.00  0.00    +0.269 C 
BRANCH  33  37
ATOM     34  C   UNL     1      -0.017   1.378   0.010  0.00  0.00    +0.000 A 
ATOM     35  C   UNL     1       1.171   2.086   0.002  0.00  0.00    +0.000 A 
ATOM     36  C   UNL     1       2.377   1.411  -0.013  0.00  0.00    +0.007 A 
ATOM     37  C   UNL     1       2.396   0.029  -0.020  0.00  0.00    -0.010 A 
ATOM     38  C   UNL     1       1.208  -0.679  -0.012  0.00  0.00    +0.007 A 
ATOM     39  C   UNL     1       0.002  -0.004   0.002  0.00  0.00    +0.000 A 
ENDBRANCH  33  37
ENDBRANCH  32  33
ENDBRANCH  25  32
ENDBRANCH  24  30
ENDBRANCH   1  24
TORSDOF 10
