REMARK  Name = ZINC01097094
REMARK  5 active torsions:
REMARK  status: ('A' for Active; 'I' for Inactive)
REMARK    1  A    between atoms: C_1  and  N_2
REMARK    2  A    between atoms: C_6  and  C_13
REMARK    3  A    between atoms: N_9  and  C_12
REMARK    4  A    between atoms: N_14  and  N_15
REMARK    5  A    between atoms: C_16  and  C_18
REMARK                            x       y       z     vdW  Elec       q    Type
REMARK                         _______ _______ _______ _____ _____    ______ ____
ROOT
ATOM      1  C   UNL     1      -3.864  -4.074  -0.001  0.00  0.00    +0.138 C 
ATOM      2  N   UNL     1      -5.141  -3.838   0.007  0.00  0.00    -0.187 NA
ENDROOT
BRANCH   1   8
ATOM      3  C   UNL     1      -0.018   1.461   0.010  0.00  0.00    +0.154 C 
ATOM      4  N   UNL     1       0.002  -0.004   0.002  0.00  0.00    -0.295 N 
ATOM      5  C   UNL     1      -1.116  -0.833   0.003  0.00  0.00    +0.070 A 
ATOM      6  C   UNL     1      -2.482  -0.585   0.010  0.00  0.00    +0.028 A 
ATOM      7  C   UNL     1      -3.374  -1.634   0.009  0.00  0.00    +0.011 A 
ATOM      8  C   UNL     1      -2.908  -2.953  -0.000  0.00  0.00    -0.003 A 
ATOM      9  C   UNL     1      -1.535  -3.206  -0.008  0.00  0.00    +0.037 A 
ATOM     10  C   UNL     1      -0.642  -2.149  -0.007  0.00  0.00    +0.070 A 
ATOM     11  N   UNL     1       0.749  -2.075  -0.013  0.00  0.00    -0.295 N 
ATOM     12  C   UNL     1       1.105  -0.776  -0.013  0.00  0.00    +0.330 A 
ATOM     13  O   UNL     1       2.249  -0.363  -0.023  0.00  0.00    -0.246 OA
ATOM     14  C   UNL     1       1.669  -3.216  -0.023  0.00  0.00    +0.154 C 
ENDBRANCH   1   8
BRANCH   2  15
ATOM     15  N   UNL     1      -6.050  -4.904   0.007  0.00  0.00    -0.200 N 
ATOM     16  C   UNL     1      -7.376  -4.659   0.015  0.00  0.00    +0.299 C 
ATOM     17  O   UNL     1      -7.782  -3.512   0.023  0.00  0.00    -0.265 OA
ATOM     18  H   UNL     1      -5.726  -5.818   0.000  0.00  0.00    +0.178 HD
BRANCH  16  19
ATOM     19  C   UNL     1      -8.329  -5.776   0.014  0.00  0.00    +0.192 A 
ATOM     20  C   UNL     1      -9.682  -5.650   0.017  0.00  0.00    +0.063 A 
ATOM     21  C   UNL     1     -10.216  -7.011   0.014  0.00  0.00    +0.022 A 
ATOM     22  C   UNL     1     -11.504  -7.551   0.015  0.00  0.00    +0.027 A 
ATOM     23  C   UNL     1     -11.670  -8.908   0.013  0.00  0.00    +0.019 A 
ATOM     24  C   UNL     1     -10.566  -9.752   0.009  0.00  0.00    +0.019 A 
ATOM     25  C   UNL     1      -9.287  -9.238   0.008  0.00  0.00    +0.048 A 
ATOM     26  C   UNL     1      -9.094  -7.861   0.011  0.00  0.00    +0.136 A 
ATOM     27  O   UNL     1      -7.994  -7.083   0.005  0.00  0.00    -0.450 OA
ATOM     28 BR   UNL     1     -13.412  -9.643   0.015  0.00  0.00    -0.050 Br
ENDBRANCH  16  19
ENDBRANCH   2  15
TORSDOF 3
