REMARK  Name = ZINC10963232
REMARK  11 active torsions:
REMARK  status: ('A' for Active; 'I' for Inactive)
REMARK    1  A    between atoms: C_1  and  C_2
REMARK    2  A    between atoms: C_2  and  O_3
REMARK    3  A    between atoms: O_3  and  C_4
REMARK    4  A    between atoms: C_7  and  C_10
REMARK    5  A    between atoms: C_13  and  S_16
REMARK    6  A    between atoms: N_14  and  N_15
REMARK    7  A    between atoms: S_16  and  C_17
REMARK    8  A    between atoms: C_17  and  C_18
REMARK    9  A    between atoms: N_20  and  C_21
REMARK   10  A    between atoms: N_20  and  C_28
REMARK   11  A    between atoms: C_21  and  C_22
REMARK                            x       y       z     vdW  Elec       q    Type
REMARK                         _______ _______ _______ _____ _____    ______ ____
ROOT
ATOM      1  S   UNL     1      -3.504   0.342   1.092  0.00  0.00    -0.075 S 
ENDROOT
BRANCH   1   5
ATOM      2  C   UNL     1      -6.884   1.690   2.516  0.00  0.00    +0.182 A 
ATOM      3  N   UNL     1      -6.348   2.762   1.981  0.00  0.00    -0.127 NA
ATOM      4  N   UNL     1      -5.207   2.472   1.466  0.00  0.00    -0.121 NA
ATOM      5  C   UNL     1      -4.948   1.195   1.633  0.00  0.00    +0.209 A 
ATOM      6  N   UNL     1      -6.003   0.653   2.310  0.00  0.00    -0.224 N 
BRANCH   2  10
ATOM      7  C   UNL     1     -10.630   1.464   4.510  0.00  0.00    +0.121 A 
ATOM      8  C   UNL     1      -9.696   0.449   4.673  0.00  0.00    +0.046 A 
ATOM      9  C   UNL     1      -8.479   0.519   4.028  0.00  0.00    +0.015 A 
ATOM     10  C   UNL     1      -8.187   1.611   3.209  0.00  0.00    +0.021 A 
ATOM     11  C   UNL     1      -9.127   2.631   3.051  0.00  0.00    +0.015 A 
ATOM     12  C   UNL     1     -10.343   2.552   3.696  0.00  0.00    +0.046 A 
BRANCH   7  13
ATOM     13  O   UNL     1     -11.827   1.392   5.147  0.00  0.00    -0.492 OA
BRANCH  13  15
ATOM     14  C   UNL     1     -14.024   2.215   5.728  0.00  0.00    +0.048 C 
ATOM     15  C   UNL     1     -12.741   2.470   4.935  0.00  0.00    +0.225 C 
ENDBRANCH  13  15
ENDBRANCH   7  13
ENDBRANCH   2  10
BRANCH   6  16
ATOM     16  N   UNL     1      -6.154  -0.648   2.700  0.00  0.00    -0.295 N 
ATOM     17  H   UNL     1      -5.854  -0.776   3.655  0.00  0.00    +0.163 HD
ATOM     18  H   UNL     1      -7.107  -0.955   2.576  0.00  0.00    +0.163 HD
ENDBRANCH   6  16
ENDBRANCH   1   5
BRANCH   1  19
ATOM     19  C   UNL     1      -2.611   1.704   0.303  0.00  0.00    +0.173 C 
BRANCH  19  20
ATOM     20  C   UNL     1      -1.305   1.195  -0.250  0.00  0.00    +0.230 C 
ATOM     21  O   UNL     1      -1.046   0.012  -0.201  0.00  0.00    -0.274 OA
ATOM     22  N   UNL     1      -0.428   2.055  -0.805  0.00  0.00    -0.266 N 
BRANCH  22  23
ATOM     23  C   UNL     1      -0.765   3.405  -0.946  0.00  0.00    +0.037 A 
ATOM     24  C   UNL     1      -1.733   3.788  -1.865  0.00  0.00    +0.023 A 
ATOM     25  C   UNL     1      -2.069   5.122  -1.997  0.00  0.00    +0.002 A 
ATOM     26  C   UNL     1      -1.433   6.076  -1.225  0.00  0.00    +0.000 A 
ATOM     27  C   UNL     1      -0.464   5.699  -0.313  0.00  0.00    +0.002 A 
ATOM     28  C   UNL     1      -0.129   4.366  -0.171  0.00  0.00    +0.023 A 
ENDBRANCH  22  23
BRANCH  22  29
ATOM     29  C   UNL     1       0.880   1.575  -1.260  0.00  0.00    +0.148 C 
BRANCH  29  30
ATOM     30  C   UNL     1       0.782   1.140  -2.700  0.00  0.00    -0.030 A 
ATOM     31  C   UNL     1       0.459  -0.169  -3.006  0.00  0.00    +0.005 A 
ATOM     32  C   UNL     1       0.364  -0.567  -4.326  0.00  0.00    +0.000 A 
ATOM     33  C   UNL     1       0.602   0.342  -5.340  0.00  0.00    +0.000 A 
ATOM     34  C   UNL     1       0.930   1.649  -5.034  0.00  0.00    +0.000 A 
ATOM     35  C   UNL     1       1.020   2.049  -3.714  0.00  0.00    +0.005 A 
ENDBRANCH  29  30
ENDBRANCH  22  29
ENDBRANCH  19  20
ENDBRANCH   1  19
TORSDOF 10
