REMARK  Name = ZINC19221978
REMARK  7 active torsions:
REMARK  status: ('A' for Active; 'I' for Inactive)
REMARK    1  A    between atoms: C_1  and  C_2
REMARK    2  A    between atoms: C_7  and  C_14
REMARK    3  A    between atoms: C_14  and  C_16
REMARK    4  A    between atoms: C_14  and  N_27
REMARK    5  A    between atoms: N_20  and  C_21
REMARK    6  A    between atoms: N_30  and  C_33
REMARK    7  A    between atoms: C_33  and  C_34
REMARK                            x       y       z     vdW  Elec       q    Type
REMARK                         _______ _______ _______ _____ _____    ______ ____
ROOT
ATOM      1  C   UNL     1       4.959   1.184  -0.043  0.00  0.00    +0.162 C 
ENDROOT
BRANCH   1   8
ATOM      2  C   UNL     1      -2.558   3.851   0.049  0.00  0.00    +0.044 C 
ATOM      3  C   UNL     1      -1.233   3.134   0.032  0.00  0.00    -0.048 A 
ATOM      4  C   UNL     1      -1.203   1.746   0.017  0.00  0.00    +0.004 A 
ATOM      5  C   UNL     1      -0.013   1.076   0.008  0.00  0.00    +0.010 A 
ATOM      6  C   UNL     1       1.188   1.795   0.000  0.00  0.00    -0.001 A 
ATOM      7  C   UNL     1       2.481   1.109  -0.016  0.00  0.00    +0.021 A 
ATOM      8  C   UNL     1       3.611   1.858  -0.025  0.00  0.00    +0.042 A 
ATOM      9  C   UNL     1       3.530   3.267  -0.016  0.00  0.00    +0.254 A 
ATOM     10  O   UNL     1       4.558   3.921  -0.023  0.00  0.00    -0.268 OA
ATOM     11  N   UNL     1       2.347   3.906  -0.000  0.00  0.00    -0.322 N 
ATOM     12  H   UNL     1       2.315   5.005   0.006  0.00  0.00    +0.169 HD
ATOM     13  C   UNL     1       1.161   3.202   0.008  0.00  0.00    +0.049 A 
ATOM     14  C   UNL     1      -0.063   3.862   0.024  0.00  0.00    +0.029 A 
ENDBRANCH   1   8
BRANCH   1  15
ATOM     15  N   UNL     1       5.740   1.681  -1.183  0.00  0.00    -0.292 NA
ATOM     16  C   UNL     1       5.015   1.482  -2.445  0.00  0.00    +0.067 C 
ATOM     17  C   UNL     1       5.825   2.084  -3.596  0.00  0.00    -0.063 C 
ATOM     18  N   UNL     1       7.149   1.447  -3.646  0.00  0.00    +0.386 N 
ATOM     19  C   UNL     1       7.873   1.646  -2.383  0.00  0.00    -0.063 C 
ATOM     20  C   UNL     1       7.064   1.044  -1.232  0.00  0.00    +0.067 C 
ATOM     21  H   UNL     1       7.000   0.366  -3.786  0.00  0.00    -0.081 HD
BRANCH  18  22
ATOM     22  C   UNL     1       7.930   1.945  -4.786  0.00  0.00    -0.003 C 
BRANCH  22  23
ATOM     23  C   UNL     1       7.277   1.508  -6.072  0.00  0.00    +0.089 A 
ATOM     24  C   UNL     1       6.341   2.194  -6.752  0.00  0.00    +0.042 A 
ATOM     25  C   UNL     1       6.012   1.421  -7.889  0.00  0.00    +0.041 A 
ATOM     26  C   UNL     1       6.766   0.309  -7.836  0.00  0.00    +0.195 A 
ATOM     27  O   UNL     1       7.535   0.369  -6.736  0.00  0.00    -0.470 OA
ENDBRANCH  22  23
ENDBRANCH  18  22
ENDBRANCH   1  15
BRANCH   1  28
ATOM     28  C   UNL     1       5.690   1.489   1.239  0.00  0.00    +0.173 A 
ATOM     29  N   UNL     1       6.266   2.621   1.561  0.00  0.00    -0.111 NA
ATOM     30  N   UNL     1       6.781   2.486   2.734  0.00  0.00    -0.023 NA
ATOM     31  N   UNL     1       6.549   1.297   3.169  0.00  0.00    -0.044 NA
ATOM     32  N   UNL     1       5.874   0.652   2.278  0.00  0.00    -0.224 N 
BRANCH  32  33
ATOM     33  C   UNL     1       5.401  -0.730   2.376  0.00  0.00    +0.111 C 
ATOM     34  C   UNL     1       4.464  -0.864   3.579  0.00  0.00    +0.027 C 
ATOM     35  C   UNL     1       3.970  -2.308   3.682  0.00  0.00    +0.002 C 
ATOM     36  C   UNL     1       5.166  -3.246   3.859  0.00  0.00    +0.000 C 
ATOM     37  C   UNL     1       6.102  -3.112   2.657  0.00  0.00    +0.002 C 
ATOM     38  C   UNL     1       6.597  -1.668   2.554  0.00  0.00    +0.027 C 
ENDBRANCH  32  33
ENDBRANCH   1  28
TORSDOF 6
