REMARK  Name = ZINC45788964
REMARK  7 active torsions:
REMARK  status: ('A' for Active; 'I' for Inactive)
REMARK    1  A    between atoms: C_1  and  C_2
REMARK    2  A    between atoms: C_2  and  C_3
REMARK    3  A    between atoms: C_3  and  C_4
REMARK    4  A    between atoms: C_4  and  C_5
REMARK    5  A    between atoms: C_5  and  C_6
REMARK    6  A    between atoms: C_23  and  O_29
REMARK    7  A    between atoms: C_26  and  O_28
REMARK                            x       y       z     vdW  Elec       q    Type
REMARK                         _______ _______ _______ _____ _____    ______ ____
ROOT
ATOM      1  C   UNL     1      -2.827  -4.123   0.007  0.00  0.00    +0.199 C 
ATOM      2  C   UNL     1      -4.217  -4.647   0.262  0.00  0.00    +0.013 C 
ATOM      3  C   UNL     1      -4.806  -4.421   1.408  0.00  0.00    -0.021 C 
ATOM      4  C   UNL     1      -4.110  -3.634   2.486  0.00  0.00    +0.046 C 
ATOM      5  C   UNL     1      -3.373  -4.587   3.432  0.00  0.00    +0.031 C 
ATOM      6  C   UNL     1      -3.213  -5.960   2.783  0.00  0.00    +0.033 C 
ATOM      7  C   UNL     1      -1.923  -6.586   3.254  0.00  0.00    -0.031 C 
ATOM      8  C   UNL     1      -1.267  -7.407   2.472  0.00  0.00    -0.031 C 
ATOM      9  C   UNL     1      -1.798  -7.731   1.099  0.00  0.00    +0.027 C 
ATOM     10  C   UNL     1      -0.737  -7.389   0.050  0.00  0.00    +0.015 C 
ATOM     11  C   UNL     1      -1.420  -6.866  -1.214  0.00  0.00    +0.121 C 
ATOM     12  C   UNL     1      -1.281  -5.367  -1.278  0.00  0.00    +0.308 C 
ATOM     13  O   UNL     1      -0.184  -4.865  -1.339  0.00  0.00    -0.251 OA
ATOM     14  O   UNL     1      -2.374  -4.588  -1.267  0.00  0.00    -0.457 OA
ATOM     15  C   UNL     1      -4.214  -4.708   4.712  0.00  0.00    +0.121 C 
ATOM     16  C   UNL     1      -5.292  -3.621   4.652  0.00  0.00    +0.063 C 
ATOM     17  C   UNL     1      -5.161  -2.880   3.317  0.00  0.00    +0.124 C 
ENDROOT
BRANCH  17  18
ATOM     18  O   UNL     1      -6.416  -2.882   2.634  0.00  0.00    -0.391 OA
ATOM     19  H   UNL     1      -7.122  -2.421   3.107  0.00  0.00    +0.210 HD
ENDBRANCH  17  18
BRANCH  15  20
ATOM     20  O   UNL     1      -4.823  -5.999   4.773  0.00  0.00    -0.391 OA
ATOM     21  H   UNL     1      -5.369  -6.140   5.559  0.00  0.00    +0.210 HD
ENDBRANCH  15  20
BRANCH   1  22
ATOM     22  C   UNL     1      -2.848  -2.593   0.015  0.00  0.00    +0.049 C 
BRANCH  22  23
ATOM     23  C   UNL     1      -1.413  -2.063  -0.035  0.00  0.00    +0.004 C 
BRANCH  23  24
ATOM     24  C   UNL     1      -1.434  -0.533  -0.026  0.00  0.00    -0.000 C 
BRANCH  24  26
ATOM     25  C   UNL     1      -0.021   1.526  -0.068  0.00  0.00    +0.004 C 
ATOM     26  C   UNL     1       0.000  -0.004  -0.077  0.00  0.00    -0.003 C 
ENDBRANCH  24  26
ENDBRANCH  23  24
ENDBRANCH  22  23
ENDBRANCH   1  22
TORSDOF 6
