REMARK  Name = ZINC08296988
REMARK  10 active torsions:
REMARK  status: ('A' for Active; 'I' for Inactive)
REMARK    1  A    between atoms: C_1  and  C_2
REMARK    2  A    between atoms: C_2  and  C_3
REMARK    3  A    between atoms: C_3  and  N_4
REMARK    4  A    between atoms: C_5  and  N_27
REMARK    5  A    between atoms: C_6  and  C_13
REMARK    6  A    between atoms: N_9  and  C_12
REMARK    7  A    between atoms: C_16  and  C_18
REMARK    8  A    between atoms: C_21  and  C_24
REMARK    9  A    between atoms: C_24  and  C_25
REMARK   10  A    between atoms: C_24  and  C_26
REMARK                            x       y       z     vdW  Elec       q    Type
REMARK                         _______ _______ _______ _____ _____    ______ ____
ROOT
ATOM      1  N   UNL     1       1.150   2.084  -0.150  0.00  0.00    -0.281 N 
ATOM      2  C   UNL     1      -0.013   1.367  -0.011  0.00  0.00    +0.115 A 
ATOM      3  C   UNL     1      -1.212   2.047   0.153  0.00  0.00    +0.103 A 
ATOM      4  C   UNL     1      -1.192   3.460   0.180  0.00  0.00    +0.267 A 
ATOM      5  O   UNL     1      -2.227   4.087   0.327  0.00  0.00    -0.267 OA
ATOM      6  N   UNL     1      -0.019   4.109   0.039  0.00  0.00    -0.263 N 
ATOM      7  C   UNL     1       1.129   3.429  -0.123  0.00  0.00    +0.333 A 
ATOM      8  O   UNL     1       2.171   4.042  -0.249  0.00  0.00    -0.246 OA
ATOM      9  C   UNL     1       0.005   5.574   0.061  0.00  0.00    +0.157 C 
ENDROOT
BRANCH   3  10
ATOM     10  C   UNL     1      -2.488   1.305   0.300  0.00  0.00    +0.087 A 
ATOM     11  C   UNL     1      -3.679   1.982   0.352  0.00  0.00    +0.075 A 
ATOM     12  S   UNL     1      -4.826   0.622   0.527  0.00  0.00    -0.075 S 
ATOM     13  C   UNL     1      -3.615  -0.693   0.521  0.00  0.00    +0.109 A 
ATOM     14  N   UNL     1      -2.487  -0.011   0.389  0.00  0.00    -0.239 NA
BRANCH  13  15
ATOM     15  C   UNL     1      -3.818  -2.153   0.634  0.00  0.00    +0.007 A 
ATOM     16  C   UNL     1      -2.722  -3.017   0.602  0.00  0.00    +0.011 A 
ATOM     17  C   UNL     1      -2.918  -4.378   0.712  0.00  0.00    +0.004 A 
ATOM     18  C   UNL     1      -4.198  -4.888   0.845  0.00  0.00    -0.045 A 
ATOM     19  C   UNL     1      -5.288  -4.036   0.874  0.00  0.00    +0.004 A 
ATOM     20  C   UNL     1      -5.106  -2.673   0.769  0.00  0.00    +0.011 A 
BRANCH  18  21
ATOM     21  C   UNL     1      -4.405  -6.376   0.959  0.00  0.00    +0.013 C 
ATOM     22  C   UNL     1      -3.859  -7.064  -0.294  0.00  0.00    +0.012 C 
ATOM     23  C   UNL     1      -3.666  -6.901   2.192  0.00  0.00    +0.012 C 
ENDBRANCH  18  21
ENDBRANCH  13  15
ENDBRANCH   3  10
BRANCH   2  24
ATOM     24  N   UNL     1       0.010  -0.003  -0.039  0.00  0.00    -0.344 N 
ATOM     25  H   UNL     1      -0.665  -0.509   0.441  0.00  0.00    +0.144 HD
ATOM     26  H   UNL     1       0.700  -0.467  -0.538  0.00  0.00    +0.144 HD
ENDBRANCH   2  24
BRANCH   1  27
ATOM     27  C   UNL     1       2.422   1.380  -0.329  0.00  0.00    +0.128 C 
BRANCH  27  29
ATOM     28  C   UNL     1       4.006   0.425  -2.008  0.00  0.00    +0.005 C 
ATOM     29  C   UNL     1       2.678   1.160  -1.821  0.00  0.00    +0.018 C 
ENDBRANCH  27  29
ENDBRANCH   1  27
TORSDOF 6
