REMARK  Name = ZINC60381743
REMARK  8 active torsions:
REMARK  status: ('A' for Active; 'I' for Inactive)
REMARK    1  A    between atoms: C_1  and  C_2
REMARK    2  A    between atoms: C_2  and  C_3
REMARK    3  A    between atoms: C_3  and  C_4
REMARK    4  A    between atoms: C_3  and  C_6
REMARK    5  A    between atoms: C_3  and  N_13
REMARK    6  A    between atoms: C_4  and  C_5
REMARK    7  A    between atoms: C_14  and  C_16
REMARK    8  A    between atoms: N_26  and  C_27
REMARK                            x       y       z     vdW  Elec       q    Type
REMARK                         _______ _______ _______ _____ _____    ______ ____
ROOT
ATOM      1  N   UNL     1       0.056  -0.038   2.447  0.00  0.00    -0.302 N 
ATOM      2  C   UNL     1      -1.227  -0.383   2.671  0.00  0.00    +0.245 C 
ATOM      3  O   UNL     1      -1.816  -1.085   1.872  0.00  0.00    -0.270 OA
ATOM      4  H   UNL     1       0.526   0.522   3.084  0.00  0.00    +0.150 HD
ENDROOT
BRANCH   2   5
ATOM      5  C   UNL     1      -1.918   0.093   3.884  0.00  0.00    +0.039 A 
ATOM      6  C   UNL     1      -1.242   0.905   4.799  0.00  0.00    +0.015 A 
ATOM      7  C   UNL     1      -1.887   1.352   5.933  0.00  0.00    +0.026 A 
ATOM      8  C   UNL     1      -3.206   0.994   6.165  0.00  0.00    +0.051 A 
ATOM      9  C   UNL     1      -3.889   0.178   5.257  0.00  0.00    +0.055 A 
ATOM     10  C   UNL     1      -3.250  -0.264   4.116  0.00  0.00    +0.038 A 
ATOM     11  N   UNL     1      -5.218  -0.181   5.515  0.00  0.00    -0.283 N 
ATOM     12  C   UNL     1      -5.933   0.466   6.456  0.00  0.00    +0.235 C 
ATOM     13  O   UNL     1      -7.068   0.113   6.695  0.00  0.00    -0.274 OA
ATOM     14  C   UNL     1      -5.336   1.623   7.215  0.00  0.00    +0.200 C 
ATOM     15  N   UNL     1      -3.880   1.440   7.304  0.00  0.00    -0.323 N 
ATOM     16  C   UNL     1      -3.159   1.715   8.549  0.00  0.00    +0.130 C 
ATOM     17  H   UNL     1      -5.628  -0.902   5.012  0.00  0.00    +0.155 HD
ENDBRANCH   2   5
BRANCH   1  18
ATOM     18  C   UNL     1       0.742  -0.511   1.242  0.00  0.00    +0.059 C 
BRANCH  18  19
ATOM     19  C   UNL     1       2.156   0.011   1.231  0.00  0.00    -0.024 A 
ATOM     20  C   UNL     1       2.791   0.262   0.029  0.00  0.00    +0.007 A 
ATOM     21  C   UNL     1       4.087   0.740   0.018  0.00  0.00    +0.020 A 
ATOM     22  C   UNL     1       4.750   0.968   1.211  0.00  0.00    +0.041 A 
ATOM     23  C   UNL     1       4.114   0.717   2.414  0.00  0.00    +0.020 A 
ATOM     24  C   UNL     1       2.816   0.243   2.423  0.00  0.00    +0.007 A 
ATOM     25 CL   UNL     1       6.379   1.568   1.199  0.00  0.00    -0.084 Cl
ENDBRANCH  18  19
BRANCH  18  27
ATOM     26  C   UNL     1      -0.019   1.526   0.010  0.00  0.00    +0.006 C 
ATOM     27  C   UNL     1       0.002  -0.004   0.002  0.00  0.00    +0.027 C 
ENDBRANCH  18  27
BRANCH  18  28
ATOM     28  C   UNL     1       0.763  -2.041   1.233  0.00  0.00    +0.027 C 
ATOM     29  C   UNL     1       1.392  -2.549   2.532  0.00  0.00    +0.006 C 
ENDBRANCH  18  28
ENDBRANCH   1  18
TORSDOF 5
