REMARK  Name = ZINC14797178
REMARK  7 active torsions:
REMARK  status: ('A' for Active; 'I' for Inactive)
REMARK    1  A    between atoms: C_8  and  C_10
REMARK    2  A    between atoms: C_11  and  C_12
REMARK    3  A    between atoms: N_14  and  C_15
REMARK    4  A    between atoms: C_15  and  C_16
REMARK    5  A    between atoms: C_16  and  C_17
REMARK    6  A    between atoms: C_20  and  S_23
REMARK    7  A    between atoms: S_23  and  N_26
REMARK                            x       y       z     vdW  Elec       q    Type
REMARK                         _______ _______ _______ _____ _____    ______ ____
ROOT
ATOM      1  C   UNL     1       1.128   3.524   0.010  0.00  0.00    +0.237 C 
ATOM      2  O   UNL     1       0.065   4.118   0.024  0.00  0.00    -0.271 OA
ATOM      3  N   UNL     1       2.286   4.214   0.003  0.00  0.00    -0.312 N 
ATOM      4  H   UNL     1       3.132   3.740  -0.008  0.00  0.00    +0.149 HD
ENDROOT
BRANCH   1   6
ATOM      5  C   UNL     1      -0.017   1.414   0.010  0.00  0.00    +0.021 C 
ATOM      6  C   UNL     1       1.147   2.107   0.002  0.00  0.00    +0.068 C 
BRANCH   5  14
ATOM      7  C   UNL     1      -1.378  -4.606  -0.009  0.00  0.00    +0.001 A 
ATOM      8  C   UNL     1      -0.034  -4.957  -0.024  0.00  0.00    +0.001 A 
ATOM      9  C   UNL     1       0.928  -3.966  -0.028  0.00  0.00    +0.016 A 
ATOM     10  C   UNL     1       0.541  -2.643  -0.017  0.00  0.00    +0.021 A 
ATOM     11  C   UNL     1      -0.821  -2.256  -0.002  0.00  0.00    +0.008 A 
ATOM     12  C   UNL     1      -1.775  -3.307   0.001  0.00  0.00    +0.010 A 
ATOM     13  C   UNL     1      -1.054  -0.869   0.007  0.00  0.00    +0.063 A 
ATOM     14  C   UNL     1       0.002  -0.004   0.002  0.00  0.00    +0.032 A 
ATOM     15  S   UNL     1       1.412  -1.097  -0.025  0.00  0.00    -0.087 S 
ATOM     16 CL   UNL     1      -2.679  -0.260   0.027  0.00  0.00    -0.082 Cl
ENDBRANCH   5  14
ENDBRANCH   1   6
BRANCH   3  17
ATOM     17  C   UNL     1       2.266   5.678   0.011  0.00  0.00    +0.109 C 
BRANCH  17  18
ATOM     18  C   UNL     1       3.701   6.208   0.000  0.00  0.00    +0.054 C 
BRANCH  18  19
ATOM     19  C   UNL     1       3.681   7.715   0.008  0.00  0.00    -0.046 A 
ATOM     20  C   UNL     1       3.666   8.412  -1.185  0.00  0.00    +0.005 A 
ATOM     21  C   UNL     1       3.643   9.795  -1.177  0.00  0.00    +0.029 A 
ATOM     22  C   UNL     1       3.644  10.479   0.024  0.00  0.00    +0.105 A 
ATOM     23  C   UNL     1       3.664   9.782   1.217  0.00  0.00    +0.029 A 
ATOM     24  C   UNL     1       3.683   8.399   1.209  0.00  0.00    +0.005 A 
BRANCH  22  25
ATOM     25  S   UNL     1       3.619  12.241   0.033  0.00  0.00    +0.056 S 
ATOM     26  O   UNL     1       3.051  12.646  -1.205  0.00  0.00    -0.153 OA
ATOM     27  O   UNL     1       3.073  12.633   1.286  0.00  0.00    -0.153 OA
BRANCH  25  28
ATOM     28  N   UNL     1       5.193  12.753   0.022  0.00  0.00    -0.204 NA
ATOM     29  H   UNL     1       5.426  13.597  -0.395  0.00  0.00    +0.144 HD
ATOM     30  H   UNL     1       5.883  12.209   0.433  0.00  0.00    +0.144 HD
ENDBRANCH  25  28
ENDBRANCH  22  25
ENDBRANCH  18  19
ENDBRANCH  17  18
ENDBRANCH   3  17
TORSDOF 7
