REMARK  Name = ZINC39631620
REMARK  11 active torsions:
REMARK  status: ('A' for Active; 'I' for Inactive)
REMARK    1  A    between atoms: C_1  and  C_2
REMARK    2  A    between atoms: C_2  and  C_4
REMARK    3  A    between atoms: C_2  and  N_11
REMARK    4  A    between atoms: C_4  and  C_5
REMARK    5  A    between atoms: C_5  and  C_6
REMARK    6  A    between atoms: C_6  and  C_7
REMARK    7  A    between atoms: C_7  and  C_8
REMARK    8  A    between atoms: C_7  and  C_9
REMARK    9  A    between atoms: C_7  and  O_10
REMARK   10  A    between atoms: C_12  and  C_14
REMARK   11  A    between atoms: C_25  and  C_27
REMARK                            x       y       z     vdW  Elec       q    Type
REMARK                         _______ _______ _______ _____ _____    ______ ____
ROOT
ATOM      1  C   UNL     1       1.111  -0.824   4.026  0.00  0.00    +0.100 C 
ATOM      2  C   UNL     1       1.415  -2.287   3.630  0.00  0.00    +0.121 C 
ATOM      3  N   UNL     1       1.113  -3.075   4.848  0.00  0.00    -0.296 N 
ATOM      4  C   UNL     1      -0.106  -2.441   5.404  0.00  0.00    +0.115 C 
ATOM      5  C   UNL     1       0.113  -0.930   5.190  0.00  0.00    -0.004 C 
ATOM      6  C   UNL     1       0.700  -0.298   6.449  0.00  0.00    -0.010 C 
ATOM      7  C   UNL     1      -0.333  -0.365   7.577  0.00  0.00    -0.082 C 
ATOM      8  N   UNL     1      -1.551   0.347   7.171  0.00  0.00    +0.379 N 
ATOM      9  C   UNL     1      -2.160  -0.323   6.015  0.00  0.00    -0.082 C 
ATOM     10  C   UNL     1      -1.204  -0.255   4.821  0.00  0.00    -0.010 C 
ATOM     11  C   UNL     1       1.794  -4.130   5.338  0.00  0.00    +0.248 C 
ATOM     12  O   UNL     1       1.365  -4.735   6.301  0.00  0.00    -0.270 OA
ATOM     13  H   UNL     1      -2.207   0.354   7.938  0.00  0.00    -0.086 HD
ATOM     14  H   UNL     1      -1.317   1.296   6.923  0.00  0.00    -0.086 HD
ENDROOT
BRANCH  11  15
ATOM     15  C   UNL     1       3.061  -4.551   4.705  0.00  0.00    +0.057 A 
ATOM     16  C   UNL     1       3.220  -4.453   3.321  0.00  0.00    +0.014 A 
ATOM     17  C   UNL     1       4.405  -4.848   2.736  0.00  0.00    +0.002 A 
ATOM     18  C   UNL     1       5.436  -5.341   3.517  0.00  0.00    +0.021 A 
ATOM     19  C   UNL     1       5.287  -5.442   4.889  0.00  0.00    +0.060 A 
ATOM     20  C   UNL     1       4.107  -5.044   5.489  0.00  0.00    +0.071 A 
ATOM     21 CL   UNL     1       3.922  -5.163   7.211  0.00  0.00    -0.081 Cl
ATOM     22 CL   UNL     1       6.586  -6.062   5.858  0.00  0.00    -0.082 Cl
ENDBRANCH  11  15
BRANCH   1  24
ATOM     23  N   UNL     1       0.672   1.244   2.743  0.00  0.00    -0.312 N 
ATOM     24  C   UNL     1       0.491  -0.085   2.868  0.00  0.00    +0.218 C 
ATOM     25  O   UNL     1      -0.171  -0.687   2.049  0.00  0.00    -0.275 OA
ATOM     26  H   UNL     1       1.202   1.726   3.397  0.00  0.00    +0.149 HD
BRANCH  23  28
ATOM     27  C   UNL     1      -1.371   2.341   1.967  0.00  0.00    +0.028 C 
ATOM     28  C   UNL     1       0.070   1.963   1.617  0.00  0.00    +0.070 C 
BRANCH  28  29
ATOM     29  C   UNL     1       0.875   3.232   1.333  0.00  0.00    +0.022 C 
BRANCH  29  30
ATOM     30  C   UNL     1       2.280   2.850   0.863  0.00  0.00    +0.005 C 
BRANCH  30  31
ATOM     31  C   UNL     1       3.085   4.120   0.578  0.00  0.00    +0.034 C 
BRANCH  31  32
ATOM     32  C   UNL     1       4.490   3.738   0.108  0.00  0.00    +0.061 C 
ATOM     33  C   UNL     1       5.334   5.003  -0.057  0.00  0.00    +0.041 C 
ATOM     34  C   UNL     1       5.143   2.821   1.145  0.00  0.00    +0.041 C 
BRANCH  32  35
ATOM     35  O   UNL     1       4.404   3.055  -1.145  0.00  0.00    -0.389 OA
ATOM     36  H   UNL     1       4.000   3.578  -1.850  0.00  0.00    +0.210 HD
ENDBRANCH  32  35
ENDBRANCH  31  32
ENDBRANCH  30  31
ENDBRANCH  29  30
ENDBRANCH  28  29
ENDBRANCH  23  28
ENDBRANCH   1  24
TORSDOF 8
