REMARK  Name = ZINC16431371
REMARK  5 active torsions:
REMARK  status: ('A' for Active; 'I' for Inactive)
REMARK    1  A    between atoms: C_6  and  S_7
REMARK    2  A    between atoms: S_7  and  N_10
REMARK    3  A    between atoms: C_16  and  N_19
REMARK    4  A    between atoms: N_20  and  C_21
REMARK    5  A    between atoms: C_24  and  O_29
REMARK                            x       y       z     vdW  Elec       q    Type
REMARK                         _______ _______ _______ _____ _____    ______ ____
ROOT
ATOM      1  C   UNL     1      -1.245   3.130   0.031  0.00  0.00    +0.030 A 
ATOM      2  C   UNL     1      -0.120   3.881   0.024  0.00  0.00    +0.031 A 
ATOM      3  C   UNL     1       1.162   3.255   0.008  0.00  0.00    +0.082 A 
ATOM      4  C   UNL     1       1.202   1.798   0.000  0.00  0.00    +0.038 A 
ATOM      5  C   UNL     1      -0.013   1.076   0.008  0.00  0.00    +0.041 A 
ATOM      6  C   UNL     1      -1.198   1.737   0.017  0.00  0.00    +0.106 A 
ATOM      7  C   UNL     1       2.533   1.313  -0.015  0.00  0.00    +0.151 A 
ATOM      8  S   UNL     1       3.466   2.764  -0.016  0.00  0.00    +0.034 S 
ATOM      9  N   UNL     1       2.348   3.862  -0.000  0.00  0.00    -0.208 NA
ENDROOT
BRANCH   6  10
ATOM     10  S   UNL     1      -2.701   0.819   0.019  0.00  0.00    +0.061 S 
ATOM     11  O   UNL     1      -3.700   1.674  -0.522  0.00  0.00    -0.153 OA
ATOM     12  O   UNL     1      -2.402  -0.452  -0.540  0.00  0.00    -0.153 OA
BRANCH  10  13
ATOM     13  N   UNL     1      -3.112   0.556   1.602  0.00  0.00    -0.172 NA
ATOM     14  C   UNL     1      -2.647  -0.645   2.315  0.00  0.00    +0.137 C 
ATOM     15  C   UNL     1      -2.016  -0.199   3.643  0.00  0.00    +0.177 C 
ATOM     16  O   UNL     1      -2.940   0.638   4.344  0.00  0.00    -0.377 OA
ATOM     17  C   UNL     1      -3.266   1.850   3.661  0.00  0.00    +0.177 C 
ATOM     18  C   UNL     1      -3.957   1.512   2.335  0.00  0.00    +0.137 C 
ENDBRANCH  10  13
ENDBRANCH   6  10
BRANCH   7  19
ATOM     19  N   UNL     1       2.962   0.037  -0.025  0.00  0.00    -0.140 NA
ATOM     20  N   UNL     1       4.227  -0.218  -0.038  0.00  0.00    -0.147 NA
BRANCH  20  21
ATOM     21  C   UNL     1       4.662  -1.510  -0.048  0.00  0.00    +0.106 A 
ATOM     22  C   UNL     1       3.739  -2.562  -0.038  0.00  0.00    +0.035 A 
ATOM     23  C   UNL     1       4.183  -3.865  -0.054  0.00  0.00    +0.049 A 
ATOM     24  C   UNL     1       5.545  -4.139  -0.068  0.00  0.00    +0.137 A 
ATOM     25  C   UNL     1       6.468  -3.099  -0.072  0.00  0.00    +0.103 A 
ATOM     26  C   UNL     1       6.034  -1.789  -0.062  0.00  0.00    +0.090 A 
ATOM     27 CL   UNL     1       7.186  -0.491  -0.068  0.00  0.00    -0.080 Cl
ATOM     28 CL   UNL     1       8.168  -3.449  -0.089  0.00  0.00    -0.078 Cl
BRANCH  24  29
ATOM     29  O   UNL     1       5.977  -5.426  -0.078  0.00  0.00    -0.505 OA
ATOM     30  H   UNL     1       6.111  -5.803   0.803  0.00  0.00    +0.292 HD
ENDBRANCH  24  29
ENDBRANCH  20  21
ENDBRANCH   7  19
TORSDOF 5
