REMARK  Name = ZINC06443936
REMARK  9 active torsions:
REMARK  status: ('A' for Active; 'I' for Inactive)
REMARK    1  A    between atoms: C_1  and  C_2
REMARK    2  A    between atoms: C_12  and  C_14
REMARK    3  A    between atoms: C_14  and  C_16
REMARK    4  A    between atoms: C_14  and  N_67
REMARK    5  A    between atoms: N_20  and  C_21
REMARK    6  A    between atoms: C_26  and  C_27
REMARK    7  A    between atoms: C_26  and  N_67
REMARK    8  A    between atoms: C_33  and  C_34
REMARK    9  A    between atoms: C_33  and  N_67
REMARK                            x       y       z     vdW  Elec       q    Type
REMARK                         _______ _______ _______ _____ _____    ______ ____
ROOT
ATOM      1  C   UNL     1      -0.134  -2.739   4.950  0.00  0.00    +0.040 C 
ENDROOT
BRANCH   1  13
ATOM      2  C   UNL     1      -1.393   2.939   1.889  0.00  0.00    +0.046 C 
ATOM      3  C   UNL     1      -1.274   1.532   1.365  0.00  0.00    -0.026 A 
ATOM      4  C   UNL     1      -1.446   1.276   0.021  0.00  0.00    +0.005 A 
ATOM      5  C   UNL     1      -1.332  -0.015  -0.475  0.00  0.00    +0.001 A 
ATOM      6  C   UNL     1      -1.060  -1.060   0.362  0.00  0.00    +0.010 A 
ATOM      7  C   UNL     1      -0.887  -0.826   1.730  0.00  0.00    -0.001 A 
ATOM      8  C   UNL     1      -0.995   0.484   2.236  0.00  0.00    +0.052 A 
ATOM      9  N   UNL     1      -0.824   0.709   3.585  0.00  0.00    -0.322 N 
ATOM     10  H   UNL     1      -0.898   1.612   3.932  0.00  0.00    +0.169 HD
ATOM     11  C   UNL     1      -0.555  -0.304   4.427  0.00  0.00    +0.251 A 
ATOM     12  O   UNL     1      -0.410  -0.068   5.614  0.00  0.00    -0.268 OA
ATOM     13  C   UNL     1      -0.437  -1.634   3.971  0.00  0.00    +0.011 A 
ATOM     14  C   UNL     1      -0.593  -1.922   2.655  0.00  0.00    +0.017 A 
ENDBRANCH   1  13
BRANCH   1  15
ATOM     15  C   UNL     1      -1.306  -2.921   5.880  0.00  0.00    +0.143 A 
ATOM     16  N   UNL     1      -1.645  -2.138   6.875  0.00  0.00    -0.115 NA
ATOM     17  N   UNL     1      -2.700  -2.630   7.427  0.00  0.00    -0.023 NA
ATOM     18  N   UNL     1      -3.043  -3.706   6.810  0.00  0.00    -0.044 NA
ATOM     19  N   UNL     1      -2.212  -3.917   5.846  0.00  0.00    -0.227 N 
BRANCH  19  20
ATOM     20  C   UNL     1      -2.244  -5.032   4.896  0.00  0.00    +0.111 C 
ATOM     21  C   UNL     1      -3.590  -5.044   4.143  0.00  0.00    +0.027 C 
ATOM     22  C   UNL     1      -3.922  -6.549   3.985  0.00  0.00    +0.002 C 
ATOM     23  C   UNL     1      -3.441  -7.149   5.330  0.00  0.00    +0.002 C 
ATOM     24  C   UNL     1      -2.149  -6.370   5.651  0.00  0.00    +0.027 C 
ENDBRANCH  19  20
ENDBRANCH   1  15
BRANCH   1  25
ATOM     25  N   UNL     1       1.056  -2.363   5.742  0.00  0.00    +0.395 N 
ATOM     26  H   UNL     1       0.900  -1.438   6.160  0.00  0.00    -0.079 HD
BRANCH  25  27
ATOM     27  C   UNL     1       2.246  -2.300   4.867  0.00  0.00    -0.041 C 
BRANCH  27  28
ATOM     28  C   UNL     1       2.528  -3.651   4.261  0.00  0.00    -0.064 A 
ATOM     29  C   UNL     1       3.339  -4.551   4.926  0.00  0.00    +0.002 A 
ATOM     30  C   UNL     1       3.594  -5.792   4.373  0.00  0.00    +0.000 A 
ATOM     31  C   UNL     1       3.046  -6.129   3.149  0.00  0.00    +0.000 A 
ATOM     32  C   UNL     1       2.240  -5.226   2.481  0.00  0.00    +0.000 A 
ATOM     33  C   UNL     1       1.981  -3.987   3.037  0.00  0.00    +0.002 A 
ENDBRANCH  27  28
ENDBRANCH  25  27
BRANCH  25  34
ATOM     34  C   UNL     1       1.275  -3.348   6.822  0.00  0.00    -0.034 C 
BRANCH  34  35
ATOM     35  C   UNL     1       2.242  -2.764   7.820  0.00  0.00    -0.027 A 
ATOM     36  C   UNL     1       1.996  -1.927   8.858  0.00  0.00    +0.009 A 
ATOM     37  C   UNL     1       3.051  -1.516   9.652  0.00  0.00    +0.008 A 
ATOM     38  C   UNL     1       4.299  -1.961   9.368  0.00  0.00    +0.045 A 
ATOM     39  S   UNL     1       4.007  -3.000   7.946  0.00  0.00    -0.103 S 
ENDBRANCH  34  35
ENDBRANCH  25  34
ENDBRANCH   1  25
TORSDOF 8
