REMARK  Name = ZINC04758392
REMARK  11 active torsions:
REMARK  status: ('A' for Active; 'I' for Inactive)
REMARK    1  A    between atoms: C_1  and  C_2
REMARK    2  A    between atoms: N_4  and  C_5
REMARK    3  A    between atoms: C_7  and  O_39
REMARK    4  A    between atoms: C_9  and  O_38
REMARK    5  A    between atoms: C_11  and  C_17
REMARK    6  A    between atoms: C_14  and  O_16
REMARK    7  A    between atoms: C_17  and  O_18
REMARK    8  A    between atoms: O_18  and  C_19
REMARK    9  A    between atoms: C_19  and  C_20
REMARK   10  A    between atoms: C_19  and  C_26
REMARK   11  A    between atoms: C_19  and  C_32
REMARK                            x       y       z     vdW  Elec       q    Type
REMARK                         _______ _______ _______ _____ _____    ______ ____
ROOT
ATOM      1  O   UNL     1      -2.704  -0.165   0.853  0.00  0.00    -0.357 OA
ENDROOT
BRANCH   1   2
ATOM      2  C   UNL     1      -2.021  -0.105   2.107  0.00  0.00    +0.196 C 
BRANCH   2   6
ATOM      3  C   UNL     1      -3.112  -2.861   5.187  0.00  0.00    +0.160 C 
ATOM      4  C   UNL     1      -1.613  -2.712   4.909  0.00  0.00    +0.171 C 
ATOM      5  C   UNL     1      -1.376  -1.410   4.138  0.00  0.00    +0.176 C 
ATOM      6  C   UNL     1      -2.207  -1.428   2.853  0.00  0.00    +0.178 C 
ATOM      7  O   UNL     1      -3.587  -1.600   3.181  0.00  0.00    -0.341 OA
ATOM      8  C   UNL     1      -3.876  -2.823   3.861  0.00  0.00    +0.270 C 
BRANCH   3  12
ATOM      9  C   UNL     1      -4.709  -5.608   7.323  0.00  0.00    +0.109 C 
ATOM     10  C   UNL     1      -4.453  -4.293   6.633  0.00  0.00    +0.210 C 
ATOM     11  O   UNL     1      -5.231  -3.373   6.774  0.00  0.00    -0.276 OA
ATOM     12  N   UNL     1      -3.361  -4.140   5.859  0.00  0.00    -0.305 N 
ATOM     13  H   UNL     1      -2.739  -4.875   5.746  0.00  0.00    +0.149 HD
ENDBRANCH   3  12
BRANCH   8  14
ATOM     14  O   UNL     1      -5.280  -2.905   4.117  0.00  0.00    -0.365 OA
ATOM     15  H   UNL     1      -5.827  -2.886   3.320  0.00  0.00    +0.213 HD
ENDBRANCH   8  14
BRANCH   5  16
ATOM     16  O   UNL     1      -1.769  -0.298   4.946  0.00  0.00    -0.387 OA
ATOM     17  H   UNL     1      -1.650   0.560   4.518  0.00  0.00    +0.210 HD
ENDBRANCH   5  16
BRANCH   4  18
ATOM     18  O   UNL     1      -1.160  -3.819   4.128  0.00  0.00    -0.387 OA
ATOM     19  H   UNL     1      -0.217  -3.790   3.913  0.00  0.00    +0.210 HD
ENDBRANCH   4  18
ENDBRANCH   2   6
ENDBRANCH   1   2
BRANCH   1  20
ATOM     20  C   UNL     1      -2.482   0.971   0.015  0.00  0.00    +0.144 C 
BRANCH  20  21
ATOM     21  C   UNL     1      -1.017   1.068  -0.324  0.00  0.00    -0.007 A 
ATOM     22  C   UNL     1      -0.225  -0.065  -0.295  0.00  0.00    +0.007 A 
ATOM     23  C   UNL     1       1.118   0.023  -0.612  0.00  0.00    +0.000 A 
ATOM     24  C   UNL     1       1.670   1.244  -0.951  0.00  0.00    +0.000 A 
ATOM     25  C   UNL     1       0.879   2.377  -0.974  0.00  0.00    +0.000 A 
ATOM     26  C   UNL     1      -0.464   2.290  -0.657  0.00  0.00    +0.007 A 
ENDBRANCH  20  21
BRANCH  20  27
ATOM     27  C   UNL     1      -2.914   2.220   0.739  0.00  0.00    -0.007 A 
ATOM     28  C   UNL     1      -2.079   2.799   1.677  0.00  0.00    +0.007 A 
ATOM     29  C   UNL     1      -2.473   3.948   2.338  0.00  0.00    +0.000 A 
ATOM     30  C   UNL     1      -3.706   4.512   2.067  0.00  0.00    +0.000 A 
ATOM     31  C   UNL     1      -4.542   3.931   1.133  0.00  0.00    +0.000 A 
ATOM     32  C   UNL     1      -4.146   2.785   0.469  0.00  0.00    +0.007 A 
ENDBRANCH  20  27
BRANCH  20  33
ATOM     33  C   UNL     1      -3.282   0.824  -1.254  0.00  0.00    -0.007 A 
ATOM     34  C   UNL     1      -3.147   1.753  -2.268  0.00  0.00    +0.007 A 
ATOM     35  C   UNL     1      -3.877   1.615  -3.434  0.00  0.00    +0.000 A 
ATOM     36  C   UNL     1      -4.751   0.554  -3.580  0.00  0.00    +0.000 A 
ATOM     37  C   UNL     1      -4.890  -0.372  -2.564  0.00  0.00    +0.000 A 
ATOM     38  C   UNL     1      -4.156  -0.237  -1.400  0.00  0.00    +0.007 A 
ENDBRANCH  20  33
ENDBRANCH   1  20
TORSDOF 10
