REMARK  Name = ZINC16343505
REMARK  10 active torsions:
REMARK  status: ('A' for Active; 'I' for Inactive)
REMARK    1  A    between atoms: C_1  and  C_2
REMARK    2  A    between atoms: C_2  and  C_3
REMARK    3  A    between atoms: C_2  and  C_4
REMARK    4  A    between atoms: C_4  and  C_6
REMARK    5  A    between atoms: C_4  and  N_17
REMARK    6  A    between atoms: C_18  and  C_20
REMARK    7  A    between atoms: C_20  and  N_55
REMARK    8  A    between atoms: C_21  and  N_55
REMARK    9  A    between atoms: C_22  and  C_23
REMARK   10  A    between atoms: C_22  and  N_55
REMARK                            x       y       z     vdW  Elec       q    Type
REMARK                         _______ _______ _______ _____ _____    ______ ____
ROOT
ATOM      1  C   UNL     1       7.318  -2.538  -4.615  0.00  0.00    +0.106 C 
ENDROOT
BRANCH   1   2
ATOM      2  C   UNL     1       8.811  -2.650  -4.787  0.00  0.00    -0.023 A 
ATOM      3  C   UNL     1       9.576  -3.243  -3.801  0.00  0.00    +0.009 A 
ATOM      4  C   UNL     1      10.947  -3.354  -3.955  0.00  0.00    +0.050 A 
ATOM      5  C   UNL     1      11.551  -2.857  -5.097  0.00  0.00    +0.162 A 
ATOM      6  C   UNL     1      10.784  -2.257  -6.085  0.00  0.00    +0.162 A 
ATOM      7  C   UNL     1       9.412  -2.153  -5.930  0.00  0.00    +0.055 A 
ATOM      8  O   UNL     1      11.389  -1.772  -7.208  0.00  0.00    -0.488 OA
ATOM      9  C   UNL     1      12.230  -0.632  -7.022  0.00  0.00    +0.232 C 
ATOM     10  C   UNL     1      13.624  -1.055  -6.588  0.00  0.00    +0.082 C 
ATOM     11  C   UNL     1      13.627  -1.724  -5.222  0.00  0.00    +0.232 C 
ATOM     12  O   UNL     1      12.903  -2.955  -5.260  0.00  0.00    -0.488 OA
ENDBRANCH   1   2
BRANCH   1  13
ATOM     13  N   UNL     1       7.011  -2.199  -3.223  0.00  0.00    -0.310 N 
ATOM     14  C   UNL     1       5.860  -1.566  -2.922  0.00  0.00    +0.197 C 
ATOM     15  O   UNL     1       5.078  -1.279  -3.803  0.00  0.00    -0.278 OA
ATOM     16  H   UNL     1       7.637  -2.428  -2.518  0.00  0.00    +0.149 HD
BRANCH  14  17
ATOM     17  C   UNL     1       5.545  -1.217  -1.490  0.00  0.00    +0.019 C 
BRANCH  17  19
ATOM     18  C   UNL     1       4.295   0.765  -2.102  0.00  0.00    -0.095 C 
ATOM     19  N   UNL     1       4.224  -0.555  -1.441  0.00  0.00    +0.387 N 
ATOM     20  H   UNL     1       3.539  -1.139  -1.936  0.00  0.00    -0.081 HD
BRANCH  19  21
ATOM     21  C   UNL     1       3.792  -0.394  -0.037  0.00  0.00    -0.035 C 
BRANCH  21  22
ATOM     22  C   UNL     1       2.360   0.077  -0.020  0.00  0.00    -0.025 A 
ATOM     23  C   UNL     1       1.221  -0.657  -0.013  0.00  0.00    +0.011 A 
ATOM     24  C   UNL     1       0.002  -0.004   0.002  0.00  0.00    +0.028 A 
ATOM     25  C   UNL     1      -0.016   1.352   0.009  0.00  0.00    +0.078 A 
ATOM     26  S   UNL     1       1.725   1.745  -0.005  0.00  0.00    -0.084 S 
ATOM     27 CL   UNL     1      -1.379   2.427   0.022  0.00  0.00    -0.076 Cl
ENDBRANCH  21  22
ENDBRANCH  19  21
ENDBRANCH  17  19
ENDBRANCH  14  17
ENDBRANCH   1  13
BRANCH   1  29
ATOM     28  C   UNL     1       5.147  -3.762  -4.794  0.00  0.00    +0.009 C 
ATOM     29  C   UNL     1       6.663  -3.875  -4.970  0.00  0.00    +0.008 C 
ATOM     30  C   UNL     1       6.983  -4.230  -6.423  0.00  0.00    +0.009 C 
ENDBRANCH   1  29
TORSDOF 7
