REMARK  Name = ZINC09530871
REMARK  4 active torsions:
REMARK  status: ('A' for Active; 'I' for Inactive)
REMARK    1  A    between atoms: C_7  and  O_28
REMARK    2  A    between atoms: C_9  and  C_15
REMARK    3  A    between atoms: C_15  and  C_16
REMARK    4  A    between atoms: C_19  and  C_21
REMARK                            x       y       z     vdW  Elec       q    Type
REMARK                         _______ _______ _______ _____ _____    ______ ____
ROOT
ATOM      1  C   UNL     1      -1.220   1.741   0.017  0.00  0.00    +0.000 A 
ATOM      2  C   UNL     1      -1.250   3.123   0.030  0.00  0.00    +0.002 A 
ATOM      3  C   UNL     1      -0.063   3.829   0.011  0.00  0.00    +0.029 A 
ATOM      4  C   UNL     1       1.147   3.158  -0.016  0.00  0.00    +0.111 A 
ATOM      5  C   UNL     1       1.188   1.781   0.000  0.00  0.00    +0.009 A 
ATOM      6  C   UNL     1      -0.013   1.076   0.008  0.00  0.00    +0.008 A 
ATOM      7  C   UNL     1       2.458   0.983   0.043  0.00  0.00    +0.165 C 
ATOM      8  C   UNL     1       3.648   1.686  -0.588  0.00  0.00    +0.117 C 
ATOM      9  N   UNL     1       3.862   2.979   0.090  0.00  0.00    -0.184 NA
ATOM     10  S   UNL     1       2.642   4.099  -0.099  0.00  0.00    +0.059 S 
ATOM     11  O   UNL     1       2.742   4.602  -1.424  0.00  0.00    -0.153 OA
ATOM     12  O   UNL     1       2.667   4.940   1.046  0.00  0.00    -0.153 OA
ATOM     13  H   UNL     1       4.659   3.165   0.611  0.00  0.00    +0.148 HD
ENDROOT
BRANCH   7  14
ATOM     14  O   UNL     1       2.769   0.694   1.407  0.00  0.00    -0.386 OA
ATOM     15  H   UNL     1       2.088   0.185   1.867  0.00  0.00    +0.210 HD
ENDBRANCH   7  14
BRANCH   8  16
ATOM     16  C   UNL     1       3.372   1.927  -2.073  0.00  0.00    +0.097 C 
BRANCH  16  17
ATOM     17  C   UNL     1       4.596   2.519  -2.723  0.00  0.00    +0.107 A 
ATOM     18  C   UNL     1       5.599   1.821  -3.292  0.00  0.00    +0.045 A 
ATOM     19  C   UNL     1       6.534   2.760  -3.773  0.00  0.00    +0.050 A 
ATOM     20  C   UNL     1       6.045   3.991  -3.467  0.00  0.00    +0.135 A 
ATOM     21  O   UNL     1       4.867   3.829  -2.835  0.00  0.00    -0.460 OA
BRANCH  20  22
ATOM     22  C   UNL     1       6.692   5.283  -3.780  0.00  0.00    +0.019 A 
ATOM     23  C   UNL     1       7.920   5.309  -4.443  0.00  0.00    +0.011 A 
ATOM     24  C   UNL     1       8.517   6.518  -4.735  0.00  0.00    +0.002 A 
ATOM     25  C   UNL     1       7.906   7.703  -4.364  0.00  0.00    +0.020 A 
ATOM     26  C   UNL     1       6.690   7.684  -3.702  0.00  0.00    +0.042 A 
ATOM     27  C   UNL     1       6.080   6.481  -3.408  0.00  0.00    +0.031 A 
ATOM     28 CL   UNL     1       5.931   9.176  -3.241  0.00  0.00    -0.084 Cl
ENDBRANCH  20  22
ENDBRANCH  16  17
ENDBRANCH   8  16
TORSDOF 4
