REMARK  Name = ZINC38806196
REMARK  11 active torsions:
REMARK  status: ('A' for Active; 'I' for Inactive)
REMARK    1  A    between atoms: C_1  and  C_2
REMARK    2  A    between atoms: C_4  and  C_28
REMARK    3  A    between atoms: C_6  and  C_8
REMARK    4  A    between atoms: N_10  and  C_11
REMARK    5  A    between atoms: C_12  and  C_24
REMARK    6  A    between atoms: C_16  and  C_22
REMARK    7  A    between atoms: C_16  and  C_23
REMARK    8  A    between atoms: C_18  and  C_20
REMARK    9  A    between atoms: C_18  and  C_21
REMARK   10  A    between atoms: C_24  and  O_26
REMARK   11  A    between atoms: O_26  and  C_27
REMARK                            x       y       z     vdW  Elec       q    Type
REMARK                         _______ _______ _______ _____ _____    ______ ____
ROOT
ATOM      1  C   UNL     1       0.065  -2.886   4.823  0.00  0.00    +0.086 A 
ATOM      2  C   UNL     1       0.064  -2.373   6.115  0.00  0.00    +0.091 A 
ATOM      3  C   UNL     1       0.085  -3.330   7.199  0.00  0.00    -0.024 A 
ATOM      4  C   UNL     1       0.106  -4.626   6.807  0.00  0.00    -0.016 A 
ATOM      5  S   UNL     1       0.087  -4.551   5.041  0.00  0.00    -0.079 S 
ATOM      6  C   UNL     1       0.147  -5.820   7.701  0.00  0.00    -0.041 C 
ATOM      7  N   UNL     1      -0.059  -5.471   9.106  0.00  0.00    +0.389 N 
ATOM      8  C   UNL     1      -0.673  -4.178   9.375  0.00  0.00    -0.069 C 
ATOM      9  C   UNL     1       0.077  -3.029   8.689  0.00  0.00    +0.024 C 
ATOM     10  C   UNL     1      -2.139  -4.162   8.937  0.00  0.00    -0.010 C 
ATOM     11  C   UNL     1      -0.631  -3.927  10.894  0.00  0.00    -0.010 C 
ATOM     12  C   UNL     1      -0.914  -6.834   7.248  0.00  0.00    -0.005 C 
ATOM     13  C   UNL     1       1.529  -6.485   7.555  0.00  0.00    -0.005 C 
ATOM     14  H   UNL     1      -0.630  -6.197   9.541  0.00  0.00    -0.084 HD
ATOM     15  H   UNL     1       0.843  -5.507   9.585  0.00  0.00    -0.084 HD
ENDROOT
BRANCH   1  18
ATOM     16  C   UNL     1       0.052  -2.845   2.457  0.00  0.00    +0.249 C 
ATOM     17  O   UNL     1       0.068  -4.061   2.446  0.00  0.00    -0.270 OA
ATOM     18  N   UNL     1       0.049  -2.183   3.631  0.00  0.00    -0.275 N 
ATOM     19  H   UNL     1       0.036  -1.213   3.640  0.00  0.00    +0.156 HD
BRANCH  16  25
ATOM     20  C   UNL     1      -0.018   1.503   0.010  0.00  0.00    +0.044 C 
ATOM     21  C   UNL     1       0.002  -0.004   0.002  0.00  0.00    -0.049 A 
ATOM     22  C   UNL     1       0.006  -0.688  -1.201  0.00  0.00    +0.006 A 
ATOM     23  C   UNL     1       0.024  -2.071  -1.218  0.00  0.00    -0.049 A 
ATOM     24  C   UNL     1       0.039  -2.778  -0.033  0.00  0.00    +0.016 A 
ATOM     25  C   UNL     1       0.036  -2.095   1.184  0.00  0.00    +0.038 A 
ATOM     26  C   UNL     1       0.023  -0.699   1.194  0.00  0.00    +0.016 A 
ATOM     27  C   UNL     1       0.027  -2.807  -2.533  0.00  0.00    +0.044 C 
ENDBRANCH  16  25
ENDBRANCH   1  18
BRANCH   2  28
ATOM     28  C   UNL     1       0.046  -0.929   6.355  0.00  0.00    +0.342 C 
ATOM     29  O   UNL     1      -1.015  -0.343   6.460  0.00  0.00    -0.245 OA
BRANCH  28  30
ATOM     30  O   UNL     1       1.206  -0.248   6.459  0.00  0.00    -0.464 OA
ATOM     31  C   UNL     1       1.113   1.159   6.693  0.00  0.00    +0.280 C 
ENDBRANCH  28  30
ENDBRANCH   2  28
TORSDOF 4
