REMARK  Name = ZINC34971462
REMARK  9 active torsions:
REMARK  status: ('A' for Active; 'I' for Inactive)
REMARK    1  A    between atoms: C_1  and  C_2
REMARK    2  A    between atoms: C_2  and  C_3
REMARK    3  A    between atoms: C_2  and  C_4
REMARK    4  A    between atoms: C_19  and  C_21
REMARK    5  A    between atoms: C_21  and  N_22
REMARK    6  A    between atoms: C_23  and  C_25
REMARK    7  A    between atoms: C_25  and  C_26
REMARK    8  A    between atoms: C_25  and  C_27
REMARK    9  A    between atoms: C_25  and  C_28
REMARK                            x       y       z     vdW  Elec       q    Type
REMARK                         _______ _______ _______ _____ _____    ______ ____
ROOT
ATOM      1  C   UNL     1      -1.439  -0.426  -0.223  0.00  0.00    +0.125 C 
ATOM      2  C   UNL     1      -1.556  -1.927  -0.365  0.00  0.00    +0.041 A 
ATOM      3  C   UNL     1      -2.250  -2.530  -1.354  0.00  0.00    -0.016 A 
ATOM      4  C   UNL     1      -2.129  -3.959  -1.145  0.00  0.00    +0.003 A 
ATOM      5  C   UNL     1      -2.630  -5.065  -1.839  0.00  0.00    +0.010 A 
ATOM      6  C   UNL     1      -2.307  -6.305  -1.347  0.00  0.00    +0.001 A 
ATOM      7  C   UNL     1      -1.522  -6.467  -0.217  0.00  0.00    +0.002 A 
ATOM      8  C   UNL     1      -1.014  -5.391   0.490  0.00  0.00    +0.026 A 
ATOM      9  C   UNL     1      -1.325  -4.119   0.013  0.00  0.00    +0.047 A 
ATOM     10  N   UNL     1      -0.998  -2.870   0.456  0.00  0.00    -0.356 N 
ATOM     11  H   UNL     1      -0.453  -2.679   1.236  0.00  0.00    +0.166 HD
ATOM     12  C   UNL     1      -2.990  -1.807  -2.450  0.00  0.00    +0.056 C 
ATOM     13  C   UNL     1      -3.208  -0.349  -2.026  0.00  0.00    +0.113 C 
ATOM     14  N   UNL     1      -1.957   0.179  -1.463  0.00  0.00    -0.291 N 
ATOM     15  C   UNL     1      -1.299   1.189  -2.066  0.00  0.00    +0.233 C 
ATOM     16  O   UNL     1      -0.330   1.686  -1.532  0.00  0.00    -0.274 OA
ENDROOT
BRANCH   1  18
ATOM     17  C   UNL     1       0.558  -0.677   1.256  0.00  0.00    +0.009 C 
ATOM     18  C   UNL     1       0.027  -0.035  -0.027  0.00  0.00    +0.009 C 
ATOM     19  C   UNL     1       0.849  -0.525  -1.220  0.00  0.00    +0.009 C 
ENDBRANCH   1  18
BRANCH  15  20
ATOM     20  C   UNL     1      -1.768   1.701  -3.403  0.00  0.00    +0.200 C 
BRANCH  20  21
ATOM     21  N   UNL     1      -0.894   2.791  -3.843  0.00  0.00    -0.306 N 
ATOM     22  C   UNL     1      -1.123   3.406  -5.020  0.00  0.00    +0.220 C 
ATOM     23  O   UNL     1      -2.053   3.057  -5.715  0.00  0.00    -0.275 OA
ATOM     24  H   UNL     1      -0.150   3.070  -3.286  0.00  0.00    +0.149 HD
BRANCH  22  25
ATOM     25  C   UNL     1      -0.223   4.528  -5.472  0.00  0.00    +0.055 C 
ATOM     26  C   UNL     1      -0.269   5.662  -4.447  0.00  0.00    +0.022 C 
ATOM     27  C   UNL     1       1.211   4.011  -5.598  0.00  0.00    +0.022 C 
BRANCH  25  28
ATOM     28  C   UNL     1      -0.700   5.047  -6.830  0.00  0.00    +0.124 C 
ATOM     29 CL   UNL     1       0.377   6.389  -7.370  0.00  0.00    -0.124 Cl
ENDBRANCH  25  28
ENDBRANCH  22  25
ENDBRANCH  20  21
ENDBRANCH  15  20
TORSDOF 5
