REMARK  Name = ZINC45835326
REMARK  6 active torsions:
REMARK  status: ('A' for Active; 'I' for Inactive)
REMARK    1  A    between atoms: C_1  and  C_2
REMARK    2  A    between atoms: C_2  and  C_4
REMARK    3  A    between atoms: C_2  and  N_14
REMARK    4  A    between atoms: C_7  and  N_10
REMARK    5  A    between atoms: C_15  and  C_17
REMARK    6  A    between atoms: C_17  and  N_18
REMARK                            x       y       z     vdW  Elec       q    Type
REMARK                         _______ _______ _______ _____ _____    ______ ____
ROOT
ATOM      1  N   UNL     1       0.770  -0.671   1.090  0.00  0.00    -0.307 N 
ATOM      2  C   UNL     1       2.110  -0.780   0.995  0.00  0.00    +0.231 C 
ATOM      3  O   UNL     1       2.687  -0.344   0.021  0.00  0.00    -0.274 OA
ATOM      4  H   UNL     1       0.309  -1.020   1.869  0.00  0.00    +0.149 HD
ENDROOT
BRANCH   1   6
ATOM      5  C   UNL     1       0.002   1.489   0.238  0.00  0.00    +0.033 C 
ATOM      6  C   UNL     1       0.010  -0.025   0.017  0.00  0.00    +0.100 C 
BRANCH   6   7
ATOM      7  C   UNL     1      -1.406  -0.541   0.024  0.00  0.00    -0.027 A 
ATOM      8  C   UNL     1      -2.059  -0.749   1.225  0.00  0.00    +0.007 A 
ATOM      9  C   UNL     1      -3.357  -1.222   1.234  0.00  0.00    +0.023 A 
ATOM     10  C   UNL     1      -4.006  -1.488   0.036  0.00  0.00    +0.035 A 
ATOM     11  C   UNL     1      -3.347  -1.279  -1.168  0.00  0.00    +0.023 A 
ATOM     12  C   UNL     1      -2.051  -0.801  -1.171  0.00  0.00    +0.007 A 
BRANCH  10  13
ATOM     13  N   UNL     1      -5.320  -1.968   0.042  0.00  0.00    -0.270 N 
ATOM     14  C   UNL     1      -6.177  -1.575   1.006  0.00  0.00    +0.301 C 
ATOM     15  O   UNL     1      -5.838  -0.730   1.812  0.00  0.00    -0.253 OA
ATOM     16  N   UNL     1      -7.408  -2.117   1.075  0.00  0.00    -0.313 N 
ATOM     17  H   UNL     1      -5.615  -2.584  -0.647  0.00  0.00    +0.156 HD
ATOM     18  H   UNL     1      -7.678  -2.791   0.432  0.00  0.00    +0.146 HD
ATOM     19  H   UNL     1      -8.025  -1.834   1.769  0.00  0.00    +0.146 HD
ENDBRANCH  10  13
ENDBRANCH   6   7
ENDBRANCH   1   6
BRANCH   2  20
ATOM     20  C   UNL     1       2.892  -1.445   2.098  0.00  0.00    +0.209 C 
BRANCH  20  21
ATOM     21  N   UNL     1       4.317  -1.438   1.759  0.00  0.00    -0.256 N 
ATOM     22  C   UNL     1       4.883  -2.498   1.036  0.00  0.00    +0.080 A 
ATOM     23  C   UNL     1       4.079  -3.400   0.358  0.00  0.00    +0.047 A 
ATOM     24  C   UNL     1       4.657  -4.440  -0.348  0.00  0.00    +0.043 A 
ATOM     25  C   UNL     1       6.033  -4.580  -0.378  0.00  0.00    +0.024 A 
ATOM     26  C   UNL     1       6.840  -3.682   0.297  0.00  0.00    +0.049 A 
ATOM     27  C   UNL     1       6.269  -2.639   1.004  0.00  0.00    +0.143 A 
ATOM     28  O   UNL     1       7.048  -1.745   1.671  0.00  0.00    -0.481 OA
ATOM     29  C   UNL     1       6.563  -0.402   1.747  0.00  0.00    +0.325 C 
ATOM     30  C   UNL     1       5.106  -0.407   2.133  0.00  0.00    +0.258 C 
ATOM     31  O   UNL     1       4.645   0.509   2.781  0.00  0.00    -0.271 OA
ATOM     32 CL   UNL     1       3.652  -5.572  -1.199  0.00  0.00    -0.083 Cl
ENDBRANCH  20  21
ENDBRANCH   2  20
TORSDOF 5
