REMARK  Name = ZINC39675523
REMARK  9 active torsions:
REMARK  status: ('A' for Active; 'I' for Inactive)
REMARK    1  A    between atoms: C_1  and  C_2
REMARK    2  A    between atoms: C_2  and  C_4
REMARK    3  A    between atoms: C_2  and  N_14
REMARK    4  A    between atoms: C_4  and  C_5
REMARK    5  A    between atoms: C_5  and  C_6
REMARK    6  A    between atoms: C_9  and  O_12
REMARK    7  A    between atoms: O_12  and  C_13
REMARK    8  A    between atoms: C_15  and  C_17
REMARK    9  A    between atoms: C_28  and  C_30
REMARK                            x       y       z     vdW  Elec       q    Type
REMARK                         _______ _______ _______ _____ _____    ______ ____
ROOT
ATOM      1  C   UNL     1       0.712  -1.094  -3.598  0.00  0.00    +0.100 C 
ATOM      2  C   UNL     1       1.732  -0.041  -4.085  0.00  0.00    +0.121 C 
ATOM      3  N   UNL     1       1.653  -0.098  -5.564  0.00  0.00    -0.296 N 
ATOM      4  C   UNL     1       0.208  -0.272  -5.849  0.00  0.00    +0.115 C 
ATOM      5  C   UNL     1      -0.287  -1.243  -4.759  0.00  0.00    -0.004 C 
ATOM      6  C   UNL     1      -0.277  -2.675  -5.284  0.00  0.00    -0.010 C 
ATOM      7  C   UNL     1      -1.318  -2.812  -6.399  0.00  0.00    -0.082 C 
ATOM      8  N   UNL     1      -2.646  -2.470  -5.875  0.00  0.00    +0.379 N 
ATOM      9  C   UNL     1      -2.673  -1.063  -5.458  0.00  0.00    -0.082 C 
ATOM     10  C   UNL     1      -1.689  -0.852  -4.303  0.00  0.00    -0.010 C 
ATOM     11  C   UNL     1       2.665  -0.011  -6.449  0.00  0.00    +0.252 C 
ATOM     12  O   UNL     1       2.437  -0.076  -7.641  0.00  0.00    -0.270 OA
ATOM     13  H   UNL     1      -3.338  -2.620  -6.594  0.00  0.00    -0.086 HD
ATOM     14  H   UNL     1      -2.856  -3.059  -5.083  0.00  0.00    -0.086 HD
ENDROOT
BRANCH  11  15
ATOM     15  C   UNL     1       4.050   0.162  -5.971  0.00  0.00    +0.108 A 
ATOM     16  C   UNL     1       4.849  -0.957  -5.710  0.00  0.00    +0.138 A 
ATOM     17  C   UNL     1       6.146  -0.786  -5.263  0.00  0.00    +0.041 A 
ATOM     18  C   UNL     1       6.655   0.486  -5.073  0.00  0.00    +0.026 A 
ATOM     19  C   UNL     1       5.872   1.598  -5.328  0.00  0.00    +0.077 A 
ATOM     20  C   UNL     1       4.574   1.445  -5.782  0.00  0.00    +0.156 A 
ATOM     21  F   UNL     1       3.813   2.532  -6.037  0.00  0.00    -0.203 F 
ATOM     22 CL   UNL     1       6.522   3.189  -5.085  0.00  0.00    -0.081 Cl
ATOM     23  F   UNL     1       4.354  -2.200  -5.894  0.00  0.00    -0.205 F 
ENDBRANCH  11  15
BRANCH   1  25
ATOM     24  N   UNL     1      -0.447  -1.494  -1.450  0.00  0.00    -0.312 N 
ATOM     25  C   UNL     1       0.006  -0.608  -2.358  0.00  0.00    +0.218 C 
ATOM     26  O   UNL     1      -0.153   0.581  -2.178  0.00  0.00    -0.275 OA
ATOM     27  H   UNL     1      -0.320  -2.445  -1.594  0.00  0.00    +0.149 HD
BRANCH  24  29
ATOM     28  C   UNL     1      -0.098  -0.674   0.828  0.00  0.00    +0.028 C 
ATOM     29  C   UNL     1      -1.133  -1.022  -0.245  0.00  0.00    +0.070 C 
BRANCH  29  30
ATOM     30  C   UNL     1      -2.060  -2.121   0.279  0.00  0.00    +0.026 C 
BRANCH  30  31
ATOM     31  C   UNL     1      -3.169  -2.381  -0.743  0.00  0.00    +0.037 C 
BRANCH  31  32
ATOM     32  C   UNL     1      -4.082  -3.464  -0.227  0.00  0.00    -0.047 A 
ATOM     33  C   UNL     1      -3.814  -4.789  -0.517  0.00  0.00    +0.007 A 
ATOM     34  C   UNL     1      -4.650  -5.783  -0.046  0.00  0.00    +0.046 A 
ATOM     35  C   UNL     1      -5.759  -5.450   0.718  0.00  0.00    +0.120 A 
ATOM     36  C   UNL     1      -6.026  -4.120   1.008  0.00  0.00    +0.046 A 
ATOM     37  C   UNL     1      -5.184  -3.130   0.540  0.00  0.00    +0.007 A 
BRANCH  35  38
ATOM     38  O   UNL     1      -6.583  -6.427   1.182  0.00  0.00    -0.495 OA
ATOM     39  C   UNL     1      -7.705  -6.011   1.963  0.00  0.00    +0.277 C 
ENDBRANCH  35  38
ENDBRANCH  31  32
ENDBRANCH  30  31
ENDBRANCH  29  30
ENDBRANCH  24  29
ENDBRANCH   1  25
TORSDOF 7
