REMARK  Name = ZINC37105858
REMARK  8 active torsions:
REMARK  status: ('A' for Active; 'I' for Inactive)
REMARK    1  A    between atoms: C_1  and  C_2
REMARK    2  A    between atoms: C_2  and  C_4
REMARK    3  A    between atoms: C_2  and  N_13
REMARK    4  A    between atoms: C_7  and  O_11
REMARK    5  A    between atoms: O_11  and  C_12
REMARK    6  A    between atoms: N_13  and  C_14
REMARK    7  A    between atoms: C_14  and  C_15
REMARK    8  A    between atoms: C_20  and  O_21
REMARK                            x       y       z     vdW  Elec       q    Type
REMARK                         _______ _______ _______ _____ _____    ______ ____
ROOT
ATOM      1  N   UNL     1      -1.376  -0.512   0.012  0.00  0.00    +0.386 N 
ATOM      2  H   UNL     1      -1.363  -1.518   0.090  0.00  0.00    -0.085 HD
ATOM      3  H   UNL     1      -1.873  -0.121   0.799  0.00  0.00    -0.085 HD
ENDROOT
BRANCH   1   5
ATOM      4  C   UNL     1      -0.019   1.526   0.010  0.00  0.00    -0.009 C 
ATOM      5  C   UNL     1       0.002  -0.004   0.002  0.00  0.00    -0.044 C 
BRANCH   5   6
ATOM      6  C   UNL     1       0.731  -0.503   1.223  0.00  0.00    -0.060 A 
ATOM      7  C   UNL     1       0.079  -0.558   2.441  0.00  0.00    +0.005 A 
ATOM      8  C   UNL     1       0.745  -1.015   3.562  0.00  0.00    +0.047 A 
ATOM      9  C   UNL     1       2.068  -1.419   3.465  0.00  0.00    +0.134 A 
ATOM     10  C   UNL     1       2.720  -1.364   2.241  0.00  0.00    +0.060 A 
ATOM     11  C   UNL     1       2.048  -0.911   1.122  0.00  0.00    +0.021 A 
ATOM     12 BR   UNL     1       4.524  -1.914   2.104  0.00  0.00    -0.047 Br
BRANCH   9  13
ATOM     13  O   UNL     1       2.726  -1.869   4.567  0.00  0.00    -0.494 OA
ATOM     14  C   UNL     1       1.992  -1.898   5.793  0.00  0.00    +0.277 C 
ENDBRANCH   9  13
ENDBRANCH   5   6
ENDBRANCH   1   5
BRANCH   1  15
ATOM     15  C   UNL     1      -2.050  -0.126  -1.234  0.00  0.00    -0.042 C 
BRANCH  15  16
ATOM     16  C   UNL     1      -3.464  -0.648  -1.224  0.00  0.00    -0.023 A 
ATOM     17  C   UNL     1      -3.779  -1.806  -1.908  0.00  0.00    +0.005 A 
ATOM     18  C   UNL     1      -5.076  -2.284  -1.899  0.00  0.00    +0.000 A 
ATOM     19  C   UNL     1      -6.061  -1.606  -1.205  0.00  0.00    +0.004 A 
ATOM     20  C   UNL     1      -5.751  -0.449  -0.519  0.00  0.00    +0.045 A 
ATOM     21  C   UNL     1      -4.449   0.031  -0.522  0.00  0.00    +0.118 A 
BRANCH  21  22
ATOM     22  O   UNL     1      -4.140   1.167   0.158  0.00  0.00    -0.507 OA
ATOM     23  H   UNL     1      -4.233   1.975  -0.365  0.00  0.00    +0.292 HD
ENDBRANCH  21  22
ENDBRANCH  15  16
ENDBRANCH   1  15
TORSDOF 6
