REMARK  Name = ZINC09366917
REMARK  7 active torsions:
REMARK  status: ('A' for Active; 'I' for Inactive)
REMARK    1  A    between atoms: C_4  and  O_22
REMARK    2  A    between atoms: C_5  and  C_7
REMARK    3  A    between atoms: N_9  and  C_10
REMARK    4  A    between atoms: C_10  and  C_11
REMARK    5  A    between atoms: C_11  and  C_12
REMARK    6  A    between atoms: O_22  and  C_23
REMARK    7  A    between atoms: C_23  and  C_24
REMARK                            x       y       z     vdW  Elec       q    Type
REMARK                         _______ _______ _______ _____ _____    ______ ____
ROOT
ATOM      1  C   UNL     1       9.094  -3.758  -1.544  0.00  0.00    +0.001 A 
ATOM      2  C   UNL     1       9.682  -4.092  -2.753  0.00  0.00    +0.004 A 
ATOM      3  C   UNL     1       9.073  -3.750  -3.944  0.00  0.00    +0.046 A 
ATOM      4  C   UNL     1       7.865  -3.068  -3.937  0.00  0.00    +0.133 A 
ATOM      5  C   UNL     1       7.267  -2.729  -2.716  0.00  0.00    +0.078 A 
ATOM      6  C   UNL     1       7.897  -3.077  -1.518  0.00  0.00    +0.017 A 
ENDROOT
BRANCH   5   7
ATOM      7  C   UNL     1       5.982  -2.004  -2.695  0.00  0.00    +0.248 C 
ATOM      8  O   UNL     1       5.440  -1.698  -3.739  0.00  0.00    -0.270 OA
ATOM      9  N   UNL     1       5.410  -1.680  -1.518  0.00  0.00    -0.311 N 
ATOM     10  H   UNL     1       5.843  -1.923  -0.685  0.00  0.00    +0.149 HD
BRANCH   9  11
ATOM     11  C   UNL     1       4.135  -0.959  -1.498  0.00  0.00    +0.109 C 
BRANCH  11  12
ATOM     12  C   UNL     1       3.709  -0.717  -0.048  0.00  0.00    +0.054 C 
BRANCH  12  13
ATOM     13  C   UNL     1       2.397   0.024  -0.027  0.00  0.00    -0.042 A 
ATOM     14  C   UNL     1       1.207  -0.680  -0.016  0.00  0.00    +0.007 A 
ATOM     15  C   UNL     1       0.002  -0.004   0.002  0.00  0.00    +0.050 A 
ATOM     16  C   UNL     1      -0.017   1.383   0.010  0.00  0.00    +0.162 A 
ATOM     17  C   UNL     1       1.179   2.090   0.002  0.00  0.00    +0.162 A 
ATOM     18  C   UNL     1       2.385   1.406  -0.018  0.00  0.00    +0.053 A 
ATOM     19  O   UNL     1       1.184   3.451   0.018  0.00  0.00    -0.485 OA
ATOM     20  C   UNL     1      -0.040   4.103  -0.340  0.00  0.00    +0.270 C 
ATOM     21  C   UNL     1      -1.189   3.413   0.408  0.00  0.00    +0.270 C 
ATOM     22  O   UNL     1      -1.212   2.035   0.019  0.00  0.00    -0.485 OA
ENDBRANCH  12  13
ENDBRANCH  11  12
ENDBRANCH   9  11
ENDBRANCH   5   7
BRANCH   4  23
ATOM     23  O   UNL     1       7.265  -2.732  -5.106  0.00  0.00    -0.485 OA
BRANCH  23  24
ATOM     24  C   UNL     1       7.934  -3.111  -6.311  0.00  0.00    +0.286 C 
BRANCH  24  25
ATOM     25  C   UNL     1       7.125  -2.656  -7.498  0.00  0.00    +0.097 A 
ATOM     26  C   UNL     1       5.947  -1.998  -7.444  0.00  0.00    +0.119 A 
ATOM     27  N   UNL     1       5.551  -1.770  -8.734  0.00  0.00    -0.306 N 
ATOM     28  C   UNL     1       4.457  -1.153  -9.269  0.00  0.00    +0.092 A 
ATOM     29  C   UNL     1       4.303  -1.068 -10.607  0.00  0.00    +0.018 A 
ATOM     30  C   UNL     1       5.268  -1.614 -11.468  0.00  0.00    +0.005 A 
ATOM     31  C   UNL     1       6.363  -2.232 -10.948  0.00  0.00    +0.047 A 
ATOM     32  C   UNL     1       6.510  -2.313  -9.549  0.00  0.00    +0.138 A 
ATOM     33  N   UNL     1       7.451  -2.842  -8.780  0.00  0.00    -0.229 NA
ENDBRANCH  24  25
ENDBRANCH  23  24
ENDBRANCH   4  23
TORSDOF 7
