REMARK  Name = ZINC09237040
REMARK  3 active torsions:
REMARK  status: ('A' for Active; 'I' for Inactive)
REMARK    1  A    between atoms: C_1  and  C_2
REMARK    2  A    between atoms: C_2  and  C_3
REMARK    3  A    between atoms: N_24  and  C_27
REMARK                            x       y       z     vdW  Elec       q    Type
REMARK                         _______ _______ _______ _____ _____    ______ ____
ROOT
ATOM      1  C   UNL     1       0.001   7.368  -2.479  0.00  0.00    -0.026 A 
ATOM      2  C   UNL     1       1.319   7.199  -2.850  0.00  0.00    +0.005 A 
ATOM      3  C   UNL     1       1.925   5.962  -2.731  0.00  0.00    +0.001 A 
ATOM      4  C   UNL     1       1.206   4.887  -2.237  0.00  0.00    +0.004 A 
ATOM      5  C   UNL     1      -0.110   5.051  -1.867  0.00  0.00    -0.027 A 
ATOM      6  C   UNL     1      -0.730   6.292  -1.982  0.00  0.00    +0.039 A 
ATOM      7  N   UNL     1      -2.055   6.212  -1.546  0.00  0.00    -0.286 N 
ATOM      8  C   UNL     1      -2.380   4.971  -1.135  0.00  0.00    +0.212 C 
ATOM      9  O   UNL     1      -3.456   4.609  -0.707  0.00  0.00    -0.277 OA
ATOM     10  C   UNL     1      -1.150   4.121  -1.308  0.00  0.00    +0.053 C 
ATOM     11  C   UNL     1      -0.699   3.513   0.025  0.00  0.00    +0.089 C 
ATOM     12  C   UNL     1      -1.260   2.065   0.019  0.00  0.00    +0.074 C 
ATOM     13  C   UNL     1      -1.997   1.934  -1.339  0.00  0.00    -0.054 C 
ATOM     14  C   UNL     1      -0.115   2.415  -2.673  0.00  0.00    -0.076 C 
ATOM     15  C   UNL     1      -0.395   0.914  -2.890  0.00  0.00    -0.020 C 
ATOM     16  C   UNL     1      -1.614   0.599  -2.002  0.00  0.00    -0.016 C 
ATOM     17  C   UNL     1      -0.014   1.208   0.009  0.00  0.00    +0.229 C 
ATOM     18  O   UNL     1       0.002  -0.004   0.002  0.00  0.00    -0.275 OA
ATOM     19  N   UNL     1       1.067   1.996   0.003  0.00  0.00    -0.207 N 
ATOM     20  C   UNL     1       0.799   3.307   0.010  0.00  0.00    +0.229 C 
ATOM     21  O   UNL     1       1.628   4.191   0.006  0.00  0.00    -0.275 OA
ATOM     22  H   UNL     1      -2.669   6.962  -1.540  0.00  0.00    +0.155 HD
ATOM     23  N   UNL     1      -1.392   2.955  -2.163  0.00  0.00    +0.395 N 
ATOM     24  H   UNL     1      -2.009   3.208  -2.945  0.00  0.00    -0.079 HD
ENDROOT
BRANCH  19  25
ATOM     25  C   UNL     1       2.375   1.489  -0.011  0.00  0.00    +0.079 A 
ATOM     26  C   UNL     1       3.013   1.242  -1.218  0.00  0.00    +0.027 A 
ATOM     27  C   UNL     1       4.301   0.743  -1.228  0.00  0.00    +0.002 A 
ATOM     28  C   UNL     1       4.956   0.489  -0.037  0.00  0.00    +0.003 A 
ATOM     29  C   UNL     1       4.325   0.733   1.168  0.00  0.00    +0.040 A 
ATOM     30  C   UNL     1       3.037   1.238   1.186  0.00  0.00    +0.145 A 
ATOM     31  F   UNL     1       2.422   1.483   2.364  0.00  0.00    -0.204 F 
ENDBRANCH  19  25
BRANCH   1  33
ATOM     32  C   UNL     1      -0.560   9.464  -1.280  0.00  0.00    +0.009 C 
ATOM     33  C   UNL     1      -0.650   8.720  -2.614  0.00  0.00    +0.033 C 
ENDBRANCH   1  33
TORSDOF 2
