REMARK  Name = ZINC59514218
REMARK  5 active torsions:
REMARK  status: ('A' for Active; 'I' for Inactive)
REMARK    1  A    between atoms: C_10  and  C_11
REMARK    2  A    between atoms: N_12  and  N_13
REMARK    3  A    between atoms: C_14  and  C_16
REMARK    4  A    between atoms: C_16  and  N_17
REMARK    5  A    between atoms: N_17  and  C_18
REMARK                            x       y       z     vdW  Elec       q    Type
REMARK                         _______ _______ _______ _____ _____    ______ ____
ROOT
ATOM      1  N   UNL     1       6.195   2.090  -0.145  0.00  0.00    -0.206 N 
ATOM      2  C   UNL     1       6.194   3.434  -0.240  0.00  0.00    +0.249 C 
ATOM      3  O   UNL     1       5.144   4.036  -0.319  0.00  0.00    -0.272 OA
ATOM      4  H   UNL     1       7.035   1.609  -0.082  0.00  0.00    +0.177 HD
ENDROOT
BRANCH   1   6
ATOM      5  C   UNL     1       4.984   0.092  -0.045  0.00  0.00    +0.139 C 
ATOM      6  N   UNL     1       4.983   1.387  -0.137  0.00  0.00    -0.188 NA
BRANCH   5  16
ATOM      7  C   UNL     1      -0.016   1.357   0.035  0.00  0.00    +0.001 A 
ATOM      8  C   UNL     1       1.168   2.091   0.029  0.00  0.00    +0.001 A 
ATOM      9  C   UNL     1       2.379   1.466   0.005  0.00  0.00    +0.009 A 
ATOM     10  C   UNL     1       2.435   0.067  -0.012  0.00  0.00    -0.009 A 
ATOM     11  C   UNL     1       1.233  -0.682  -0.004  0.00  0.00    -0.017 A 
ATOM     12  C   UNL     1       0.002  -0.004   0.019  0.00  0.00    +0.008 A 
ATOM     13  C   UNL     1       1.294  -2.086  -0.021  0.00  0.00    +0.008 A 
ATOM     14  C   UNL     1       2.494  -2.729  -0.043  0.00  0.00    +0.001 A 
ATOM     15  C   UNL     1       3.696  -2.036  -0.051  0.00  0.00    +0.010 A 
ATOM     16  C   UNL     1       3.711  -0.646  -0.036  0.00  0.00    +0.002 A 
ENDBRANCH   5  16
ENDBRANCH   1   6
BRANCH   2  17
ATOM     17  C   UNL     1       7.498   4.190  -0.249  0.00  0.00    +0.199 C 
BRANCH  17  18
ATOM     18  N   UNL     1       7.229   5.626  -0.360  0.00  0.00    -0.335 N 
ATOM     19  H   UNL     1       6.315   5.946  -0.414  0.00  0.00    +0.147 HD
BRANCH  18  20
ATOM     20  C   UNL     1       8.290   6.535  -0.389  0.00  0.00    +0.028 A 
ATOM     21  C   UNL     1       9.600   6.078  -0.317  0.00  0.00    +0.024 A 
ATOM     22  C   UNL     1      10.646   6.979  -0.345  0.00  0.00    +0.017 A 
ATOM     23  C   UNL     1      10.391   8.335  -0.444  0.00  0.00    +0.018 A 
ATOM     24  C   UNL     1       9.087   8.793  -0.515  0.00  0.00    +0.017 A 
ATOM     25  C   UNL     1       8.037   7.897  -0.494  0.00  0.00    +0.024 A 
ATOM     26 BR   UNL     1      11.826   9.566  -0.480  0.00  0.00    -0.050 Br
ENDBRANCH  18  20
ENDBRANCH  17  18
ENDBRANCH   2  17
TORSDOF 5
