REMARK  Name = ZINC12573259
REMARK  9 active torsions:
REMARK  status: ('A' for Active; 'I' for Inactive)
REMARK    1  A    between atoms: C_1  and  C_2
REMARK    2  A    between atoms: C_2  and  C_3
REMARK    3  A    between atoms: C_2  and  C_4
REMARK    4  A    between atoms: C_2  and  O_27
REMARK    5  A    between atoms: C_5  and  C_6
REMARK    6  A    between atoms: C_9  and  C_11
REMARK    7  A    between atoms: C_11  and  N_51
REMARK    8  A    between atoms: C_15  and  C_18
REMARK    9  A    between atoms: C_18  and  C_20
REMARK                            x       y       z     vdW  Elec       q    Type
REMARK                         _______ _______ _______ _____ _____    ______ ____
ROOT
ATOM      1  C   UNL     1       4.053   2.188  -0.811  0.00  0.00    -0.078 C 
ATOM      2  C   UNL     1       2.988   3.086  -1.444  0.00  0.00    -0.018 C 
ATOM      3  C   UNL     1       1.642   2.355  -1.439  0.00  0.00    +0.008 C 
ATOM      4  C   UNL     1       1.280   1.980   0.001  0.00  0.00    +0.044 C 
ATOM      5  C   UNL     1       2.394   1.114   0.593  0.00  0.00    -0.067 C 
ATOM      6  N   UNL     1       3.658   1.883   0.581  0.00  0.00    +0.383 N 
ATOM      7  H   UNL     1       3.516   2.764   1.087  0.00  0.00    -0.081 HD
ENDROOT
BRANCH   4   8
ATOM      8  C   UNL     1      -0.014   1.208   0.009  0.00  0.00    +0.164 C 
ATOM      9  O   UNL     1       0.002  -0.004   0.002  0.00  0.00    -0.292 OA
BRANCH   8  10
ATOM     10  C   UNL     1      -1.298   1.927   0.019  0.00  0.00    +0.018 A 
ATOM     11  C   UNL     1      -1.321   3.325   0.032  0.00  0.00    +0.013 A 
ATOM     12  C   UNL     1      -2.527   3.991   0.036  0.00  0.00    +0.020 A 
ATOM     13  C   UNL     1      -3.716   3.279   0.037  0.00  0.00    +0.041 A 
ATOM     14  C   UNL     1      -3.701   1.893   0.030  0.00  0.00    +0.020 A 
ATOM     15  C   UNL     1      -2.502   1.214   0.021  0.00  0.00    +0.013 A 
ATOM     16 CL   UNL     1      -5.231   4.126   0.049  0.00  0.00    -0.084 Cl
ENDBRANCH   8  10
ENDBRANCH   4   8
BRANCH   6  17
ATOM     17  C   UNL     1       4.724   1.111   1.251  0.00  0.00    -0.036 C 
BRANCH  17  21
ATOM     18  C   UNL     1       4.880  -2.791  -0.268  0.00  0.00    +0.062 A 
ATOM     19  C   UNL     1       5.708  -1.886  -0.883  0.00  0.00    +0.025 A 
ATOM     20  C   UNL     1       5.706  -0.582  -0.440  0.00  0.00    +0.010 A 
ATOM     21  C   UNL     1       4.897  -0.235   0.594  0.00  0.00    -0.026 A 
ATOM     22  S   UNL     1       4.086  -1.780   0.971  0.00  0.00    -0.087 S 
BRANCH  18  24
ATOM     23  C   UNL     1       4.554  -5.326  -0.775  0.00  0.00    -0.062 C 
ATOM     24  C   UNL     1       4.701  -4.184  -0.546  0.00  0.00    -0.056 C 
BRANCH  23  26
ATOM     25  C   UNL     1       5.279  -7.168  -2.221  0.00  0.00    +0.055 C 
ATOM     26  C   UNL     1       4.370  -6.758  -1.061  0.00  0.00    +0.121 C 
ATOM     27  C   UNL     1       4.728  -7.577   0.181  0.00  0.00    +0.055 C 
BRANCH  26  28
ATOM     28  O   UNL     1       3.007  -7.002  -1.415  0.00  0.00    -0.377 OA
ATOM     29  H   UNL     1       2.373  -6.765  -0.724  0.00  0.00    +0.211 HD
ENDBRANCH  26  28
ENDBRANCH  23  26
ENDBRANCH  18  24
ENDBRANCH  17  21
ENDBRANCH   6  17
TORSDOF 7
