REMARK  Name = ZINC22442754
REMARK  2 active torsions:
REMARK  status: ('A' for Active; 'I' for Inactive)
REMARK    1  A    between atoms: C_4  and  N_7
REMARK    2  A    between atoms: C_27  and  C_32
REMARK                            x       y       z     vdW  Elec       q    Type
REMARK                         _______ _______ _______ _____ _____    ______ ____
ROOT
ATOM      1  N   UNL     1      -0.011   0.966   0.007  0.00  0.00    -0.299 N 
ATOM      2  C   UNL     1      -1.175   1.704   0.054  0.00  0.00    +0.139 A 
ATOM      3  C   UNL     1      -2.430   1.067   0.164  0.00  0.00    +0.079 A 
ATOM      4  C   UNL     1      -3.585   1.853   0.212  0.00  0.00    +0.059 A 
ATOM      5  N   UNL     1      -3.458   3.168   0.147  0.00  0.00    -0.218 NA
ATOM      6  C   UNL     1      -2.263   3.736   0.042  0.00  0.00    +0.220 A 
ATOM      7  N   UNL     1      -1.141   3.031   0.001  0.00  0.00    -0.199 NA
ATOM      8  N   UNL     1      -2.185   5.111  -0.022  0.00  0.00    -0.297 N 
ATOM      9  C   UNL     1      -2.993   5.633  -1.133  0.00  0.00    +0.127 C 
ATOM     10  C   UNL     1      -2.943   7.163  -1.121  0.00  0.00    +0.125 C 
ATOM     11  N   UNL     1      -1.547   7.607  -1.235  0.00  0.00    -0.314 N 
ATOM     12  C   UNL     1      -0.739   7.085  -0.124  0.00  0.00    +0.125 C 
ATOM     13  C   UNL     1      -0.788   5.555  -0.136  0.00  0.00    +0.127 C 
ATOM     14  C   UNL     1      -1.468   8.993  -1.300  0.00  0.00    +0.099 A 
ATOM     15  C   UNL     1      -2.167   9.678  -2.289  0.00  0.00    +0.042 A 
ATOM     16  C   UNL     1      -2.080  11.057  -2.342  0.00  0.00    +0.005 A 
ATOM     17  C   UNL     1      -1.294  11.708  -1.400  0.00  0.00    +0.018 A 
ATOM     18  C   UNL     1      -0.628  10.965  -0.446  0.00  0.00    +0.084 A 
ATOM     19  N   UNL     1      -0.734   9.650  -0.416  0.00  0.00    -0.350 N 
ATOM     20  C   UNL     1      -4.951   1.239   0.337  0.00  0.00    +0.065 C 
ATOM     21  C   UNL     1      -4.949  -0.210  -0.145  0.00  0.00    +0.039 C 
ATOM     22  C   UNL     1      -3.863  -0.995   0.602  0.00  0.00    +0.089 C 
ATOM     23  C   UNL     1      -2.525  -0.393   0.223  0.00  0.00    +0.169 C 
ATOM     24  O   UNL     1      -1.566  -1.096  -0.023  0.00  0.00    -0.292 OA
ATOM     25  H   UNL     1      -0.044  -0.124   0.153  0.00  0.00    +0.154 HD
ATOM     26  H   UNL     1      -0.193   9.100   0.368  0.00  0.00    +0.166 HD
ENDROOT
BRANCH   1  30
ATOM     27  C   UNL     1       3.631   2.863  -0.686  0.00  0.00    +0.000 A 
ATOM     28  C   UNL     1       3.564   1.799   0.195  0.00  0.00    +0.002 A 
ATOM     29  C   UNL     1       2.358   1.167   0.427  0.00  0.00    +0.023 A 
ATOM     30  C   UNL     1       1.212   1.603  -0.225  0.00  0.00    +0.032 A 
ATOM     31  C   UNL     1       1.283   2.668  -1.113  0.00  0.00    +0.023 A 
ATOM     32  C   UNL     1       2.491   3.299  -1.336  0.00  0.00    +0.002 A 
ENDBRANCH   1  30
BRANCH  21  33
ATOM     33  C   UNL     1      -6.295  -0.831   0.127  0.00  0.00    -0.006 A 
ATOM     34  C   UNL     1      -7.184  -1.360  -0.750  0.00  0.00    +0.011 A 
ATOM     35  C   UNL     1      -8.368  -1.884  -0.268  0.00  0.00    +0.008 A 
ATOM     36  C   UNL     1      -8.611  -1.845   1.065  0.00  0.00    +0.045 A 
ATOM     37  S   UNL     1      -7.136  -1.056   1.686  0.00  0.00    -0.101 S 
ENDBRANCH  21  33
TORSDOF 2
