REMARK  Name = ZINC19643958
REMARK  9 active torsions:
REMARK  status: ('A' for Active; 'I' for Inactive)
REMARK    1  A    between atoms: C_1  and  C_2
REMARK    2  A    between atoms: C_9  and  N_15
REMARK    3  A    between atoms: C_10  and  C_11
REMARK    4  A    between atoms: C_11  and  O_13
REMARK    5  A    between atoms: O_13  and  C_14
REMARK    6  A    between atoms: N_15  and  C_16
REMARK    7  A    between atoms: C_16  and  N_18
REMARK    8  A    between atoms: N_21  and  C_24
REMARK    9  A    between atoms: C_28  and  O_30
REMARK                            x       y       z     vdW  Elec       q    Type
REMARK                         _______ _______ _______ _____ _____    ______ ____
ROOT
ATOM      1  N   UNL     1      -1.218  -2.349   2.487  0.00  0.00    -0.291 N 
ATOM      2  H   UNL     1      -1.175  -1.267   2.677  0.00  0.00    +0.154 HD
ENDROOT
BRANCH   1  10
ATOM      3  C   UNL     1      -1.484  -5.429  -4.698  0.00  0.00    +0.008 C 
ATOM      4  C   UNL     1      -1.725  -4.488  -3.516  0.00  0.00    -0.009 C 
ATOM      5  C   UNL     1      -0.841  -3.245  -3.656  0.00  0.00    +0.008 C 
ATOM      6  C   UNL     1      -1.252  -2.195  -2.622  0.00  0.00    +0.037 C 
ATOM      7  C   UNL     1      -1.270  -2.845  -1.244  0.00  0.00    -0.021 A 
ATOM      8  C   UNL     1      -1.321  -4.187  -1.108  0.00  0.00    -0.004 A 
ATOM      9  S   UNL     1      -1.321  -4.466   0.640  0.00  0.00    -0.077 S 
ATOM     10  C   UNL     1      -1.250  -2.823   1.186  0.00  0.00    +0.086 A 
ATOM     11  C   UNL     1      -1.234  -2.097   0.002  0.00  0.00    +0.091 A 
ATOM     12  C   UNL     1      -1.366  -5.205  -2.206  0.00  0.00    +0.046 C 
BRANCH  11  13
ATOM     13  C   UNL     1      -1.178  -0.634   0.009  0.00  0.00    +0.342 C 
ATOM     14  O   UNL     1      -2.207   0.014   0.018  0.00  0.00    -0.245 OA
BRANCH  13  15
ATOM     15  O   UNL     1       0.015  -0.005   0.006  0.00  0.00    -0.464 OA
ATOM     16  C   UNL     1      -0.005   1.447   0.013  0.00  0.00    +0.280 C 
ENDBRANCH  13  15
ENDBRANCH  11  13
ENDBRANCH   1  10
BRANCH   1  17
ATOM     17  C   UNL     1      -1.240  -3.215   3.521  0.00  0.00    +0.138 C 
ATOM     18  S   UNL     1      -1.443  -4.889   3.230  0.00  0.00    -0.018 S 
BRANCH  17  19
ATOM     19  N   UNL     1      -1.102  -2.761   4.782  0.00  0.00    -0.309 N 
ATOM     20  C   UNL     1      -1.034  -1.319   5.063  0.00  0.00    +0.125 C 
ATOM     21  C   UNL     1      -2.061  -0.993   6.160  0.00  0.00    +0.124 C 
ATOM     22  N   UNL     1      -1.824  -1.863   7.319  0.00  0.00    -0.327 N 
ATOM     23  C   UNL     1      -2.031  -3.276   6.977  0.00  0.00    +0.124 C 
ATOM     24  C   UNL     1      -1.010  -3.696   5.914  0.00  0.00    +0.125 C 
BRANCH  22  25
ATOM     25  C   UNL     1      -2.626  -1.486   8.399  0.00  0.00    +0.033 A 
ATOM     26  C   UNL     1      -3.477  -2.413   8.990  0.00  0.00    +0.023 A 
ATOM     27  C   UNL     1      -4.266  -2.042  10.061  0.00  0.00    +0.005 A 
ATOM     28  C   UNL     1      -4.220  -0.747  10.541  0.00  0.00    +0.045 A 
ATOM     29  C   UNL     1      -3.376   0.184   9.952  0.00  0.00    +0.119 A 
ATOM     30  C   UNL     1      -2.578  -0.185   8.880  0.00  0.00    +0.068 A 
BRANCH  29  31
ATOM     31  O   UNL     1      -3.332   1.457  10.425  0.00  0.00    -0.507 OA
ATOM     32  H   UNL     1      -2.663   2.195   9.957  0.00  0.00    +0.292 HD
ENDBRANCH  29  31
ENDBRANCH  22  25
ENDBRANCH  17  19
ENDBRANCH   1  17
TORSDOF 7
