REMARK  Name = ZINC01085011
REMARK  10 active torsions:
REMARK  status: ('A' for Active; 'I' for Inactive)
REMARK    1  A    between atoms: C_1  and  C_2
REMARK    2  A    between atoms: C_2  and  O_3
REMARK    3  A    between atoms: O_3  and  C_4
REMARK    4  A    between atoms: C_4  and  C_6
REMARK    5  A    between atoms: C_7  and  N_34
REMARK    6  A    between atoms: C_11  and  C_13
REMARK    7  A    between atoms: C_15  and  C_19
REMARK    8  A    between atoms: C_16  and  C_18
REMARK    9  A    between atoms: C_19  and  O_20
REMARK   10  A    between atoms: O_20  and  C_21
REMARK                            x       y       z     vdW  Elec       q    Type
REMARK                         _______ _______ _______ _____ _____    ______ ____
ROOT
ATOM      1  C   UNL     1      -6.633   8.035  -1.129  0.00  0.00    +0.106 C 
ATOM      2  C   UNL     1      -7.945   8.372  -1.026  0.00  0.00    +0.195 C 
ATOM      3  O   UNL     1      -8.588   8.325   0.150  0.00  0.00    -0.446 OA
ATOM      4  C   UNL     1      -7.888   8.370   1.299  0.00  0.00    +0.115 C 
ATOM      5  C   UNL     1      -6.584   8.042   1.340  0.00  0.00    +0.046 C 
ATOM      6  C   UNL     1      -5.862   7.605   0.088  0.00  0.00    +0.104 C 
ATOM      7  C   UNL     1      -5.852   8.098   2.542  0.00  0.00    +0.163 C 
ATOM      8  O   UNL     1      -4.681   7.778   2.542  0.00  0.00    -0.292 OA
ATOM      9  C   UNL     1      -6.496   8.546   3.826  0.00  0.00    +0.080 C 
ATOM     10  C   UNL     1      -7.643   9.507   3.496  0.00  0.00    +0.016 C 
ATOM     11  C   UNL     1      -8.615   8.795   2.554  0.00  0.00    +0.075 C 
ENDROOT
BRANCH   6  12
ATOM     12  C   UNL     1      -5.726   6.104   0.088  0.00  0.00    +0.003 A 
ATOM     13  C   UNL     1      -4.601   5.349   0.072  0.00  0.00    +0.019 A 
ATOM     14  C   UNL     1      -4.718   3.971   0.076  0.00  0.00    -0.000 A 
ATOM     15  C   UNL     1      -5.954   3.417   0.090  0.00  0.00    -0.007 A 
ATOM     16  S   UNL     1      -7.006   4.859   0.110  0.00  0.00    -0.097 S 
ATOM     17  C   UNL     1      -6.341   1.960   0.090  0.00  0.00    +0.052 C 
BRANCH  14  18
ATOM     18  C   UNL     1      -3.488   3.100   0.058  0.00  0.00    +0.265 C 
BRANCH  18  19
ATOM     19  O   UNL     1      -2.321   3.923   0.039  0.00  0.00    -0.486 OA
BRANCH  19  20
ATOM     20  C   UNL     1      -1.118   3.289   0.021  0.00  0.00    +0.139 A 
ATOM     21  C   UNL     1      -1.064   1.903   0.017  0.00  0.00    +0.050 A 
ATOM     22  C   UNL     1       0.158   1.260   0.004  0.00  0.00    +0.042 A 
ATOM     23  C   UNL     1       1.330   1.997  -0.015  0.00  0.00    +0.125 A 
ATOM     24  C   UNL     1       1.278   3.381  -0.015  0.00  0.00    +0.062 A 
ATOM     25  C   UNL     1       0.057   4.027   0.003  0.00  0.00    +0.085 A 
ATOM     26 CL   UNL     1      -0.008   5.762   0.002  0.00  0.00    -0.080 Cl
ATOM     27  F   UNL     1       2.524   1.366  -0.033  0.00  0.00    -0.205 F 
ENDBRANCH  19  20
ENDBRANCH  18  19
ENDBRANCH  14  18
ENDBRANCH   6  12
BRANCH   2  28
ATOM     28  N   UNL     1      -8.625   8.768  -2.147  0.00  0.00    -0.329 N 
ATOM     29  H   UNL     1      -8.192   8.733  -3.014  0.00  0.00    +0.145 HD
ATOM     30  H   UNL     1      -9.540   9.082  -2.073  0.00  0.00    +0.145 HD
ENDBRANCH   2  28
BRANCH   1  31
ATOM     31  C   UNL     1      -5.994   8.089  -2.377  0.00  0.00    +0.341 C 
ATOM     32  O   UNL     1      -5.274   9.033  -2.652  0.00  0.00    -0.245 OA
BRANCH  31  33
ATOM     33  O   UNL     1      -6.176   7.096  -3.273  0.00  0.00    -0.462 OA
BRANCH  33  35
ATOM     34  C   UNL     1      -5.821   6.006  -5.401  0.00  0.00    +0.048 C 
ATOM     35  C   UNL     1      -5.495   7.216  -4.523  0.00  0.00    +0.229 C 
ENDBRANCH  33  35
ENDBRANCH  31  33
ENDBRANCH   1  31
TORSDOF 8
