REMARK  Name = ZINC44719517
REMARK  10 active torsions:
REMARK  status: ('A' for Active; 'I' for Inactive)
REMARK    1  A    between atoms: C_1  and  C_2
REMARK    2  A    between atoms: C_2  and  N_3
REMARK    3  A    between atoms: N_3  and  C_4
REMARK    4  A    between atoms: N_3  and  C_6
REMARK    5  A    between atoms: C_4  and  C_5
REMARK    6  A    between atoms: C_6  and  C_8
REMARK    7  A    between atoms: C_6  and  C_24
REMARK    8  A    between atoms: C_8  and  N_9
REMARK    9  A    between atoms: C_10  and  C_12
REMARK   10  A    between atoms: C_13  and  C_23
REMARK                            x       y       z     vdW  Elec       q    Type
REMARK                         _______ _______ _______ _____ _____    ______ ____
ROOT
ATOM      1  N   UNL     1       1.454   0.930  -1.075  0.00  0.00    -0.311 N 
ATOM      2  C   UNL     1       2.408   1.881  -1.101  0.00  0.00    +0.261 C 
ATOM      3  O   UNL     1       3.158   1.965  -2.055  0.00  0.00    -0.269 OA
ATOM      4  H   UNL     1       0.811   0.907  -0.349  0.00  0.00    +0.149 HD
ENDROOT
BRANCH   2   5
ATOM      5  C   UNL     1       2.543   2.816   0.024  0.00  0.00    +0.106 A 
ATOM      6  C   UNL     1       3.396   3.883   0.077  0.00  0.00    -0.010 A 
ATOM      7  C   UNL     1       3.195   4.495   1.320  0.00  0.00    +0.042 A 
ATOM      8  C   UNL     1       2.213   3.770   1.995  0.00  0.00    +0.027 A 
ATOM      9  N   UNL     1       1.825   2.769   1.204  0.00  0.00    -0.354 N 
ATOM     10  H   UNL     1       1.147   2.111   1.423  0.00  0.00    +0.166 HD
ATOM     11  C   UNL     1       1.735   4.131   3.378  0.00  0.00    +0.054 C 
ATOM     12  C   UNL     1       2.787   5.007   4.064  0.00  0.00    +0.014 C 
ATOM     13  C   UNL     1       3.155   6.203   3.180  0.00  0.00    +0.080 C 
ATOM     14  C   UNL     1       3.828   5.680   1.919  0.00  0.00    +0.165 C 
ATOM     15  O   UNL     1       4.814   6.202   1.444  0.00  0.00    -0.292 OA
ATOM     16  C   UNL     1       4.364   4.316  -0.993  0.00  0.00    +0.047 C 
ENDBRANCH   2   5
BRANCH   1  17
ATOM     17  C   UNL     1       1.387  -0.071  -2.143  0.00  0.00    +0.094 C 
BRANCH  17  18
ATOM     18  C   UNL     1       0.150  -0.948  -1.944  0.00  0.00    -0.020 C 
BRANCH  18  19
ATOM     19  C   UNL     1       0.165  -2.073  -2.946  0.00  0.00    -0.059 A 
ATOM     20  C   UNL     1       1.365  -2.508  -3.479  0.00  0.00    +0.002 A 
ATOM     21  C   UNL     1       1.379  -3.540  -4.399  0.00  0.00    +0.000 A 
ATOM     22  C   UNL     1       0.194  -4.138  -4.785  0.00  0.00    +0.000 A 
ATOM     23  C   UNL     1      -1.005  -3.704  -4.252  0.00  0.00    +0.000 A 
ATOM     24  C   UNL     1      -1.019  -2.675  -3.329  0.00  0.00    +0.002 A 
ENDBRANCH  18  19
BRANCH  18  25
ATOM     25  N   UNL     1       0.157  -1.504  -0.584  0.00  0.00    +0.385 N 
ATOM     26  H   UNL     1       0.229  -0.753   0.086  0.00  0.00    -0.081 HD
BRANCH  25  28
ATOM     27  C   UNL     1      -2.272  -1.281  -0.372  0.00  0.00    -0.017 C 
ATOM     28  C   UNL     1      -1.087  -2.249  -0.353  0.00  0.00    -0.081 C 
ENDBRANCH  25  28
BRANCH  25  29
ATOM     29  C   UNL     1       1.305  -2.408  -0.431  0.00  0.00    -0.081 C 
ATOM     30  C   UNL     1       2.522  -1.611   0.043  0.00  0.00    -0.017 C 
ENDBRANCH  25  29
ENDBRANCH  18  25
ENDBRANCH  17  18
ENDBRANCH   1  17
TORSDOF 7
