REMARK  Name = ZINC53045344
REMARK  8 active torsions:
REMARK  status: ('A' for Active; 'I' for Inactive)
REMARK    1  A    between atoms: C_1  and  C_2
REMARK    2  A    between atoms: C_2  and  O_3
REMARK    3  A    between atoms: O_3  and  C_4
REMARK    4  A    between atoms: C_5  and  C_12
REMARK    5  A    between atoms: C_12  and  N_13
REMARK    6  A    between atoms: N_13  and  C_14
REMARK    7  A    between atoms: C_14  and  C_19
REMARK    8  A    between atoms: C_19  and  O_20
REMARK                            x       y       z     vdW  Elec       q    Type
REMARK                         _______ _______ _______ _____ _____    ______ ____
ROOT
ATOM      1  C   UNL     1      -1.319  -1.793   2.622  0.00  0.00    -0.042 C 
ENDROOT
BRANCH   1   3
ATOM      2  C   UNL     1       0.870  -1.383   1.470  0.00  0.00    +0.136 A 
ATOM      3  C   UNL     1       0.043  -2.251   2.167  0.00  0.00    -0.021 A 
ATOM      4  C   UNL     1       0.469  -3.535   2.445  0.00  0.00    +0.020 A 
ATOM      5  C   UNL     1       1.719  -3.956   2.029  0.00  0.00    +0.019 A 
ATOM      6  C   UNL     1       2.546  -3.092   1.333  0.00  0.00    +0.034 A 
ATOM      7  C   UNL     1       2.122  -1.808   1.048  0.00  0.00    +0.061 A 
ATOM      8 BR   UNL     1       3.248  -0.630   0.090  0.00  0.00    -0.046 Br
ATOM      9 BR   UNL     1       2.299  -5.715   2.411  0.00  0.00    -0.050 Br
BRANCH   2  10
ATOM     10  O   UNL     1       0.452  -0.119   1.195  0.00  0.00    -0.491 OA
BRANCH  10  12
ATOM     11  C   UNL     1       0.384   2.266   1.580  0.00  0.00    +0.048 C 
ATOM     12  C   UNL     1       0.834   0.905   2.115  0.00  0.00    +0.226 C 
ENDBRANCH  10  12
ENDBRANCH   2  10
ENDBRANCH   1   3
BRANCH   1  13
ATOM     13  N   UNL     1      -2.237  -1.774   1.475  0.00  0.00    +0.387 N 
ATOM     14  H   UNL     1      -1.908  -1.107   0.792  0.00  0.00    -0.085 HD
ATOM     15  H   UNL     1      -2.274  -2.692   1.058  0.00  0.00    -0.085 HD
BRANCH  13  16
ATOM     16  C   UNL     1      -3.580  -1.387   1.929  0.00  0.00    -0.044 C 
ATOM     17  C   UNL     1      -4.568  -1.431   0.751  0.00  0.00    -0.010 C 
ATOM     18  C   UNL     1      -5.120  -0.001   0.585  0.00  0.00    -0.001 C 
ATOM     19  C   UNL     1      -4.034   0.902   1.220  0.00  0.00    -0.001 C 
ATOM     20  C   UNL     1      -3.566   0.069   2.439  0.00  0.00    -0.010 C 
BRANCH  16  21
ATOM     21  C   UNL     1      -4.047  -2.327   3.042  0.00  0.00    +0.143 C 
BRANCH  21  22
ATOM     22  O   UNL     1      -4.009  -3.677   2.573  0.00  0.00    -0.396 OA
ATOM     23  H   UNL     1      -4.293  -4.329   3.228  0.00  0.00    +0.209 HD
ENDBRANCH  21  22
ENDBRANCH  16  21
ENDBRANCH  13  16
ENDBRANCH   1  13
TORSDOF 7
