REMARK  Name = ZINC64343478
REMARK  8 active torsions:
REMARK  status: ('A' for Active; 'I' for Inactive)
REMARK    1  A    between atoms: C_7  and  C_10
REMARK    2  A    between atoms: C_13  and  S_21
REMARK    3  A    between atoms: N_14  and  C_15
REMARK    4  A    between atoms: C_15  and  C_16
REMARK    5  A    between atoms: S_21  and  C_22
REMARK    6  A    between atoms: C_22  and  C_23
REMARK    7  A    between atoms: N_25  and  C_26
REMARK    8  A    between atoms: C_26  and  C_27
REMARK                            x       y       z     vdW  Elec       q    Type
REMARK                         _______ _______ _______ _____ _____    ______ ____
ROOT
ATOM      1  C   UNL     1       0.675  -3.130  -0.022  0.00  0.00    +0.164 A 
ATOM      2  N   UNL     1      -0.649  -3.067  -0.015  0.00  0.00    -0.129 NA
ATOM      3  N   UNL     1      -1.141  -4.254  -0.015  0.00  0.00    -0.122 NA
ATOM      4  C   UNL     1      -0.165  -5.151  -0.022  0.00  0.00    +0.193 A 
ATOM      5  N   UNL     1       1.014  -4.471  -0.033  0.00  0.00    -0.295 N 
ENDROOT
BRANCH   1  12
ATOM      6  C   UNL     1      -0.016   1.353   0.009  0.00  0.00    +0.001 A 
ATOM      7  C   UNL     1       1.163   2.101   0.002  0.00  0.00    +0.002 A 
ATOM      8  C   UNL     1       2.384   1.511  -0.013  0.00  0.00    +0.026 A 
ATOM      9  C   UNL     1       2.483   0.096  -0.022  0.00  0.00    +0.043 A 
ATOM     10  N   UNL     1       3.531  -0.705  -0.037  0.00  0.00    -0.380 N 
ATOM     11  C   UNL     1       3.075  -2.098  -0.040  0.00  0.00    +0.152 C 
ATOM     12  C   UNL     1       1.563  -2.043  -0.024  0.00  0.00    +0.025 C 
ATOM     13  C   UNL     1       1.237  -0.687  -0.013  0.00  0.00    +0.006 A 
ATOM     14  C   UNL     1       0.002  -0.004   0.002  0.00  0.00    +0.010 A 
ATOM     15  H   UNL     1       4.457  -0.417  -0.045  0.00  0.00    +0.160 HD
ENDBRANCH   1  12
BRANCH   5  16
ATOM     16  C   UNL     1       2.363  -5.042  -0.050  0.00  0.00    +0.200 C 
BRANCH  16  17
ATOM     17  C   UNL     1       2.841  -5.246   1.365  0.00  0.00    +0.125 A 
ATOM     18  C   UNL     1       2.669  -6.359   2.100  0.00  0.00    +0.046 A 
ATOM     19  C   UNL     1       3.270  -6.116   3.357  0.00  0.00    +0.041 A 
ATOM     20  C   UNL     1       3.772  -4.869   3.314  0.00  0.00    +0.195 A 
ATOM     21  O   UNL     1       3.514  -4.349   2.103  0.00  0.00    -0.466 OA
ENDBRANCH  16  17
ENDBRANCH   5  16
BRANCH   4  22
ATOM     22  S   UNL     1      -0.360  -6.902  -0.025  0.00  0.00    -0.077 S 
BRANCH  22  23
ATOM     23  C   UNL     1      -2.157  -7.145  -0.016  0.00  0.00    +0.173 C 
BRANCH  23  24
ATOM     24  C   UNL     1      -2.466  -8.620  -0.018  0.00  0.00    +0.224 C 
ATOM     25  O   UNL     1      -1.561  -9.428  -0.025  0.00  0.00    -0.275 OA
ATOM     26  N   UNL     1      -3.746  -9.041  -0.012  0.00  0.00    -0.311 N 
ATOM     27  H   UNL     1      -4.469  -8.394  -0.007  0.00  0.00    +0.149 HD
BRANCH  26  28
ATOM     28  C   UNL     1      -4.045 -10.475  -0.014  0.00  0.00    +0.139 C 
BRANCH  28  29
ATOM     29  C   UNL     1      -5.539 -10.676  -0.007  0.00  0.00    -0.030 A 
ATOM     30  C   UNL     1      -6.218 -10.765   1.194  0.00  0.00    +0.006 A 
ATOM     31  C   UNL     1      -7.588 -10.950   1.201  0.00  0.00    +0.020 A 
ATOM     32  C   UNL     1      -8.279 -11.045   0.006  0.00  0.00    +0.041 A 
ATOM     33  C   UNL     1      -7.599 -10.956  -1.195  0.00  0.00    +0.020 A 
ATOM     34  C   UNL     1      -6.230 -10.765  -1.201  0.00  0.00    +0.006 A 
ATOM     35 CL   UNL     1      -9.999 -11.277   0.015  0.00  0.00    -0.084 Cl
ENDBRANCH  28  29
ENDBRANCH  26  28
ENDBRANCH  23  24
ENDBRANCH  22  23
ENDBRANCH   4  22
TORSDOF 8
