REMARK  Name = ZINC22097058
REMARK  15 active torsions:
REMARK  status: ('A' for Active; 'I' for Inactive)
REMARK    1  A    between atoms: C_1  and  C_2
REMARK    2  A    between atoms: C_2  and  C_3
REMARK    3  A    between atoms: C_3  and  N_4
REMARK    4  A    between atoms: C_8  and  C_10
REMARK    5  A    between atoms: C_10  and  S_11
REMARK    6  A    between atoms: S_11  and  C_12
REMARK    7  A    between atoms: N_22  and  C_23
REMARK    8  A    between atoms: C_23  and  C_24
REMARK    9  A    between atoms: C_24  and  N_25
REMARK   10  A    between atoms: N_25  and  C_26
REMARK   11  A    between atoms: N_25  and  C_29
REMARK   12  A    between atoms: C_26  and  C_27
REMARK   13  A    between atoms: C_26  and  C_28
REMARK   14  A    between atoms: C_29  and  C_30
REMARK   15  A    between atoms: C_29  and  C_31
REMARK                            x       y       z     vdW  Elec       q    Type
REMARK                         _______ _______ _______ _____ _____    ______ ____
ROOT
ATOM      1  C   UNL     1      -1.618  -2.147   0.259  0.00  0.00    +0.173 A 
ATOM      2  N   UNL     1      -1.750  -0.844   0.280  0.00  0.00    -0.223 NA
ATOM      3  C   UNL     1      -0.685  -0.024   0.183  0.00  0.00    +0.079 A 
ATOM      4  C   UNL     1      -0.827   1.367   0.205  0.00  0.00    +0.028 A 
ATOM      5  C   UNL     1       0.281   2.161   0.105  0.00  0.00    +0.002 A 
ATOM      6  C   UNL     1       1.548   1.608  -0.019  0.00  0.00    +0.001 A 
ATOM      7  C   UNL     1       1.719   0.251  -0.044  0.00  0.00    +0.015 A 
ATOM      8  C   UNL     1       0.607  -0.583   0.057  0.00  0.00    +0.065 A 
ATOM      9  C   UNL     1       0.730  -2.047   0.036  0.00  0.00    +0.262 A 
ATOM     10  O   UNL     1       1.815  -2.588  -0.070  0.00  0.00    -0.267 OA
ATOM     11  N   UNL     1      -0.409  -2.771   0.140  0.00  0.00    -0.289 N 
ENDROOT
BRANCH   1  12
ATOM     12  S   UNL     1      -3.067  -3.141   0.390  0.00  0.00    -0.078 S 
BRANCH  12  13
ATOM     13  C   UNL     1      -4.325  -1.847   0.518  0.00  0.00    +0.173 C 
BRANCH  13  18
ATOM     14  N   UNL     1      -9.098  -1.496   0.973  0.00  0.00    -0.299 N 
ATOM     15  C   UNL     1      -8.001  -2.272   0.864  0.00  0.00    +0.306 C 
ATOM     16  O   UNL     1      -8.110  -3.482   0.867  0.00  0.00    -0.252 OA
ATOM     17  N   UNL     1      -6.784  -1.705   0.752  0.00  0.00    -0.240 N 
ATOM     18  C   UNL     1      -5.687  -2.481   0.643  0.00  0.00    +0.231 C 
ATOM     19  O   UNL     1      -5.795  -3.688   0.646  0.00  0.00    -0.274 OA
ATOM     20  H   UNL     1      -9.000  -0.401   0.970  0.00  0.00    +0.150 HD
ATOM     21  H   UNL     1      -6.685  -0.610   0.749  0.00  0.00    +0.159 HD
BRANCH  14  22
ATOM     22  C   UNL     1     -10.422  -2.112   1.095  0.00  0.00    +0.105 C 
BRANCH  22  24
ATOM     23  C   UNL     1     -12.868  -1.662   1.330  0.00  0.00    +0.005 C 
ATOM     24  C   UNL     1     -11.486  -1.018   1.202  0.00  0.00    +0.015 C 
ENDBRANCH  22  24
ENDBRANCH  14  22
ENDBRANCH  13  18
ENDBRANCH  12  13
ENDBRANCH   1  12
BRANCH  11  25
ATOM     25  C   UNL     1      -0.344  -4.235   0.125  0.00  0.00    +0.109 C 
BRANCH  25  26
ATOM     26  C   UNL     1      -0.184  -4.753   1.556  0.00  0.00    -0.056 C 
BRANCH  26  27
ATOM     27  N   UNL     1      -0.261  -6.220   1.557  0.00  0.00    +0.384 N 
ATOM     28  H   UNL     1      -1.132  -6.514   0.952  0.00  0.00    -0.081 HD
BRANCH  27  29
ATOM     29  C   UNL     1       0.935  -6.810   0.942  0.00  0.00    -0.074 C 
ATOM     30  C   UNL     1       0.720  -6.944  -0.567  0.00  0.00    -0.014 C 
ATOM     31  C   UNL     1       2.143  -5.908   1.207  0.00  0.00    -0.014 C 
ENDBRANCH  27  29
BRANCH  27  32
ATOM     32  C   UNL     1      -0.462  -6.736   2.918  0.00  0.00    -0.074 C 
ATOM     33  C   UNL     1      -1.701  -6.082   3.533  0.00  0.00    -0.014 C 
ATOM     34  C   UNL     1      -0.659  -8.252   2.865  0.00  0.00    -0.014 C 
ENDBRANCH  27  32
ENDBRANCH  26  27
ENDBRANCH  25  26
ENDBRANCH  11  25
TORSDOF 10
