REMARK  Name = ZINC15225378
REMARK  8 active torsions:
REMARK  status: ('A' for Active; 'I' for Inactive)
REMARK    1  A    between atoms: C_4  and  C_8
REMARK    2  A    between atoms: C_8  and  N_9
REMARK    3  A    between atoms: N_9  and  C_10
REMARK    4  A    between atoms: N_9  and  S_22
REMARK    5  A    between atoms: C_10  and  C_11
REMARK    6  A    between atoms: N_13  and  N_14
REMARK    7  A    between atoms: C_15  and  C_16
REMARK    8  A    between atoms: S_22  and  C_25
REMARK                            x       y       z     vdW  Elec       q    Type
REMARK                         _______ _______ _______ _____ _____    ______ ____
ROOT
ATOM      1  N   UNL     1      -2.875   1.276   1.399  0.00  0.00    -0.163 NA
ENDROOT
BRANCH   1   2
ATOM      2  S   UNL     1      -3.999   2.167   2.227  0.00  0.00    +0.062 S 
ATOM      3  O   UNL     1      -3.661   2.068   3.603  0.00  0.00    -0.153 OA
ATOM      4  O   UNL     1      -4.103   3.415   1.555  0.00  0.00    -0.153 OA
BRANCH   2   5
ATOM      5  C   UNL     1      -5.552   1.359   2.031  0.00  0.00    +0.106 A 
ATOM      6  C   UNL     1      -6.376   1.693   0.972  0.00  0.00    +0.030 A 
ATOM      7  C   UNL     1      -7.592   1.056   0.815  0.00  0.00    +0.022 A 
ATOM      8  C   UNL     1      -7.990   0.091   1.723  0.00  0.00    +0.041 A 
ATOM      9  C   UNL     1      -7.167  -0.240   2.785  0.00  0.00    +0.022 A 
ATOM     10  C   UNL     1      -5.949   0.395   2.938  0.00  0.00    +0.030 A 
ATOM     11 CL   UNL     1      -9.520  -0.706   1.529  0.00  0.00    -0.084 Cl
ENDBRANCH   2   5
ENDBRANCH   1   2
BRANCH   1  12
ATOM     12  C   UNL     1      -2.486   1.667   0.041  0.00  0.00    +0.148 C 
BRANCH  12  16
ATOM     13  C   UNL     1       1.648   2.748   0.007  0.00  0.00    +0.003 A 
ATOM     14  C   UNL     1       1.278   1.428  -0.171  0.00  0.00    +0.020 A 
ATOM     15  C   UNL     1      -0.061   1.078  -0.164  0.00  0.00    +0.047 A 
ATOM     16  C   UNL     1      -1.028   2.048   0.027  0.00  0.00    +0.005 A 
ATOM     17  C   UNL     1      -0.657   3.369   0.199  0.00  0.00    +0.047 A 
ATOM     18  C   UNL     1       0.682   3.718   0.192  0.00  0.00    +0.020 A 
ATOM     19 CL   UNL     1      -1.871   4.589   0.432  0.00  0.00    -0.083 Cl
ATOM     20 CL   UNL     1      -0.526  -0.580  -0.386  0.00  0.00    -0.083 Cl
ENDBRANCH  12  16
ENDBRANCH   1  12
BRANCH   1  21
ATOM     21  C   UNL     1      -2.270   0.097   2.023  0.00  0.00    +0.207 C 
BRANCH  21  22
ATOM     22  C   UNL     1      -0.963   0.483   2.665  0.00  0.00    +0.248 C 
ATOM     23  O   UNL     1      -0.574   1.631   2.606  0.00  0.00    -0.273 OA
ATOM     24  N   UNL     1      -0.225  -0.446   3.304  0.00  0.00    -0.206 N 
ATOM     25  H   UNL     1      -0.536  -1.364   3.350  0.00  0.00    +0.177 HD
BRANCH  24  26
ATOM     26  N   UNL     1       0.991  -0.087   3.900  0.00  0.00    -0.188 NA
ATOM     27  C   UNL     1       1.701  -0.982   4.515  0.00  0.00    +0.139 C 
BRANCH  27  28
ATOM     28  C   UNL     1       2.981  -0.604   5.143  0.00  0.00    +0.013 A 
ATOM     29  C   UNL     1       3.755  -1.559   5.815  0.00  0.00    +0.012 A 
ATOM     30  C   UNL     1       4.950  -1.153   6.382  0.00  0.00    +0.020 A 
ATOM     31  C   UNL     1       5.334   0.172   6.278  0.00  0.00    +0.111 A 
ATOM     32  N   UNL     1       4.583   1.051   5.643  0.00  0.00    -0.263 NA
ATOM     33  C   UNL     1       3.440   0.714   5.083  0.00  0.00    +0.120 A 
ENDBRANCH  27  28
ENDBRANCH  24  26
ENDBRANCH  21  22
ENDBRANCH   1  21
TORSDOF 8
