REMARK  Name = ZINC39530019
REMARK  5 active torsions:
REMARK  status: ('A' for Active; 'I' for Inactive)
REMARK    1  A    between atoms: C_1  and  O_2
REMARK    2  A    between atoms: O_2  and  C_3
REMARK    3  A    between atoms: N_6  and  C_10
REMARK    4  A    between atoms: C_15  and  C_16
REMARK    5  A    between atoms: C_21  and  O_22
REMARK                            x       y       z     vdW  Elec       q    Type
REMARK                         _______ _______ _______ _____ _____    ______ ____
ROOT
ATOM      1  C   UNL     1       2.506  -3.469  -2.097  0.00  0.00    +0.038 A 
ATOM      2  C   UNL     1       2.382  -4.825  -1.834  0.00  0.00    +0.026 A 
ATOM      3  C   UNL     1       3.497  -5.641  -1.863  0.00  0.00    +0.040 A 
ATOM      4  C   UNL     1       4.744  -5.111  -2.153  0.00  0.00    +0.124 A 
ATOM      5  C   UNL     1       4.882  -3.761  -2.417  0.00  0.00    +0.048 A 
ATOM      6  C   UNL     1       3.763  -2.931  -2.397  0.00  0.00    +0.009 A 
ATOM      7  F   UNL     1       5.829  -5.916  -2.178  0.00  0.00    -0.205 F 
ENDROOT
BRANCH   1  10
ATOM      8  C   UNL     1      -0.823  -2.590  -3.112  0.00  0.00    +0.203 C 
ATOM      9  C   UNL     1       0.668  -2.295  -3.307  0.00  0.00    +0.152 C 
ATOM     10  N   UNL     1       1.380  -2.643  -2.068  0.00  0.00    -0.324 N 
ATOM     11  C   UNL     1       0.874  -2.100  -0.799  0.00  0.00    +0.120 C 
ATOM     12  C   UNL     1      -0.625  -2.403  -0.702  0.00  0.00    +0.102 C 
ATOM     13  N   UNL     1      -1.302  -1.902  -1.905  0.00  0.00    -0.289 NA
ATOM     14  H   UNL     1      -1.192  -0.902  -1.992  0.00  0.00    +0.124 HD
BRANCH   8  16
ATOM     15  C   UNL     1      -2.919  -2.547  -4.274  0.00  0.00    +0.196 C 
ATOM     16  O   UNL     1      -1.554  -2.125  -4.248  0.00  0.00    -0.363 OA
ENDBRANCH   8  16
ENDBRANCH   1  10
BRANCH   6  17
ATOM     17  C   UNL     1       3.904  -1.484  -2.686  0.00  0.00    +0.025 A 
ATOM     18  C   UNL     1       4.243  -1.056  -3.967  0.00  0.00    +0.012 A 
ATOM     19  C   UNL     1       4.373   0.293  -4.231  0.00  0.00    +0.001 A 
ATOM     20  C   UNL     1       4.169   1.222  -3.226  0.00  0.00    +0.004 A 
ATOM     21  C   UNL     1       3.832   0.808  -1.951  0.00  0.00    +0.046 A 
ATOM     22  C   UNL     1       3.692  -0.542  -1.674  0.00  0.00    +0.125 A 
BRANCH  22  23
ATOM     23  O   UNL     1       3.356  -0.950  -0.422  0.00  0.00    -0.506 OA
ATOM     24  H   UNL     1       4.114  -1.108   0.157  0.00  0.00    +0.292 HD
ENDBRANCH  22  23
ENDBRANCH   6  17
TORSDOF 4
