REMARK  Name = ZINC13395383
REMARK  10 active torsions:
REMARK  status: ('A' for Active; 'I' for Inactive)
REMARK    1  A    between atoms: C_4  and  C_7
REMARK    2  A    between atoms: C_7  and  C_9
REMARK    3  A    between atoms: C_7  and  S_26
REMARK    4  A    between atoms: N_11  and  C_12
REMARK    5  A    between atoms: C_15  and  S_18
REMARK    6  A    between atoms: S_18  and  N_21
REMARK    7  A    between atoms: N_21  and  C_22
REMARK    8  A    between atoms: C_22  and  C_23
REMARK    9  A    between atoms: C_23  and  C_24
REMARK   10  A    between atoms: S_26  and  C_27
REMARK                            x       y       z     vdW  Elec       q    Type
REMARK                         _______ _______ _______ _____ _____    ______ ____
ROOT
ATOM      1  C   UNL     1      -1.460   6.038  -5.155  0.00  0.00    +0.235 C 
ATOM      2  O   UNL     1      -0.954   6.566  -4.188  0.00  0.00    -0.274 OA
ATOM      3  N   UNL     1      -1.842   4.747  -5.096  0.00  0.00    -0.284 N 
ATOM      4  H   UNL     1      -2.176   4.302  -5.891  0.00  0.00    +0.155 HD
ENDROOT
BRANCH   3   5
ATOM      5  C   UNL     1      -1.757   4.047  -3.887  0.00  0.00    +0.034 A 
ATOM      6  C   UNL     1      -1.964   4.708  -2.684  0.00  0.00    +0.025 A 
ATOM      7  C   UNL     1      -1.880   4.015  -1.493  0.00  0.00    +0.030 A 
ATOM      8  C   UNL     1      -1.589   2.663  -1.497  0.00  0.00    +0.105 A 
ATOM      9  C   UNL     1      -1.377   2.002  -2.693  0.00  0.00    +0.030 A 
ATOM     10  C   UNL     1      -1.465   2.689  -3.888  0.00  0.00    +0.025 A 
BRANCH   8  11
ATOM     11  S   UNL     1      -1.483   1.782   0.025  0.00  0.00    +0.058 S 
ATOM     12  O   UNL     1      -1.178   2.740   1.029  0.00  0.00    -0.153 OA
ATOM     13  O   UNL     1      -0.662   0.647  -0.219  0.00  0.00    -0.153 OA
BRANCH  11  14
ATOM     14  N   UNL     1      -2.998   1.205   0.364  0.00  0.00    -0.189 NA
ATOM     15  H   UNL     1      -3.476   1.529   1.144  0.00  0.00    +0.148 HD
BRANCH  14  16
ATOM     16  C   UNL     1      -3.618   0.212  -0.516  0.00  0.00    +0.117 C 
BRANCH  16  17
ATOM     17  C   UNL     1      -4.819  -0.418   0.192  0.00  0.00    +0.142 C 
BRANCH  17  18
ATOM     18  C   UNL     1      -5.457  -1.440  -0.713  0.00  0.00    +0.357 C 
ATOM     19  O   UNL     1      -4.998  -1.643  -1.812  0.00  0.00    -0.246 OA
ATOM     20  O   UNL     1      -6.535  -2.123  -0.299  0.00  0.00    -0.246 OA
ENDBRANCH  17  18
ENDBRANCH  16  17
ENDBRANCH  14  16
ENDBRANCH  11  14
ENDBRANCH   8  11
ENDBRANCH   3   5
BRANCH   1  21
ATOM     21  C   UNL     1      -1.662   6.825  -6.424  0.00  0.00    +0.167 C 
BRANCH  21  25
ATOM     22  C   UNL     1       1.452   5.889  -9.194  0.00  0.00    +0.000 A 
ATOM     23  C   UNL     1       0.133   5.648  -9.530  0.00  0.00    +0.000 A 
ATOM     24  C   UNL     1      -0.875   5.951  -8.633  0.00  0.00    +0.005 A 
ATOM     25  C   UNL     1      -0.564   6.495  -7.401  0.00  0.00    -0.025 A 
ATOM     26  C   UNL     1       0.755   6.741  -7.067  0.00  0.00    +0.005 A 
ATOM     27  C   UNL     1       1.763   6.433  -7.962  0.00  0.00    +0.000 A 
ENDBRANCH  21  25
BRANCH  21  28
ATOM     28  S   UNL     1      -1.623   8.600  -6.047  0.00  0.00    -0.108 S 
BRANCH  28  29
ATOM     29  C   UNL     1      -2.016   9.370  -7.582  0.00  0.00    +0.009 A 
ATOM     30  C   UNL     1      -2.260   8.594  -8.709  0.00  0.00    +0.015 A 
ATOM     31  C   UNL     1      -2.573   9.202  -9.909  0.00  0.00    +0.001 A 
ATOM     32  C   UNL     1      -2.633  10.581  -9.993  0.00  0.00    +0.000 A 
ATOM     33  C   UNL     1      -2.386  11.356  -8.875  0.00  0.00    +0.001 A 
ATOM     34  C   UNL     1      -2.078  10.756  -7.670  0.00  0.00    +0.015 A 
ENDBRANCH  28  29
ENDBRANCH  21  28
ENDBRANCH   1  21
TORSDOF 10
