REMARK  Name = ZINC12572613
REMARK  13 active torsions:
REMARK  status: ('A' for Active; 'I' for Inactive)
REMARK    1  A    between atoms: C_1  and  C_2
REMARK    2  A    between atoms: C_2  and  O_3
REMARK    3  A    between atoms: O_3  and  C_4
REMARK    4  A    between atoms: C_4  and  C_6
REMARK    5  A    between atoms: C_11  and  C_12
REMARK    6  A    between atoms: C_11  and  N_66
REMARK    7  A    between atoms: C_12  and  C_14
REMARK    8  A    between atoms: C_12  and  O_36
REMARK    9  A    between atoms: C_14  and  O_15
REMARK   10  A    between atoms: O_15  and  C_16
REMARK   11  A    between atoms: C_23  and  C_35
REMARK   12  A    between atoms: C_24  and  O_27
REMARK   13  A    between atoms: O_27  and  C_28
REMARK                            x       y       z     vdW  Elec       q    Type
REMARK                         _______ _______ _______ _____ _____    ______ ____
ROOT
ATOM      1  C   UNL     1      -0.725   1.177  -4.808  0.00  0.00    +0.124 A 
ATOM      2  C   UNL     1       0.528   0.597  -4.998  0.00  0.00    +0.046 A 
ATOM      3  C   UNL     1       0.991   0.351  -6.258  0.00  0.00    +0.019 A 
ATOM      4  C   UNL     1       0.208   0.691  -7.362  0.00  0.00    +0.068 A 
ATOM      5  C   UNL     1      -1.055   1.282  -7.180  0.00  0.00    +0.142 A 
ATOM      6  C   UNL     1      -1.513   1.522  -5.892  0.00  0.00    +0.092 A 
ATOM      7  O   UNL     1      -1.803   1.608  -8.254  0.00  0.00    -0.456 OA
ATOM      8  C   UNL     1      -1.390   1.389  -9.509  0.00  0.00    +0.148 A 
ATOM      9  C   UNL     1      -0.198   0.830  -9.798  0.00  0.00    +0.213 A 
ATOM     10  C   UNL     1       0.673   0.447  -8.738  0.00  0.00    +0.235 A 
ATOM     11  O   UNL     1       1.759  -0.062  -8.961  0.00  0.00    -0.283 OA
ATOM     12  C   UNL     1      -2.295   1.786 -10.647  0.00  0.00    +0.090 C 
ENDROOT
BRANCH   1  13
ATOM     13  O   UNL     1      -1.173   1.412  -3.548  0.00  0.00    -0.489 OA
BRANCH  13  14
ATOM     14  C   UNL     1      -0.312   1.035  -2.472  0.00  0.00    +0.258 C 
BRANCH  14  15
ATOM     15  C   UNL     1      -0.983   1.374  -1.139  0.00  0.00    +0.135 C 
BRANCH  15  16
ATOM     16  O   UNL     1      -2.159   0.578  -0.981  0.00  0.00    -0.390 OA
ATOM     17  H   UNL     1      -1.991  -0.375  -0.981  0.00  0.00    +0.210 HD
ENDBRANCH  15  16
BRANCH  15  18
ATOM     18  C   UNL     1      -0.013   1.086   0.008  0.00  0.00    -0.044 C 
BRANCH  18  24
ATOM     19  C   UNL     1      -0.936   2.609   3.895  0.00  0.00    +0.094 C 
ATOM     20  C   UNL     1      -1.729   3.105   2.683  0.00  0.00    -0.004 C 
ATOM     21  C   UNL     1      -0.925   2.837   1.409  0.00  0.00    -0.078 C 
ATOM     22  C   UNL     1       0.139   0.907   2.417  0.00  0.00    -0.078 C 
ATOM     23  C   UNL     1      -0.633   1.118   3.722  0.00  0.00    -0.004 C 
ATOM     24  N   UNL     1      -0.688   1.383   1.288  0.00  0.00    +0.381 N 
ATOM     25  H   UNL     1      -1.592   0.895   1.309  0.00  0.00    -0.082 HD
BRANCH  19  26
ATOM     26  C   UNL     1      -1.748   2.815   5.148  0.00  0.00    +0.310 C 
ATOM     27  O   UNL     1      -2.848   3.309   5.080  0.00  0.00    -0.251 OA
BRANCH  26  28
ATOM     28  O   UNL     1      -1.248   2.451   6.339  0.00  0.00    -0.465 OA
BRANCH  28  30
ATOM     29  C   UNL     1      -1.354   2.205   8.760  0.00  0.00    +0.048 C 
ATOM     30  C   UNL     1      -2.086   2.680   7.503  0.00  0.00    +0.229 C 
ENDBRANCH  28  30
ENDBRANCH  26  28
ENDBRANCH  19  26
ENDBRANCH  18  24
ENDBRANCH  15  18
ENDBRANCH  14  15
ENDBRANCH  13  14
ENDBRANCH   1  13
BRANCH   9  31
ATOM     31  O   UNL     1       0.170   0.631 -11.093  0.00  0.00    -0.449 OA
BRANCH  31  32
ATOM     32  C   UNL     1      -0.163  -0.550 -11.678  0.00  0.00    +0.129 A 
ATOM     33  C   UNL     1      -0.853  -1.512 -10.954  0.00  0.00    +0.048 A 
ATOM     34  C   UNL     1      -1.195  -2.710 -11.552  0.00  0.00    +0.023 A 
ATOM     35  C   UNL     1      -0.841  -2.954 -12.867  0.00  0.00    +0.041 A 
ATOM     36  C   UNL     1      -0.148  -1.998 -13.588  0.00  0.00    +0.023 A 
ATOM     37  C   UNL     1       0.192  -0.797 -12.996  0.00  0.00    +0.048 A 
ATOM     38 CL   UNL     1      -1.266  -4.463 -13.613  0.00  0.00    -0.084 Cl
ENDBRANCH  31  32
ENDBRANCH   9  31
TORSDOF 11
