REMARK  Name = ZINC19315164
REMARK  7 active torsions:
REMARK  status: ('A' for Active; 'I' for Inactive)
REMARK    1  A    between atoms: C_1  and  C_2
REMARK    2  A    between atoms: C_3  and  C_24
REMARK    3  A    between atoms: C_4  and  C_14
REMARK    4  A    between atoms: C_24  and  O_26
REMARK    5  A    between atoms: O_26  and  C_27
REMARK    6  A    between atoms: C_27  and  C_28
REMARK    7  A    between atoms: C_27  and  C_29
REMARK                            x       y       z     vdW  Elec       q    Type
REMARK                         _______ _______ _______ _____ _____    ______ ____
ROOT
ATOM      1  C   UNL     1      -1.208   2.251  -0.289  0.00  0.00    +0.061 C 
ATOM      2  C   UNL     1       0.044   1.425  -0.137  0.00  0.00    +0.016 C 
ATOM      3  C   UNL     1      -0.047   0.089  -0.020  0.00  0.00    +0.065 C 
ATOM      4  C   UNL     1       1.177  -0.764   0.136  0.00  0.00    +0.093 C 
ATOM      5  C   UNL     1       2.416  -0.015  -0.286  0.00  0.00    +0.024 C 
ATOM      6  C   UNL     1       2.405   1.330  -0.395  0.00  0.00    +0.015 C 
ATOM      7  N   UNL     1       1.265   2.040  -0.125  0.00  0.00    -0.321 N 
ATOM      8  C   UNL     1       3.639   2.087  -0.820  0.00  0.00    +0.051 C 
ATOM      9  C   UNL     1       4.888   1.332  -0.358  0.00  0.00    +0.014 C 
ATOM     10  C   UNL     1       4.859  -0.074  -0.965  0.00  0.00    +0.080 C 
ATOM     11  C   UNL     1       3.580  -0.755  -0.560  0.00  0.00    +0.162 C 
ATOM     12  O   UNL     1       3.552  -1.966  -0.466  0.00  0.00    -0.292 OA
ATOM     13  H   UNL     1       1.339   3.113   0.102  0.00  0.00    +0.152 HD
ENDROOT
BRANCH   4  14
ATOM     14  C   UNL     1       1.314  -1.174   1.579  0.00  0.00    -0.018 A 
ATOM     15  C   UNL     1       1.452  -0.210   2.560  0.00  0.00    +0.055 A 
ATOM     16  C   UNL     1       1.573  -0.584   3.888  0.00  0.00    +0.167 A 
ATOM     17  C   UNL     1       1.568  -1.934   4.231  0.00  0.00    +0.167 A 
ATOM     18  C   UNL     1       1.435  -2.896   3.243  0.00  0.00    +0.065 A 
ATOM     19  C   UNL     1       1.308  -2.515   1.919  0.00  0.00    +0.026 A 
ATOM     20 BR   UNL     1       1.127  -3.829   0.572  0.00  0.00    -0.050 Br
ATOM     21  O   UNL     1       1.706  -2.041   5.585  0.00  0.00    -0.453 OA
ATOM     22  C   UNL     1       1.387  -0.738   6.108  0.00  0.00    +0.466 C 
ATOM     23  O   UNL     1       1.716   0.155   5.027  0.00  0.00    -0.453 OA
ENDBRANCH   4  14
BRANCH   3  24
ATOM     24  C   UNL     1      -1.322  -0.524  -0.043  0.00  0.00    +0.338 C 
ATOM     25  O   UNL     1      -1.703  -1.097  -1.046  0.00  0.00    -0.245 OA
BRANCH  24  26
ATOM     26  O   UNL     1      -2.115  -0.473   1.048  0.00  0.00    -0.459 OA
BRANCH  26  27
ATOM     27  C   UNL     1      -3.389  -1.113   0.954  0.00  0.00    +0.171 C 
ATOM     28  C   UNL     1      -3.261  -2.571   1.401  0.00  0.00    +0.052 C 
ATOM     29  C   UNL     1      -4.391  -0.390   1.855  0.00  0.00    +0.052 C 
ENDBRANCH  26  27
ENDBRANCH  24  26
ENDBRANCH   3  24
TORSDOF 4
