REMARK  Name = ZINC63296752
REMARK  8 active torsions:
REMARK  status: ('A' for Active; 'I' for Inactive)
REMARK    1  A    between atoms: C_3  and  O_9
REMARK    2  A    between atoms: O_9  and  C_10
REMARK    3  A    between atoms: C_10  and  C_11
REMARK    4  A    between atoms: C_11  and  C_12
REMARK    5  A    between atoms: C_11  and  O_23
REMARK    6  A    between atoms: C_12  and  N_13
REMARK    7  A    between atoms: N_16  and  C_17
REMARK    8  A    between atoms: C_17  and  C_18
REMARK                            x       y       z     vdW  Elec       q    Type
REMARK                         _______ _______ _______ _____ _____    ______ ____
ROOT
ATOM      1  C   UNL     1       4.859   4.138  -0.024  0.00  0.00    +0.169 C 
ENDROOT
BRANCH   1   2
ATOM      2  O   UNL     1       5.534   3.797   1.189  0.00  0.00    -0.387 OA
ATOM      3  H   UNL     1       5.092   4.116   1.988  0.00  0.00    +0.210 HD
ENDBRANCH   1   2
BRANCH   1   4
ATOM      4  C   UNL     1       3.454   3.533  -0.013  0.00  0.00    +0.262 C 
BRANCH   4   5
ATOM      5  O   UNL     1       3.548   2.107  -0.021  0.00  0.00    -0.488 OA
BRANCH   5   8
ATOM      6  C   UNL     1      -0.017   1.378   0.010  0.00  0.00    +0.005 A 
ATOM      7  C   UNL     1       1.169   2.087   0.002  0.00  0.00    +0.047 A 
ATOM      8  C   UNL     1       2.381   1.411  -0.013  0.00  0.00    +0.140 A 
ATOM      9  C   UNL     1       2.399   0.023  -0.021  0.00  0.00    +0.101 A 
ATOM     10  C   UNL     1       1.209  -0.682  -0.013  0.00  0.00    +0.063 A 
ATOM     11  C   UNL     1       0.002  -0.004   0.002  0.00  0.00    +0.022 A 
ATOM     12 CL   UNL     1       1.229  -2.418  -0.023  0.00  0.00    -0.082 Cl
ATOM     13 CL   UNL     1       3.912  -0.826  -0.040  0.00  0.00    -0.078 Cl
ENDBRANCH   5   8
ENDBRANCH   4   5
ENDBRANCH   1   4
BRANCH   1  14
ATOM     14  C   UNL     1       4.759   5.660  -0.141  0.00  0.00    +0.140 C 
BRANCH  14  15
ATOM     15  N   UNL     1       6.102   6.229  -0.271  0.00  0.00    -0.297 N 
ATOM     16  C   UNL     1       6.261   7.562  -0.389  0.00  0.00    +0.300 C 
ATOM     17  O   UNL     1       5.289   8.293  -0.387  0.00  0.00    -0.253 OA
ATOM     18  N   UNL     1       7.497   8.086  -0.509  0.00  0.00    -0.295 N 
ATOM     19  H   UNL     1       6.878   5.647  -0.272  0.00  0.00    +0.150 HD
ATOM     20  H   UNL     1       8.272   7.504  -0.510  0.00  0.00    +0.151 HD
BRANCH  18  21
ATOM     21  C   UNL     1       7.669   9.535  -0.637  0.00  0.00    +0.141 C 
BRANCH  21  22
ATOM     22  C   UNL     1       9.136   9.858  -0.755  0.00  0.00    -0.023 A 
ATOM     23  C   UNL     1       9.895  10.100   0.375  0.00  0.00    +0.013 A 
ATOM     24  C   UNL     1      11.211  10.387   0.234  0.00  0.00    +0.045 A 
ATOM     25  S   UNL     1      11.416  10.323  -1.538  0.00  0.00    -0.105 S 
ATOM     26  C   UNL     1       9.733   9.911  -1.971  0.00  0.00    +0.050 A 
ENDBRANCH  21  22
ENDBRANCH  18  21
ENDBRANCH  14  15
ENDBRANCH   1  14
TORSDOF 8
