REMARK  Name = ZINC35681271
REMARK  6 active torsions:
REMARK  status: ('A' for Active; 'I' for Inactive)
REMARK    1  A    between atoms: C_1  and  C_2
REMARK    2  A    between atoms: C_2  and  C_3
REMARK    3  A    between atoms: C_2  and  C_4
REMARK    4  A    between atoms: C_2  and  C_5
REMARK    5  A    between atoms: C_13  and  N_21
REMARK    6  A    between atoms: C_14  and  C_18
REMARK                            x       y       z     vdW  Elec       q    Type
REMARK                         _______ _______ _______ _____ _____    ______ ____
ROOT
ATOM      1  C   UNL     1       0.718  -0.497  -1.257  0.00  0.00    -0.001 C 
ATOM      2  C   UNL     1      -0.013   0.018  -2.502  0.00  0.00    +0.010 C 
ATOM      3  C   UNL     1       0.570  -0.683  -3.727  0.00  0.00    +0.054 C 
ATOM      4  C   UNL     1       2.073  -0.571  -3.736  0.00  0.00    +0.020 A 
ATOM      5  C   UNL     1       2.801  -0.246  -2.607  0.00  0.00    -0.027 A 
ATOM      6  C   UNL     1       4.179  -0.165  -2.672  0.00  0.00    +0.017 A 
ATOM      7  C   UNL     1       4.836  -0.411  -3.900  0.00  0.00    +0.027 A 
ATOM      8  C   UNL     1       6.260  -0.380  -4.195  0.00  0.00    +0.055 A 
ATOM      9  C   UNL     1       6.667  -0.657  -5.486  0.00  0.00    +0.123 A 
ATOM     10  S   UNL     1       5.135  -0.967  -6.343  0.00  0.00    -0.062 S 
ATOM     11  C   UNL     1       4.002  -0.730  -4.996  0.00  0.00    +0.088 A 
ATOM     12  N   UNL     1       2.696  -0.798  -4.885  0.00  0.00    -0.352 N 
ATOM     13  C   UNL     1       2.148   0.039  -1.278  0.00  0.00    +0.041 C 
ATOM     14  H   UNL     1       2.170  -1.022  -5.668  0.00  0.00    +0.166 HD
ENDROOT
BRANCH   1  16
ATOM     15  C   UNL     1      -0.019   1.526   0.010  0.00  0.00    +0.011 C 
ATOM     16  C   UNL     1       0.002  -0.004   0.002  0.00  0.00    -0.035 C 
ATOM     17  C   UNL     1       0.742  -0.511   1.242  0.00  0.00    +0.011 C 
ATOM     18  C   UNL     1      -1.433  -0.534   0.013  0.00  0.00    +0.011 C 
ENDBRANCH   1  16
BRANCH   9  19
ATOM     19  C   UNL     1       7.979  -0.686  -6.002  0.00  0.00    +0.395 C 
ATOM     20  O   UNL     1       9.014  -0.424  -5.205  0.00  0.00    -0.240 OA
ATOM     21  O   UNL     1       8.183  -0.975  -7.287  0.00  0.00    -0.240 OA
ENDBRANCH   9  19
BRANCH   8  22
ATOM     22  N   UNL     1       7.184  -0.083  -3.208  0.00  0.00    -0.356 N 
ATOM     23  H   UNL     1       6.884   0.109  -2.305  0.00  0.00    +0.142 HD
ATOM     24  H   UNL     1       8.131  -0.066  -3.418  0.00  0.00    +0.142 HD
ENDBRANCH   8  22
TORSDOF 3
