REMARK  Name = ZINC32655155
REMARK  4 active torsions:
REMARK  status: ('A' for Active; 'I' for Inactive)
REMARK    1  A    between atoms: C_5  and  C_7
REMARK    2  A    between atoms: C_7  and  S_8
REMARK    3  A    between atoms: S_8  and  C_9
REMARK    4  A    between atoms: C_20  and  C_22
REMARK                            x       y       z     vdW  Elec       q    Type
REMARK                         _______ _______ _______ _____ _____    ______ ____
ROOT
ATOM      1  C   UNL     1      -5.815   3.331   1.281  0.00  0.00    +0.171 A 
ATOM      2  N   UNL     1      -5.901   1.972   1.323  0.00  0.00    -0.302 N 
ATOM      3  H   UNL     1      -6.825   1.489   1.674  0.00  0.00    +0.171 HD
ATOM      4  C   UNL     1      -4.853   1.215   0.934  0.00  0.00    +0.258 A 
ATOM      5  O   UNL     1      -4.920  -0.004   0.966  0.00  0.00    -0.267 OA
ATOM      6  C   UNL     1      -3.688   1.853   0.492  0.00  0.00    +0.069 A 
ATOM      7  C   UNL     1      -3.651   3.237   0.474  0.00  0.00    +0.135 A 
ATOM      8  N   UNL     1      -4.721   3.937   0.868  0.00  0.00    -0.208 NA
ATOM      9  N   UNL     1      -2.508   3.885   0.048  0.00  0.00    -0.302 N 
ATOM     10  C   UNL     1      -1.306   3.232   0.017  0.00  0.00    +0.017 C 
ATOM     11  C   UNL     1      -1.250   1.883   0.018  0.00  0.00    +0.024 C 
ATOM     12  C   UNL     1      -2.505   1.048   0.044  0.00  0.00    +0.092 C 
ATOM     13  C   UNL     1      -0.014   1.211   0.009  0.00  0.00    +0.162 C 
ATOM     14  O   UNL     1       0.002  -0.004   0.002  0.00  0.00    -0.292 OA
ATOM     15  C   UNL     1       1.286   1.966   0.000  0.00  0.00    +0.080 C 
ATOM     16  C   UNL     1       1.083   3.317   0.694  0.00  0.00    +0.014 C 
ATOM     17  C   UNL     1      -0.046   4.062  -0.021  0.00  0.00    +0.051 C 
ATOM     18  H   UNL     1      -2.559   4.936  -0.271  0.00  0.00    +0.153 HD
ENDROOT
BRANCH  12  19
ATOM     19  C   UNL     1      -2.767   0.517  -1.342  0.00  0.00    -0.034 A 
ATOM     20  C   UNL     1      -2.777  -0.847  -1.568  0.00  0.00    +0.006 A 
ATOM     21  C   UNL     1      -3.016  -1.336  -2.839  0.00  0.00    +0.022 A 
ATOM     22  C   UNL     1      -3.246  -0.460  -3.885  0.00  0.00    +0.059 A 
ATOM     23  C   UNL     1      -3.236   0.906  -3.658  0.00  0.00    +0.060 A 
ATOM     24  C   UNL     1      -3.002   1.393  -2.385  0.00  0.00    +0.026 A 
ATOM     25 CL   UNL     1      -3.524   2.006  -4.970  0.00  0.00    -0.082 Cl
ATOM     26 CL   UNL     1      -3.547  -1.073  -5.481  0.00  0.00    -0.082 Cl
ENDBRANCH  12  19
BRANCH   1  27
ATOM     27  S   UNL     1      -7.197   4.298   1.790  0.00  0.00    -0.083 S 
BRANCH  27  28
ATOM     28  C   UNL     1      -6.530   5.960   1.529  0.00  0.00    +0.115 C 
BRANCH  28  33
ATOM     29  C   UNL     1      -9.417   8.384   1.311  0.00  0.00    +0.000 A 
ATOM     30  C   UNL     1      -9.477   8.862   2.607  0.00  0.00    +0.003 A 
ATOM     31  C   UNL     1      -8.583   8.402   3.555  0.00  0.00    +0.038 A 
ATOM     32  C   UNL     1      -7.628   7.462   3.207  0.00  0.00    +0.127 A 
ATOM     33  C   UNL     1      -7.569   6.984   1.909  0.00  0.00    -0.002 A 
ATOM     34  C   UNL     1      -8.461   7.449   0.961  0.00  0.00    +0.007 A 
ATOM     35  F   UNL     1      -6.753   7.011   4.133  0.00  0.00    -0.205 F 
ENDBRANCH  28  33
ENDBRANCH  27  28
ENDBRANCH   1  27
TORSDOF 4
