REMARK  Name = ZINC28780051
REMARK  5 active torsions:
REMARK  status: ('A' for Active; 'I' for Inactive)
REMARK    1  A    between atoms: C_1  and  N_2
REMARK    2  A    between atoms: C_6  and  C_7
REMARK    3  A    between atoms: N_9  and  N_10
REMARK    4  A    between atoms: N_10  and  S_11
REMARK    5  A    between atoms: S_11  and  C_14
REMARK                            x       y       z     vdW  Elec       q    Type
REMARK                         _______ _______ _______ _____ _____    ______ ____
ROOT
ATOM      1  N   UNL     1       0.727  -2.880   1.954  0.00  0.00    -0.108 NA
ATOM      2  H   UNL     1       1.206  -3.311   2.680  0.00  0.00    +0.172 HD
ENDROOT
BRANCH   1   5
ATOM      3  C   UNL     1      -1.514  -3.518   2.443  0.00  0.00    +0.275 C 
ATOM      4  O   UNL     1      -1.151  -4.675   2.541  0.00  0.00    -0.267 OA
ATOM      5  N   UNL     1      -0.628  -2.560   2.102  0.00  0.00    -0.227 N 
ATOM      6  H   UNL     1      -0.971  -1.527   1.940  0.00  0.00    +0.171 HD
BRANCH   3  12
ATOM      7  C   UNL     1      -3.808  -5.498   3.081  0.00  0.00    +0.149 C 
ATOM      8  N   UNL     1      -3.936  -4.042   2.979  0.00  0.00    -0.345 N 
ATOM      9  C   UNL     1      -5.081  -3.335   3.149  0.00  0.00    +0.101 A 
ATOM     10  C   UNL     1      -4.811  -2.018   2.980  0.00  0.00    +0.036 A 
ATOM     11  C   UNL     1      -3.447  -1.893   2.699  0.00  0.00    +0.047 A 
ATOM     12  C   UNL     1      -2.915  -3.164   2.696  0.00  0.00    +0.106 A 
ATOM     13 BR   UNL     1      -6.057  -0.601   3.107  0.00  0.00    -0.049 Br
ENDBRANCH   3  12
ENDBRANCH   1   5
BRANCH   1  14
ATOM     14  S   UNL     1       1.513  -2.524   0.540  0.00  0.00    +0.076 S 
ATOM     15  O   UNL     1       0.751  -3.111  -0.506  0.00  0.00    -0.152 OA
ATOM     16  O   UNL     1       2.884  -2.832   0.749  0.00  0.00    -0.152 OA
BRANCH  14  17
ATOM     17  C   UNL     1       1.416  -0.779   0.316  0.00  0.00    +0.145 A 
ATOM     18  C   UNL     1       2.568  -0.015   0.343  0.00  0.00    +0.034 A 
ATOM     19  C   UNL     1       2.495   1.354   0.167  0.00  0.00    +0.043 A 
ATOM     20  C   UNL     1       1.268   1.963  -0.036  0.00  0.00    +0.161 A 
ATOM     21  C   UNL     1       0.113   1.198  -0.063  0.00  0.00    +0.195 A 
ATOM     22  C   UNL     1       0.188  -0.174   0.114  0.00  0.00    +0.187 A 
ATOM     23  F   UNL     1      -0.937  -0.922   0.087  0.00  0.00    -0.200 F 
ATOM     24  F   UNL     1      -1.085   1.790  -0.267  0.00  0.00    -0.199 F 
ATOM     25  F   UNL     1       1.198   3.301  -0.209  0.00  0.00    -0.202 F 
ENDBRANCH  14  17
ENDBRANCH   1  14
TORSDOF 4
