REMARK  Name = ZINC12629603
REMARK  13 active torsions:
REMARK  status: ('A' for Active; 'I' for Inactive)
REMARK    1  A    between atoms: C_1  and  C_2
REMARK    2  A    between atoms: C_2  and  O_3
REMARK    3  A    between atoms: O_3  and  C_4
REMARK    4  A    between atoms: C_4  and  C_5
REMARK    5  A    between atoms: C_5  and  N_6
REMARK    6  A    between atoms: C_10  and  S_29
REMARK    7  A    between atoms: N_15  and  C_16
REMARK    8  A    between atoms: C_16  and  C_18
REMARK    9  A    between atoms: C_18  and  C_19
REMARK   10  A    between atoms: C_19  and  C_20
REMARK   11  A    between atoms: C_20  and  S_21
REMARK   12  A    between atoms: S_21  and  C_22
REMARK   13  A    between atoms: S_29  and  N_32
REMARK                            x       y       z     vdW  Elec       q    Type
REMARK                         _______ _______ _______ _____ _____    ______ ____
ROOT
ATOM      1  N   UNL     1      -0.778   1.621   1.137  0.00  0.00    -0.319 N 
ATOM      2  C   UNL     1      -0.126   1.991   2.298  0.00  0.00    +0.058 A 
ATOM      3  C   UNL     1       1.247   1.931   2.584  0.00  0.00    +0.029 A 
ATOM      4  C   UNL     1       1.730   2.345   3.803  0.00  0.00    +0.030 A 
ATOM      5  C   UNL     1       0.882   2.833   4.783  0.00  0.00    +0.106 A 
ATOM      6  C   UNL     1      -0.476   2.904   4.528  0.00  0.00    +0.045 A 
ATOM      7  C   UNL     1      -0.960   2.490   3.310  0.00  0.00    +0.041 A 
ATOM      8  S   UNL     1      -2.577   2.409   2.581  0.00  0.00    -0.052 S 
ATOM      9  C   UNL     1      -2.127   1.757   1.038  0.00  0.00    +0.166 A 
ATOM     10  N   UNL     1      -2.913   1.460   0.006  0.00  0.00    -0.156 NA
ENDROOT
BRANCH   5  11
ATOM     11  S   UNL     1       1.526   3.356   6.338  0.00  0.00    +0.056 S 
ATOM     12  O   UNL     1       0.460   3.259   7.272  0.00  0.00    -0.153 OA
ATOM     13  O   UNL     1       2.760   2.675   6.516  0.00  0.00    -0.153 OA
BRANCH  11  14
ATOM     14  N   UNL     1       1.889   4.966   6.200  0.00  0.00    -0.204 NA
ATOM     15  H   UNL     1       1.836   5.543   6.978  0.00  0.00    +0.144 HD
ATOM     16  H   UNL     1       2.154   5.332   5.341  0.00  0.00    +0.144 HD
ENDBRANCH  11  14
ENDBRANCH   5  11
BRANCH  10  17
ATOM     17  C   UNL     1      -4.224   1.662   0.090  0.00  0.00    +0.238 C 
ATOM     18  O   UNL     1      -4.705   2.119   1.110  0.00  0.00    -0.274 OA
BRANCH  17  19
ATOM     19  C   UNL     1      -5.114   1.326  -1.078  0.00  0.00    +0.099 C 
BRANCH  19  20
ATOM     20  C   UNL     1      -6.567   1.651  -0.723  0.00  0.00    +0.020 C 
BRANCH  20  21
ATOM     21  C   UNL     1      -7.471   1.310  -1.909  0.00  0.00    +0.075 C 
BRANCH  21  22
ATOM     22  S   UNL     1      -9.193   1.696  -1.487  0.00  0.00    -0.125 S 
BRANCH  22  23
ATOM     23  C   UNL     1     -10.095   1.253  -2.934  0.00  0.00    +0.008 A 
ATOM     24  C   UNL     1      -9.428   0.744  -4.042  0.00  0.00    +0.017 A 
ATOM     25  C   UNL     1     -10.138   0.393  -5.173  0.00  0.00    +0.039 A 
ATOM     26  C   UNL     1     -11.513   0.557  -5.208  0.00  0.00    +0.123 A 
ATOM     27  C   UNL     1     -12.179   1.069  -4.107  0.00  0.00    +0.039 A 
ATOM     28  C   UNL     1     -11.474   1.417  -2.972  0.00  0.00    +0.017 A 
ATOM     29  F   UNL     1     -12.205   0.218  -6.318  0.00  0.00    -0.205 F 
ENDBRANCH  22  23
ENDBRANCH  21  22
ENDBRANCH  20  21
ENDBRANCH  19  20
ENDBRANCH  17  19
ENDBRANCH  10  17
BRANCH   1  30
ATOM     30  C   UNL     1      -0.013   1.086   0.008  0.00  0.00    +0.152 C 
BRANCH  30  31
ATOM     31  C   UNL     1      -0.621   1.586  -1.304  0.00  0.00    +0.181 C 
BRANCH  31  32
ATOM     32  O   UNL     1       0.202   1.177  -2.397  0.00  0.00    -0.378 OA
BRANCH  32  34
ATOM     33  C   UNL     1       0.674   1.104  -4.766  0.00  0.00    +0.034 C 
ATOM     34  C   UNL     1      -0.280   1.595  -3.676  0.00  0.00    +0.156 C 
ENDBRANCH  32  34
ENDBRANCH  31  32
ENDBRANCH  30  31
ENDBRANCH   1  30
TORSDOF 12
