REMARK  Name = ZINC45800703
REMARK  6 active torsions:
REMARK  status: ('A' for Active; 'I' for Inactive)
REMARK    1  A    between atoms: C_3  and  O_26
REMARK    2  A    between atoms: C_4  and  N_8
REMARK    3  A    between atoms: C_9  and  C_11
REMARK    4  A    between atoms: N_13  and  C_18
REMARK    5  A    between atoms: O_26  and  C_27
REMARK    6  A    between atoms: C_27  and  C_28
REMARK                            x       y       z     vdW  Elec       q    Type
REMARK                         _______ _______ _______ _____ _____    ______ ____
ROOT
ATOM      1  N   UNL     1       3.622  -0.659  -0.037  0.00  0.00    -0.277 N 
ATOM      2  C   UNL     1       3.643  -2.003   0.058  0.00  0.00    +0.264 C 
ATOM      3  O   UNL     1       2.599  -2.629   0.065  0.00  0.00    -0.268 OA
ATOM      4  H   UNL     1       4.453  -0.166  -0.123  0.00  0.00    +0.155 HD
ENDROOT
BRANCH   1   8
ATOM      5  C   UNL     1      -0.015   1.381   0.043  0.00  0.00    +0.024 A 
ATOM      6  C   UNL     1       1.082   1.956  -0.572  0.00  0.00    +0.049 A 
ATOM      7  C   UNL     1       2.292   1.283  -0.601  0.00  0.00    +0.142 A 
ATOM      8  C   UNL     1       2.401   0.026  -0.010  0.00  0.00    +0.077 A 
ATOM      9  C   UNL     1       1.297  -0.545   0.606  0.00  0.00    +0.047 A 
ATOM     10  C   UNL     1       0.092   0.133   0.630  0.00  0.00    +0.043 A 
ATOM     11 CL   UNL     1      -1.289  -0.582   1.401  0.00  0.00    -0.083 Cl
BRANCH   7  12
ATOM     12  O   UNL     1       3.372   1.848  -1.206  0.00  0.00    -0.481 OA
BRANCH  12  13
ATOM     13  C   UNL     1       3.186   3.138  -1.792  0.00  0.00    +0.342 C 
BRANCH  13  14
ATOM     14  C   UNL     1       4.500   3.607  -2.420  0.00  0.00    +0.424 C 
ATOM     15  F   UNL     1       4.895   2.698  -3.408  0.00  0.00    -0.167 F 
ATOM     16  F   UNL     1       4.318   4.870  -2.993  0.00  0.00    -0.167 F 
ATOM     17  F   UNL     1       5.488   3.680  -1.432  0.00  0.00    -0.167 F 
ENDBRANCH  13  14
ENDBRANCH  12  13
ENDBRANCH   7  12
ENDBRANCH   1   8
BRANCH   2  18
ATOM     18  C   UNL     1       4.924  -2.712   0.152  0.00  0.00    +0.122 C 
ATOM     19  N   UNL     1       6.031  -2.036   0.149  0.00  0.00    -0.177 NA
ATOM     20  N   UNL     1       7.271  -2.678   0.235  0.00  0.00    -0.188 N 
ATOM     21  C   UNL     1       7.382  -3.988  -0.059  0.00  0.00    +0.235 C 
ATOM     22  O   UNL     1       8.460  -4.538   0.013  0.00  0.00    -0.274 OA
ATOM     23  C   UNL     1       6.161  -4.767  -0.479  0.00  0.00    +0.104 C 
ATOM     24  C   UNL     1       4.935  -4.214   0.257  0.00  0.00    +0.071 C 
BRANCH  20  25
ATOM     25  C   UNL     1       8.455  -1.921   0.648  0.00  0.00    +0.124 C 
ATOM     26  C   UNL     1       8.225  -1.317   2.043  0.00  0.00    +0.049 C 
ATOM     27  C   UNL     1       9.319  -0.266   2.350  0.00  0.00    +0.168 C 
ATOM     28  S   UNL     1       9.778   0.340   0.675  0.00  0.00    -0.029 S 
ATOM     29  O   UNL     1       9.338   1.683   0.532  0.00  0.00    -0.174 OA
ATOM     30  O   UNL     1      11.140   0.020   0.426  0.00  0.00    -0.174 OA
ATOM     31  C   UNL     1       8.707  -0.754  -0.349  0.00  0.00    +0.190 C 
ENDBRANCH  20  25
ENDBRANCH   2  18
TORSDOF 6
