REMARK  Name = ZINC03411422
REMARK  3 active torsions:
REMARK  status: ('A' for Active; 'I' for Inactive)
REMARK    1  A    between atoms: C_3  and  C_21
REMARK    2  A    between atoms: C_5  and  C_11
REMARK    3  A    between atoms: N_23  and  C_24
REMARK                            x       y       z     vdW  Elec       q    Type
REMARK                         _______ _______ _______ _____ _____    ______ ____
ROOT
ATOM      1  C   UNL     1      -0.925   3.224  -2.876  0.00  0.00    +0.029 C 
ATOM      2  C   UNL     1      -0.590   3.798  -1.736  0.00  0.00    +0.016 C 
ATOM      3  C   UNL     1       0.856   4.112  -1.404  0.00  0.00    +0.143 C 
ATOM      4  C   UNL     1       1.127   3.596   0.015  0.00  0.00    +0.120 C 
ATOM      5  N   UNL     1       0.076   4.071   0.915  0.00  0.00    -0.318 N 
ATOM      6  C   UNL     1      -1.181   4.281   0.503  0.00  0.00    +0.135 C 
ATOM      7  S   UNL     1      -2.360   4.742   1.657  0.00  0.00    -0.019 S 
ATOM      8  N   UNL     1      -1.553   4.144  -0.783  0.00  0.00    -0.300 N 
ATOM      9  H   UNL     1       0.298   4.239   1.844  0.00  0.00    +0.148 HD
ATOM     10  H   UNL     1      -2.476   4.282  -1.045  0.00  0.00    +0.154 HD
ENDROOT
BRANCH   4  11
ATOM     11  C   UNL     1       1.140   2.090   0.008  0.00  0.00    -0.022 A 
ATOM     12  C   UNL     1      -0.052   1.389   0.018  0.00  0.00    +0.009 A 
ATOM     13  C   UNL     1      -0.044   0.007   0.013  0.00  0.00    +0.050 A 
ATOM     14  C   UNL     1       1.160  -0.681  -0.004  0.00  0.00    +0.162 A 
ATOM     15  C   UNL     1       2.358   0.023  -0.016  0.00  0.00    +0.162 A 
ATOM     16  C   UNL     1       2.343   1.410  -0.009  0.00  0.00    +0.055 A 
ATOM     17  O   UNL     1       3.551  -0.632  -0.036  0.00  0.00    -0.485 OA
ATOM     18  C   UNL     1       3.532  -2.015   0.336  0.00  0.00    +0.270 C 
ATOM     19  C   UNL     1       2.365  -2.693  -0.396  0.00  0.00    +0.270 C 
ATOM     20  O   UNL     1       1.151  -2.042  -0.005  0.00  0.00    -0.485 OA
ENDBRANCH   4  11
BRANCH   3  21
ATOM     21  C   UNL     1       1.082   5.601  -1.460  0.00  0.00    +0.228 C 
ATOM     22  O   UNL     1       1.427   6.199  -0.463  0.00  0.00    -0.275 OA
ATOM     23  N   UNL     1       0.900   6.268  -2.617  0.00  0.00    -0.283 N 
ATOM     24  H   UNL     1       0.703   5.780  -3.432  0.00  0.00    +0.155 HD
BRANCH  23  25
ATOM     25  C   UNL     1       0.997   7.665  -2.643  0.00  0.00    +0.069 A 
ATOM     26  C   UNL     1       0.764   8.399  -1.488  0.00  0.00    +0.026 A 
ATOM     27  C   UNL     1       0.865   9.777  -1.515  0.00  0.00    +0.002 A 
ATOM     28  C   UNL     1       1.187  10.426  -2.693  0.00  0.00    +0.003 A 
ATOM     29  C   UNL     1       1.414   9.699  -3.847  0.00  0.00    +0.040 A 
ATOM     30  C   UNL     1       1.319   8.319  -3.826  0.00  0.00    +0.144 A 
ATOM     31  F   UNL     1       1.541   7.608  -4.954  0.00  0.00    -0.204 F 
ENDBRANCH  23  25
ENDBRANCH   3  21
TORSDOF 3
