REMARK  Name = ZINC12892545
REMARK  9 active torsions:
REMARK  status: ('A' for Active; 'I' for Inactive)
REMARK    1  A    between atoms: C_4  and  C_7
REMARK    2  A    between atoms: C_7  and  C_9
REMARK    3  A    between atoms: C_7  and  O_28
REMARK    4  A    between atoms: C_14  and  C_15
REMARK    5  A    between atoms: C_14  and  N_52
REMARK    6  A    between atoms: C_15  and  C_17
REMARK    7  A    between atoms: C_15  and  O_27
REMARK    8  A    between atoms: C_17  and  O_18
REMARK    9  A    between atoms: O_18  and  C_19
REMARK                            x       y       z     vdW  Elec       q    Type
REMARK                         _______ _______ _______ _____ _____    ______ ____
ROOT
ATOM      1  C   UNL     1       0.239   5.628  -1.454  0.00  0.00    +0.019 C 
ATOM      2  C   UNL     1       1.363   5.384  -2.466  0.00  0.00    -0.012 C 
ATOM      3  C   UNL     1       0.949   5.951  -3.826  0.00  0.00    -0.078 C 
ATOM      4  C   UNL     1      -0.422   7.645  -2.768  0.00  0.00    -0.078 C 
ATOM      5  C   UNL     1      -0.050   7.130  -1.376  0.00  0.00    -0.012 C 
ATOM      6  N   UNL     1       0.709   7.403  -3.688  0.00  0.00    +0.381 N 
ATOM      7  H   UNL     1       1.552   7.845  -3.303  0.00  0.00    -0.082 HD
ENDROOT
BRANCH   1   8
ATOM      8  C   UNL     1       0.672   5.118  -0.078  0.00  0.00    +0.147 C 
BRANCH   8  12
ATOM      9  C   UNL     1       1.477   0.929  -0.299  0.00  0.00    +0.000 A 
ATOM     10  C   UNL     1       0.173   1.378  -0.203  0.00  0.00    +0.000 A 
ATOM     11  C   UNL     1      -0.087   2.733  -0.127  0.00  0.00    +0.006 A 
ATOM     12  C   UNL     1       0.956   3.640  -0.156  0.00  0.00    -0.019 A 
ATOM     13  C   UNL     1       2.259   3.191  -0.258  0.00  0.00    +0.006 A 
ATOM     14  C   UNL     1       2.520   1.836  -0.329  0.00  0.00    +0.000 A 
ENDBRANCH   8  12
BRANCH   8  15
ATOM     15  O   UNL     1      -0.374   5.353   0.867  0.00  0.00    -0.387 OA
ATOM     16  H   UNL     1      -1.208   4.913   0.649  0.00  0.00    +0.210 HD
ENDBRANCH   8  15
ENDBRANCH   1   8
BRANCH   6  17
ATOM     17  C   UNL     1       0.419   7.994  -5.011  0.00  0.00    -0.044 C 
BRANCH  17  18
ATOM     18  C   UNL     1       0.641   9.506  -4.930  0.00  0.00    +0.135 C 
BRANCH  18  19
ATOM     19  O   UNL     1       2.008   9.770  -4.609  0.00  0.00    -0.390 OA
ATOM     20  H   UNL     1       2.638   9.424  -5.256  0.00  0.00    +0.210 HD
ENDBRANCH  18  19
BRANCH  18  21
ATOM     21  C   UNL     1       0.301  10.144  -6.278  0.00  0.00    +0.258 C 
BRANCH  21  22
ATOM     22  O   UNL     1       0.396  11.566  -6.170  0.00  0.00    -0.488 OA
BRANCH  22  23
ATOM     23  C   UNL     1       0.122  12.290  -7.287  0.00  0.00    +0.139 A 
ATOM     24  C   UNL     1      -0.229  11.645  -8.464  0.00  0.00    +0.048 A 
ATOM     25  C   UNL     1      -0.507  12.382  -9.599  0.00  0.00    +0.023 A 
ATOM     26  C   UNL     1      -0.434  13.764  -9.563  0.00  0.00    +0.043 A 
ATOM     27  C   UNL     1      -0.083  14.409  -8.391  0.00  0.00    +0.043 A 
ATOM     28  C   UNL     1       0.190  13.676  -7.251  0.00  0.00    +0.084 A 
ATOM     29 CL   UNL     1       0.622  14.487  -5.779  0.00  0.00    -0.080 Cl
ATOM     30 CL   UNL     1      -0.782  14.687 -10.991  0.00  0.00    -0.083 Cl
ENDBRANCH  22  23
ENDBRANCH  21  22
ENDBRANCH  18  21
ENDBRANCH  17  18
ENDBRANCH   6  17
TORSDOF 9
