REMARK  Name = ZINC38702245
REMARK  9 active torsions:
REMARK  status: ('A' for Active; 'I' for Inactive)
REMARK    1  A    between atoms: C_1  and  C_2
REMARK    2  A    between atoms: C_4  and  C_10
REMARK    3  A    between atoms: C_5  and  O_9
REMARK    4  A    between atoms: C_7  and  C_8
REMARK    5  A    between atoms: N_18  and  C_31
REMARK    6  A    between atoms: C_19  and  C_21
REMARK    7  A    between atoms: C_24  and  O_27
REMARK    8  A    between atoms: O_27  and  C_28
REMARK    9  A    between atoms: C_28  and  C_29
REMARK                            x       y       z     vdW  Elec       q    Type
REMARK                         _______ _______ _______ _____ _____    ______ ____
ROOT
ATOM      1  C   UNL     1      -0.227  -2.945  -2.877  0.00  0.00    +0.102 A 
ATOM      2  C   UNL     1       0.033  -4.319  -2.845  0.00  0.00    +0.035 A 
ATOM      3  C   UNL     1       0.066  -4.727  -4.164  0.00  0.00    +0.126 A 
ATOM      4  N   UNL     1      -0.171  -3.609  -4.913  0.00  0.00    -0.272 N 
ATOM      5  H   UNL     1      -0.209  -3.586  -5.882  0.00  0.00    +0.189 HD
ATOM      6  N   UNL     1      -0.342  -2.595  -4.143  0.00  0.00    -0.173 NA
ATOM      7  C   UNL     1       0.336  -6.169  -4.200  0.00  0.00    +0.266 C 
ATOM      8  O   UNL     1       0.428  -6.833  -5.215  0.00  0.00    -0.268 OA
ATOM      9  N   UNL     1       0.470  -6.652  -2.952  0.00  0.00    -0.280 N 
ATOM     10  C   UNL     1       0.293  -5.541  -2.007  0.00  0.00    +0.142 C 
ENDROOT
BRANCH   1  14
ATOM     11  C   UNL     1       1.467  -1.327   1.531  0.00  0.00    +0.044 C 
ATOM     12  C   UNL     1       0.453  -1.266   0.418  0.00  0.00    -0.047 A 
ATOM     13  C   UNL     1       0.578  -2.103  -0.673  0.00  0.00    +0.017 A 
ATOM     14  C   UNL     1      -0.358  -2.048  -1.702  0.00  0.00    +0.044 A 
ATOM     15  C   UNL     1      -1.421  -1.143  -1.624  0.00  0.00    +0.126 A 
ATOM     16  C   UNL     1      -1.535  -0.309  -0.524  0.00  0.00    +0.049 A 
ATOM     17  C   UNL     1      -0.603  -0.376   0.495  0.00  0.00    -0.044 A 
ATOM     18  C   UNL     1      -0.735   0.529   1.693  0.00  0.00    +0.044 C 
BRANCH  15  19
ATOM     19  O   UNL     1      -2.339  -1.082  -2.624  0.00  0.00    -0.506 OA
ATOM     20  H   UNL     1      -3.130  -1.615  -2.464  0.00  0.00    +0.292 HD
ENDBRANCH  15  19
ENDBRANCH   1  14
BRANCH   9  21
ATOM     21  C   UNL     1       0.744  -8.046  -2.596  0.00  0.00    +0.100 C 
ATOM     22  C   UNL     1       2.065  -8.496  -3.241  0.00  0.00    +0.047 C 
ATOM     23  C   UNL     1       2.203 -10.035  -3.143  0.00  0.00    +0.168 C 
ATOM     24  S   UNL     1       0.452 -10.596  -3.119  0.00  0.00    -0.029 S 
ATOM     25  O   UNL     1       0.167 -11.275  -4.335  0.00  0.00    -0.174 OA
ATOM     26  O   UNL     1       0.190 -11.241  -1.880  0.00  0.00    -0.174 OA
ATOM     27  C   UNL     1      -0.394  -8.959  -3.135  0.00  0.00    +0.188 C 
ENDBRANCH   9  21
BRANCH  10  28
ATOM     28  C   UNL     1      -0.884  -5.811  -1.105  0.00  0.00    -0.022 A 
ATOM     29  C   UNL     1      -2.054  -6.326  -1.633  0.00  0.00    +0.009 A 
ATOM     30  C   UNL     1      -3.134  -6.574  -0.808  0.00  0.00    +0.046 A 
ATOM     31  C   UNL     1      -3.044  -6.306   0.550  0.00  0.00    +0.121 A 
ATOM     32  C   UNL     1      -1.869  -5.790   1.077  0.00  0.00    +0.046 A 
ATOM     33  C   UNL     1      -0.790  -5.549   0.249  0.00  0.00    +0.009 A 
BRANCH  31  34
ATOM     34  O   UNL     1      -4.106  -6.549   1.364  0.00  0.00    -0.488 OA
BRANCH  34  35
ATOM     35  C   UNL     1      -3.942  -6.250   2.751  0.00  0.00    +0.256 C 
BRANCH  35  36
ATOM     36  C   UNL     1      -5.212  -6.580   3.490  0.00  0.00    +0.006 C 
ATOM     37  C   UNL     1      -5.159  -7.229   4.628  0.00  0.00    +0.007 C 
ENDBRANCH  35  36
ENDBRANCH  34  35
ENDBRANCH  31  34
ENDBRANCH  10  28
TORSDOF 7
