REMARK  Name = ZINC09600860
REMARK  8 active torsions:
REMARK  status: ('A' for Active; 'I' for Inactive)
REMARK    1  A    between atoms: C_1  and  C_2
REMARK    2  A    between atoms: C_5  and  S_8
REMARK    3  A    between atoms: S_8  and  N_11
REMARK    4  A    between atoms: N_11  and  C_12
REMARK    5  A    between atoms: C_17  and  C_18
REMARK    6  A    between atoms: N_20  and  C_21
REMARK    7  A    between atoms: C_22  and  C_32
REMARK    8  A    between atoms: C_28  and  C_31
REMARK                            x       y       z     vdW  Elec       q    Type
REMARK                         _______ _______ _______ _____ _____    ______ ____
ROOT
ATOM      1  C   UNL     1       5.844   2.980  -0.212  0.00  0.00    +0.060 A 
ATOM      2  C   UNL     1       7.107   2.405  -0.291  0.00  0.00    +0.025 A 
ATOM      3  C   UNL     1       7.237   1.043  -0.466  0.00  0.00    +0.002 A 
ATOM      4  C   UNL     1       6.113   0.237  -0.559  0.00  0.00    +0.001 A 
ATOM      5  C   UNL     1       4.853   0.787  -0.478  0.00  0.00    +0.015 A 
ATOM      6  C   UNL     1       4.704   2.165  -0.300  0.00  0.00    +0.059 A 
ENDROOT
BRANCH   6   7
ATOM      7  C   UNL     1       3.359   2.761  -0.211  0.00  0.00    +0.250 C 
ATOM      8  O   UNL     1       3.234   3.960  -0.057  0.00  0.00    -0.270 OA
ATOM      9  N   UNL     1       2.267   1.975  -0.302  0.00  0.00    -0.275 N 
ATOM     10  H   UNL     1       2.367   1.018  -0.425  0.00  0.00    +0.156 HD
BRANCH   9  11
ATOM     11  C   UNL     1       1.001   2.536  -0.219  0.00  0.00    +0.090 A 
ATOM     12  C   UNL     1      -0.229   1.899  -0.289  0.00  0.00    +0.084 A 
ATOM     13  C   UNL     1      -1.420   2.724  -0.179  0.00  0.00    -0.018 A 
ATOM     14  C   UNL     1      -1.191   4.045  -0.007  0.00  0.00    -0.004 A 
ATOM     15  S   UNL     1       0.573   4.200  -0.003  0.00  0.00    -0.077 S 
ATOM     16  C   UNL     1      -2.215   5.127   0.141  0.00  0.00    +0.043 C 
ATOM     17  C   UNL     1      -3.569   4.473   0.450  0.00  0.00    +0.009 C 
ATOM     18  C   UNL     1      -3.800   3.326  -0.538  0.00  0.00    -0.009 C 
ATOM     19  C   UNL     1      -2.840   2.175  -0.233  0.00  0.00    +0.040 C 
ATOM     20  C   UNL     1      -5.243   2.831  -0.415  0.00  0.00    +0.008 C 
BRANCH  12  21
ATOM     21  C   UNL     1      -0.323   0.481  -0.470  0.00  0.00    +0.102 C 
ATOM     22  N   UNL     1      -0.397  -0.643  -0.613  0.00  0.00    -0.191 NA
ENDBRANCH  12  21
ENDBRANCH   9  11
ENDBRANCH   6   7
BRANCH   1  23
ATOM     23  N   UNL     1       5.710   4.351  -0.041  0.00  0.00    -0.216 N 
ATOM     24  H   UNL     1       4.988   4.705   0.501  0.00  0.00    +0.174 HD
BRANCH  23  25
ATOM     25  S   UNL     1       6.785   5.384  -0.764  0.00  0.00    +0.072 S 
ATOM     26  O   UNL     1       6.312   6.701  -0.516  0.00  0.00    -0.150 OA
ATOM     27  O   UNL     1       8.083   4.955  -0.377  0.00  0.00    -0.150 OA
BRANCH  25  32
ATOM     28  C   UNL     1       6.379   4.501  -6.719  0.00  0.00    +0.044 C 
ATOM     29  C   UNL     1       6.481   4.721  -5.231  0.00  0.00    -0.050 A 
ATOM     30  C   UNL     1       5.675   5.661  -4.616  0.00  0.00    +0.005 A 
ATOM     31  C   UNL     1       5.768   5.864  -3.251  0.00  0.00    +0.029 A 
ATOM     32  C   UNL     1       6.666   5.126  -2.503  0.00  0.00    +0.109 A 
ATOM     33  C   UNL     1       7.475   4.190  -3.119  0.00  0.00    +0.029 A 
ATOM     34  C   UNL     1       7.379   3.984  -4.483  0.00  0.00    +0.005 A 
ENDBRANCH  25  32
ENDBRANCH  23  25
ENDBRANCH   1  23
TORSDOF 6
