REMARK  Name = ZINC04905875
REMARK  5 active torsions:
REMARK  status: ('A' for Active; 'I' for Inactive)
REMARK    1  A    between atoms: C_4  and  C_7
REMARK    2  A    between atoms: C_10  and  C_24
REMARK    3  A    between atoms: N_16  and  C_18
REMARK    4  A    between atoms: C_24  and  N_55
REMARK    5  A    between atoms: C_25  and  N_55
REMARK                            x       y       z     vdW  Elec       q    Type
REMARK                         _______ _______ _______ _____ _____    ______ ____
ROOT
ATOM      1  C   UNL     1       0.831   3.496   0.013  0.00  0.00    +0.102 A 
ATOM      2  C   UNL     1       1.186   2.074   0.002  0.00  0.00    +0.045 A 
ATOM      3  C   UNL     1       2.411   1.375  -0.014  0.00  0.00    +0.020 A 
ATOM      4  C   UNL     1       2.396   0.015  -0.021  0.00  0.00    +0.001 A 
ATOM      5  C   UNL     1       1.170  -0.673  -0.013  0.00  0.00    +0.252 A 
ATOM      6  O   UNL     1       1.164  -1.893  -0.020  0.00  0.00    -0.268 OA
ATOM      7  N   UNL     1       0.002  -0.004   0.002  0.00  0.00    -0.307 N 
ATOM      8  H   UNL     1      -0.860  -0.511   0.007  0.00  0.00    +0.170 HD
ATOM      9  C   UNL     1      -0.017   1.365   0.009  0.00  0.00    +0.145 A 
ATOM     10  N   UNL     1      -1.022   2.279   0.019  0.00  0.00    -0.215 N 
ATOM     11  N   UNL     1      -0.480   3.568   0.026  0.00  0.00    -0.164 NA
ENDROOT
BRANCH   1  15
ATOM     12  C   UNL     1       3.539   6.772   0.005  0.00  0.00    +0.000 A 
ATOM     13  C   UNL     1       2.336   6.871  -0.672  0.00  0.00    +0.001 A 
ATOM     14  C   UNL     1       1.453   5.810  -0.673  0.00  0.00    +0.010 A 
ATOM     15  C   UNL     1       1.775   4.638   0.010  0.00  0.00    +0.003 A 
ATOM     16  C   UNL     1       2.987   4.546   0.694  0.00  0.00    +0.010 A 
ATOM     17  C   UNL     1       3.864   5.612   0.683  0.00  0.00    +0.001 A 
ENDBRANCH   1  15
BRANCH  10  18
ATOM     18  C   UNL     1      -2.389   1.977   0.022  0.00  0.00    +0.068 A 
ATOM     19  C   UNL     1      -2.860   0.873  -0.677  0.00  0.00    +0.028 A 
ATOM     20  C   UNL     1      -4.208   0.575  -0.668  0.00  0.00    +0.002 A 
ATOM     21  C   UNL     1      -5.091   1.381   0.027  0.00  0.00    +0.000 A 
ATOM     22  C   UNL     1      -4.627   2.484   0.720  0.00  0.00    +0.002 A 
ATOM     23  C   UNL     1      -3.279   2.784   0.719  0.00  0.00    +0.028 A 
ENDBRANCH  10  18
BRANCH   4  24
ATOM     24  C   UNL     1       3.693  -0.753  -0.038  0.00  0.00    -0.041 C 
BRANCH  24  25
ATOM     25  N   UNL     1       4.060  -1.112   1.345  0.00  0.00    +0.384 N 
ATOM     26  H   UNL     1       3.317  -1.691   1.754  0.00  0.00    -0.085 HD
ATOM     27  H   UNL     1       4.170  -0.255   1.899  0.00  0.00    -0.085 HD
BRANCH  25  28
ATOM     28  C   UNL     1       5.328  -1.866   1.359  0.00  0.00    -0.071 C 
ATOM     29  C   UNL     1       5.042  -3.349   1.116  0.00  0.00    -0.016 C 
ATOM     30  C   UNL     1       6.357  -4.132   1.140  0.00  0.00    -0.002 C 
ATOM     31  C   UNL     1       7.029  -3.959   2.503  0.00  0.00    -0.000 C 
ATOM     32  C   UNL     1       7.315  -2.475   2.745  0.00  0.00    -0.002 C 
ATOM     33  C   UNL     1       6.001  -1.692   2.722  0.00  0.00    -0.016 C 
ENDBRANCH  25  28
ENDBRANCH  24  25
ENDBRANCH   4  24
TORSDOF 5
