REMARK  Name = ZINC19940882
REMARK  6 active torsions:
REMARK  status: ('A' for Active; 'I' for Inactive)
REMARK    1  A    between atoms: C_1  and  C_2
REMARK    2  A    between atoms: C_5  and  C_37
REMARK    3  A    between atoms: C_9  and  C_14
REMARK    4  A    between atoms: C_14  and  C_16
REMARK    5  A    between atoms: C_14  and  N_27
REMARK    6  A    between atoms: N_20  and  C_21
REMARK                            x       y       z     vdW  Elec       q    Type
REMARK                         _______ _______ _______ _____ _____    ______ ____
ROOT
ATOM      1  C   UNL     1      -5.066   1.541  -1.165  0.00  0.00    +0.163 C 
ENDROOT
BRANCH   1  10
ATOM      2  C   UNL     1      -0.018   1.266   0.085  0.00  0.00    +0.044 C 
ATOM      3  C   UNL     1      -0.738   1.875   1.261  0.00  0.00    -0.041 A 
ATOM      4  C   UNL     1      -0.042   2.235   2.380  0.00  0.00    +0.004 A 
ATOM      5  C   UNL     1      -0.695   2.797   3.468  0.00  0.00    +0.005 A 
ATOM      6  C   UNL     1      -2.058   3.002   3.441  0.00  0.00    -0.026 A 
ATOM      7  C   UNL     1      -2.788   2.643   2.313  0.00  0.00    +0.052 A 
ATOM      8  C   UNL     1      -2.121   2.078   1.209  0.00  0.00    +0.002 A 
ATOM      9  C   UNL     1      -2.898   1.698   0.028  0.00  0.00    +0.021 A 
ATOM     10  C   UNL     1      -4.237   1.915   0.037  0.00  0.00    +0.042 A 
ATOM     11  C   UNL     1      -4.857   2.489   1.167  0.00  0.00    +0.254 A 
ATOM     12  O   UNL     1      -6.061   2.675   1.155  0.00  0.00    -0.268 OA
ATOM     13  N   UNL     1      -4.152   2.837   2.259  0.00  0.00    -0.322 N 
ATOM     14  H   UNL     1      -4.678   3.281   3.116  0.00  0.00    +0.169 HD
ATOM     15  C   UNL     1      -2.755   3.614   4.629  0.00  0.00    +0.046 C 
ENDBRANCH   1  10
BRANCH   1  16
ATOM     16  N   UNL     1      -6.170   0.667  -0.746  0.00  0.00    -0.284 NA
ATOM     17  C   UNL     1      -5.659  -0.575  -0.142  0.00  0.00    +0.090 C 
ATOM     18  C   UNL     1      -6.807  -1.264   0.595  0.00  0.00    +0.051 C 
ATOM     19  C   UNL     1      -8.006  -1.377  -0.311  0.00  0.00    -0.042 A 
ATOM     20  C   UNL     1      -9.013  -2.267   0.031  0.00  0.00    +0.004 A 
ATOM     21  C   UNL     1     -10.132  -2.395  -0.767  0.00  0.00    +0.000 A 
ATOM     22  C   UNL     1     -10.249  -1.632  -1.914  0.00  0.00    +0.000 A 
ATOM     23  C   UNL     1      -9.247  -0.747  -2.257  0.00  0.00    +0.005 A 
ATOM     24  C   UNL     1      -8.121  -0.618  -1.456  0.00  0.00    -0.030 A 
ATOM     25  C   UNL     1      -7.052   0.357  -1.875  0.00  0.00    +0.120 C 
ENDBRANCH   1  16
BRANCH   1  26
ATOM     26  C   UNL     1      -5.626   2.789  -1.796  0.00  0.00    +0.173 A 
ATOM     27  N   UNL     1      -6.650   3.489  -1.373  0.00  0.00    -0.111 NA
ATOM     28  N   UNL     1      -6.816   4.480  -2.179  0.00  0.00    -0.023 NA
ATOM     29  N   UNL     1      -5.924   4.431  -3.106  0.00  0.00    -0.044 NA
ATOM     30  N   UNL     1      -5.168   3.405  -2.902  0.00  0.00    -0.224 N 
BRANCH  30  31
ATOM     31  C   UNL     1      -4.028   2.987  -3.722  0.00  0.00    +0.111 C 
ATOM     32  C   UNL     1      -2.980   4.101  -3.743  0.00  0.00    +0.027 C 
ATOM     33  C   UNL     1      -1.789   3.665  -4.599  0.00  0.00    +0.002 C 
ATOM     34  C   UNL     1      -2.263   3.385  -6.027  0.00  0.00    +0.000 C 
ATOM     35  C   UNL     1      -3.312   2.271  -6.006  0.00  0.00    +0.002 C 
ATOM     36  C   UNL     1      -4.502   2.707  -5.150  0.00  0.00    +0.027 C 
ENDBRANCH  30  31
ENDBRANCH   1  26
TORSDOF 4
