REMARK  Name = ZINC15931434
REMARK  5 active torsions:
REMARK  status: ('A' for Active; 'I' for Inactive)
REMARK    1  A    between atoms: C_1  and  C_2
REMARK    2  A    between atoms: C_2  and  C_4
REMARK    3  A    between atoms: C_2  and  N_14
REMARK    4  A    between atoms: C_15  and  C_17
REMARK    5  A    between atoms: C_26  and  N_29
REMARK                            x       y       z     vdW  Elec       q    Type
REMARK                         _______ _______ _______ _____ _____    ______ ____
ROOT
ATOM      1  C   UNL     1      -7.074   2.096   2.506  0.00  0.00    +0.050 C 
ATOM      2  C   UNL     1      -6.771   1.149   3.669  0.00  0.00    +0.020 C 
ATOM      3  C   UNL     1      -7.487   1.643   4.928  0.00  0.00    -0.007 C 
ATOM      4  C   UNL     1      -6.997   3.050   5.275  0.00  0.00    +0.007 C 
ATOM      5  C   UNL     1      -7.300   3.997   4.111  0.00  0.00    -0.007 C 
ATOM      6  C   UNL     1      -6.584   3.503   2.853  0.00  0.00    +0.020 C 
ATOM      7  C   UNL     1      -8.809   4.029   3.860  0.00  0.00    +0.034 C 
ATOM      8  C   UNL     1      -9.299   2.622   3.513  0.00  0.00    +0.067 C 
ATOM      9  C   UNL     1      -8.996   1.675   4.677  0.00  0.00    +0.034 C 
ATOM     10  C   UNL     1      -8.583   2.128   2.255  0.00  0.00    +0.046 C 
ENDROOT
BRANCH   8  11
ATOM     11  N   UNL     1     -10.744   2.653   3.273  0.00  0.00    -0.244 N 
ATOM     12  C   UNL     1     -11.483   1.698   2.681  0.00  0.00    +0.222 A 
ATOM     13  N   UNL     1     -12.726   2.104   2.657  0.00  0.00    -0.195 NA
ATOM     14  C   UNL     1     -12.820   3.307   3.222  0.00  0.00    +0.328 A 
ATOM     15  N   UNL     1     -11.633   3.683   3.620  0.00  0.00    -0.125 NA
ATOM     16  N   UNL     1     -14.067   4.088   3.380  0.00  0.00    +0.096 N 
ATOM     17  O   UNL     1     -15.124   3.637   2.975  0.00  0.00    -0.123 OA
ATOM     18  O   UNL     1     -14.037   5.183   3.914  0.00  0.00    -0.123 OA
ENDBRANCH   8  11
BRANCH   1  20
ATOM     19  N   UNL     1      -5.025   1.499   1.254  0.00  0.00    -0.312 N 
ATOM     20  C   UNL     1      -6.369   1.610   1.266  0.00  0.00    +0.220 C 
ATOM     21  O   UNL     1      -7.010   1.318   0.279  0.00  0.00    -0.275 OA
ATOM     22  H   UNL     1      -4.513   1.733   2.044  0.00  0.00    +0.149 HD
BRANCH  19  24
ATOM     23  C   UNL     1      -4.319  -0.503   0.041  0.00  0.00    +0.028 C 
ATOM     24  C   UNL     1      -4.340   1.027   0.049  0.00  0.00    +0.076 C 
BRANCH  24  25
ATOM     25  C   UNL     1      -2.904   1.556   0.038  0.00  0.00    -0.010 C 
ATOM     26  C   UNL     1      -2.188   1.063  -1.221  0.00  0.00    +0.012 C 
ATOM     27  C   UNL     1      -0.753   1.593  -1.232  0.00  0.00    -0.010 C 
ATOM     28  C   UNL     1      -0.013   1.086   0.008  0.00  0.00    +0.007 C 
ATOM     29  C   UNL     1      -0.729   1.579   1.267  0.00  0.00    -0.010 C 
ATOM     30  C   UNL     1      -2.164   1.050   1.278  0.00  0.00    +0.012 C 
ATOM     31  C   UNL     1      -0.750   3.109   1.275  0.00  0.00    +0.007 C 
ATOM     32  C   UNL     1      -1.490   3.616   0.036  0.00  0.00    -0.010 C 
ATOM     33  C   UNL     1      -0.773   3.123  -1.223  0.00  0.00    +0.007 C 
ATOM     34  C   UNL     1      -2.925   3.086   0.047  0.00  0.00    +0.012 C 
ENDBRANCH  24  25
ENDBRANCH  19  24
ENDBRANCH   1  20
TORSDOF 4
