REMARK  Name = ZINC33432260
REMARK  9 active torsions:
REMARK  status: ('A' for Active; 'I' for Inactive)
REMARK    1  A    between atoms: C_1  and  C_2
REMARK    2  A    between atoms: C_2  and  O_3
REMARK    3  A    between atoms: O_3  and  C_4
REMARK    4  A    between atoms: C_4  and  C_6
REMARK    5  A    between atoms: C_10  and  N_11
REMARK    6  A    between atoms: C_12  and  C_14
REMARK    7  A    between atoms: C_17  and  S_20
REMARK    8  A    between atoms: S_20  and  N_23
REMARK    9  A    between atoms: N_33  and  C_36
REMARK                            x       y       z     vdW  Elec       q    Type
REMARK                         _______ _______ _______ _____ _____    ______ ____
ROOT
ATOM      1  N   UNL     1       1.468   2.083   2.486  0.00  0.00    -0.275 N 
ATOM      2  C   UNL     1       2.215   2.522   3.518  0.00  0.00    +0.249 C 
ATOM      3  O   UNL     1       3.244   3.135   3.307  0.00  0.00    -0.270 OA
ATOM      4  H   UNL     1       0.538   1.528   2.677  0.00  0.00    +0.156 HD
ENDROOT
BRANCH   1   9
ATOM      5  C   UNL     1       1.244   1.962   0.001  0.00  0.00    +0.091 A 
ATOM      6  C   UNL     1       1.879   2.354  -1.243  0.00  0.00    -0.025 A 
ATOM      7  C   UNL     1       3.036   3.041  -1.109  0.00  0.00    -0.021 A 
ATOM      8  S   UNL     1       3.285   3.171   0.637  0.00  0.00    -0.079 S 
ATOM      9  C   UNL     1       1.872   2.330   1.185  0.00  0.00    +0.086 A 
ATOM     10  C   UNL     1       3.894   3.562  -2.220  0.00  0.00    -0.036 C 
ATOM     11  N   UNL     1       3.475   2.906  -3.473  0.00  0.00    +0.381 N 
ATOM     12  C   UNL     1       2.016   2.977  -3.634  0.00  0.00    -0.074 C 
ATOM     13  C   UNL     1       1.329   2.045  -2.631  0.00  0.00    +0.018 C 
ATOM     14  C   UNL     1       4.162   3.494  -4.630  0.00  0.00    -0.096 C 
ATOM     15  H   UNL     1       3.759   1.845  -3.419  0.00  0.00    -0.082 HD
BRANCH   5  16
ATOM     16  C   UNL     1      -0.014   1.212   0.009  0.00  0.00    +0.342 C 
ATOM     17  O   UNL     1       0.002  -0.004   0.002  0.00  0.00    -0.245 OA
BRANCH  16  18
ATOM     18  O   UNL     1      -1.192   1.871   0.018  0.00  0.00    -0.461 OA
BRANCH  18  20
ATOM     19  C   UNL     1      -3.624   1.979   0.030  0.00  0.00    +0.048 C 
ATOM     20  C   UNL     1      -2.398   1.063   0.019  0.00  0.00    +0.229 C 
ENDBRANCH  18  20
ENDBRANCH  16  18
ENDBRANCH   5  16
ENDBRANCH   1   9
BRANCH   2  21
ATOM     21  C   UNL     1       1.784   2.259   4.907  0.00  0.00    +0.037 A 
ATOM     22  C   UNL     1       0.601   1.560   5.154  0.00  0.00    +0.015 A 
ATOM     23  C   UNL     1       0.207   1.313   6.452  0.00  0.00    +0.029 A 
ATOM     24  C   UNL     1       0.977   1.765   7.510  0.00  0.00    +0.109 A 
ATOM     25  C   UNL     1       2.148   2.463   7.273  0.00  0.00    +0.029 A 
ATOM     26  C   UNL     1       2.556   2.712   5.979  0.00  0.00    +0.015 A 
BRANCH  24  27
ATOM     27  S   UNL     1       0.463   1.452   9.166  0.00  0.00    +0.075 S 
ATOM     28  O   UNL     1      -0.381   0.309   9.119  0.00  0.00    -0.150 OA
ATOM     29  O   UNL     1       1.632   1.503   9.971  0.00  0.00    -0.150 OA
BRANCH  27  30
ATOM     30  N   UNL     1      -0.489   2.724   9.632  0.00  0.00    -0.202 N 
ATOM     31  C   UNL     1      -1.943   2.793   9.458  0.00  0.00    +0.136 C 
ATOM     32  C   UNL     1      -2.354   4.154  10.043  0.00  0.00    +0.058 C 
ATOM     33  C   UNL     1      -1.058   4.770  10.519  0.00  0.00    -0.023 A 
ATOM     34  C   UNL     1      -0.025   3.884  10.254  0.00  0.00    +0.054 A 
ATOM     35  C   UNL     1       1.279   4.240  10.601  0.00  0.00    +0.025 A 
ATOM     36  C   UNL     1       1.530   5.452  11.210  0.00  0.00    +0.002 A 
ATOM     37  C   UNL     1       0.492   6.326  11.475  0.00  0.00    +0.000 A 
ATOM     38  C   UNL     1      -0.802   5.983  11.129  0.00  0.00    +0.005 A 
ENDBRANCH  27  30
ENDBRANCH  24  27
ENDBRANCH   2  21
TORSDOF 7
