REMARK  Name = ZINC66767091
REMARK  9 active torsions:
REMARK  status: ('A' for Active; 'I' for Inactive)
REMARK    1  A    between atoms: C_1  and  C_2
REMARK    2  A    between atoms: C_2  and  C_3
REMARK    3  A    between atoms: C_3  and  C_5
REMARK    4  A    between atoms: C_3  and  N_15
REMARK    5  A    between atoms: C_16  and  C_18
REMARK    6  A    between atoms: C_18  and  C_19
REMARK    7  A    between atoms: C_19  and  C_20
REMARK    8  A    between atoms: C_20  and  C_21
REMARK    9  A    between atoms: C_21  and  C_22
REMARK                            x       y       z     vdW  Elec       q    Type
REMARK                         _______ _______ _______ _____ _____    ______ ____
ROOT
ATOM      1  C   UNL     1      -1.433  -0.534   0.013  0.00  0.00    +0.139 C 
ENDROOT
BRANCH   1   2
ATOM      2  C   UNL     1      -1.416  -2.035  -0.119  0.00  0.00    +0.129 A 
ATOM      3  N   UNL     1      -2.014  -2.900   0.743  0.00  0.00    -0.340 N 
ATOM      4  H   UNL     1      -2.518  -2.663   1.538  0.00  0.00    +0.167 HD
ATOM      5  C   UNL     1      -1.771  -4.177   0.279  0.00  0.00    +0.066 A 
ATOM      6  C   UNL     1      -2.115  -5.448   0.719  0.00  0.00    +0.028 A 
ATOM      7  C   UNL     1      -1.702  -6.553   0.006  0.00  0.00    +0.002 A 
ATOM      8  C   UNL     1      -0.947  -6.402  -1.149  0.00  0.00    +0.002 A 
ATOM      9  C   UNL     1      -0.599  -5.160  -1.597  0.00  0.00    +0.030 A 
ATOM     10  C   UNL     1      -1.007  -4.025  -0.890  0.00  0.00    +0.089 A 
ATOM     11  N   UNL     1      -0.831  -2.692  -1.078  0.00  0.00    -0.231 NA
ENDBRANCH   1   2
BRANCH   1  12
ATOM     12  N   UNL     1      -2.082  -0.162   1.273  0.00  0.00    -0.306 N 
ATOM     13  C   UNL     1      -2.664   1.047   1.400  0.00  0.00    +0.214 C 
ATOM     14  O   UNL     1      -2.651   1.827   0.471  0.00  0.00    -0.276 OA
ATOM     15  H   UNL     1      -2.092  -0.785   2.016  0.00  0.00    +0.149 HD
BRANCH  13  16
ATOM     16  C   UNL     1      -3.330   1.430   2.696  0.00  0.00    +0.096 C 
BRANCH  16  17
ATOM     17  C   UNL     1      -3.907   2.842   2.576  0.00  0.00    +0.009 C 
BRANCH  17  18
ATOM     18  C   UNL     1      -4.584   3.230   3.892  0.00  0.00    +0.002 C 
BRANCH  18  19
ATOM     19  C   UNL     1      -5.161   4.642   3.771  0.00  0.00    +0.015 C 
BRANCH  19  20
ATOM     20  C   UNL     1      -5.838   5.030   5.087  0.00  0.00    +0.058 C 
ATOM     21  C   UNL     1      -6.522   6.396   4.938  0.00  0.00    +0.026 C 
ATOM     22  C   UNL     1      -6.688   7.226   6.229  0.00  0.00    +0.082 C 
ATOM     23  S   UNL     1      -5.009   7.141   7.011  0.00  0.00    -0.093 S 
ATOM     24  S   UNL     1      -4.573   5.184   6.420  0.00  0.00    -0.090 S 
ENDBRANCH  19  20
ENDBRANCH  18  19
ENDBRANCH  17  18
ENDBRANCH  16  17
ENDBRANCH  13  16
ENDBRANCH   1  12
BRANCH   1  26
ATOM     25  C   UNL     1      -0.019   1.526   0.010  0.00  0.00    +0.006 C 
ATOM     26  C   UNL     1       0.002  -0.004   0.002  0.00  0.00    +0.027 C 
ENDBRANCH   1  26
TORSDOF 8
