REMARK  Name = ZINC67507255
REMARK  12 active torsions:
REMARK  status: ('A' for Active; 'I' for Inactive)
REMARK    1  A    between atoms: C_1  and  C_2
REMARK    2  A    between atoms: C_2  and  O_3
REMARK    3  A    between atoms: O_3  and  C_4
REMARK    4  A    between atoms: C_6  and  C_13
REMARK    5  A    between atoms: C_9  and  O_10
REMARK    6  A    between atoms: O_10  and  C_11
REMARK    7  A    between atoms: C_13  and  N_14
REMARK    8  A    between atoms: N_14  and  C_15
REMARK    9  A    between atoms: C_15  and  C_16
REMARK   10  A    between atoms: N_20  and  C_22
REMARK   11  A    between atoms: C_22  and  C_23
REMARK   12  A    between atoms: C_22  and  C_24
REMARK                            x       y       z     vdW  Elec       q    Type
REMARK                         _______ _______ _______ _____ _____    ______ ____
ROOT
ATOM      1  C   UNL     1      -0.219  -4.963  -0.535  0.00  0.00    +0.116 C 
ENDROOT
BRANCH   1   4
ATOM      2  C   UNL     1       0.802  -1.825   1.306  0.00  0.00    +0.163 A 
ATOM      3  C   UNL     1       0.260  -2.673   0.352  0.00  0.00    +0.054 A 
ATOM      4  C   UNL     1       0.371  -4.043   0.502  0.00  0.00    -0.029 A 
ATOM      5  C   UNL     1       1.022  -4.571   1.602  0.00  0.00    +0.024 A 
ATOM      6  C   UNL     1       1.565  -3.730   2.557  0.00  0.00    +0.063 A 
ATOM      7  C   UNL     1       1.462  -2.356   2.409  0.00  0.00    +0.175 A 
ATOM      8 BR   UNL     1       2.453  -4.456   4.061  0.00  0.00    -0.046 Br
BRANCH   7   9
ATOM      9  O   UNL     1       2.000  -1.528   3.345  0.00  0.00    -0.490 OA
ATOM     10  C   UNL     1       1.161  -1.151   4.438  0.00  0.00    +0.277 C 
ENDBRANCH   7   9
BRANCH   2  11
ATOM     11  O   UNL     1       0.693  -0.477   1.160  0.00  0.00    -0.489 OA
BRANCH  11  13
ATOM     12  C   UNL     1      -0.019   1.526   0.010  0.00  0.00    +0.048 C 
ATOM     13  C   UNL     1       0.002  -0.004   0.002  0.00  0.00    +0.226 C 
ENDBRANCH  11  13
ENDBRANCH   2  11
ENDBRANCH   1   4
BRANCH   1  14
ATOM     14  N   UNL     1       0.785  -5.241  -1.571  0.00  0.00    -0.312 NA
ATOM     15  H   UNL     1       1.130  -4.385  -1.980  0.00  0.00    +0.122 HD
BRANCH  14  16
ATOM     16  C   UNL     1       0.244  -6.137  -2.602  0.00  0.00    +0.082 C 
BRANCH  16  17
ATOM     17  C   UNL     1       1.316  -6.403  -3.660  0.00  0.00    -0.016 C 
ATOM     18  C   UNL     1       1.597  -5.129  -4.499  0.00  0.00    -0.016 C 
ATOM     19  C   UNL     1       2.107  -5.700  -5.839  0.00  0.00    -0.078 C 
ATOM     20  N   UNL     1       1.608  -7.084  -5.942  0.00  0.00    +0.381 N 
ATOM     21  C   UNL     1       0.797  -7.383  -4.742  0.00  0.00    -0.074 C 
ATOM     22  H   UNL     1       2.387  -7.723  -5.992  0.00  0.00    -0.081 HD
BRANCH  20  23
ATOM     23  C   UNL     1       0.778  -7.221  -7.146  0.00  0.00    -0.075 C 
ATOM     24  C   UNL     1       1.625  -6.925  -8.386  0.00  0.00    -0.014 C 
ATOM     25  C   UNL     1       0.234  -8.649  -7.230  0.00  0.00    -0.014 C 
ENDBRANCH  20  23
ENDBRANCH  16  17
ENDBRANCH  14  16
ENDBRANCH   1  14
TORSDOF 8
