REMARK  Name = ZINC15636081
REMARK  7 active torsions:
REMARK  status: ('A' for Active; 'I' for Inactive)
REMARK    1  A    between atoms: C_1  and  N_2
REMARK    2  A    between atoms: N_9  and  C_10
REMARK    3  A    between atoms: N_13  and  C_14
REMARK    4  A    between atoms: C_19  and  S_20
REMARK    5  A    between atoms: S_20  and  C_21
REMARK    6  A    between atoms: C_21  and  C_22
REMARK    7  A    between atoms: C_22  and  C_23
REMARK                            x       y       z     vdW  Elec       q    Type
REMARK                         _______ _______ _______ _____ _____    ______ ____
ROOT
ATOM      1  C   UNL     1       7.595   0.412  -3.460  0.00  0.00    +0.047 A 
ATOM      2  C   UNL     1       8.225  -0.352  -2.490  0.00  0.00    +0.024 A 
ATOM      3  C   UNL     1       9.605  -0.425  -2.456  0.00  0.00    +0.002 A 
ATOM      4  C   UNL     1      10.361   0.270  -3.382  0.00  0.00    +0.001 A 
ATOM      5  C   UNL     1       9.742   1.039  -4.349  0.00  0.00    +0.017 A 
ATOM      6  C   UNL     1       8.357   1.114  -4.394  0.00  0.00    +0.035 A 
ENDROOT
BRANCH   1  16
ATOM      7  C   UNL     1       7.498   0.178   1.233  0.00  0.00    +0.128 C 
ATOM      8  N   UNL     1       6.035   0.118   1.178  0.00  0.00    -0.316 N 
ATOM      9  C   UNL     1       5.387   0.183  -0.038  0.00  0.00    +0.221 A 
ATOM     10  N   UNL     1       6.090   0.300  -1.161  0.00  0.00    -0.181 NA
ATOM     11  C   UNL     1       5.466   0.363  -2.333  0.00  0.00    +0.225 A 
ATOM     12  N   UNL     1       4.138   0.309  -2.382  0.00  0.00    -0.181 NA
ATOM     13  C   UNL     1       3.435   0.192  -1.260  0.00  0.00    +0.221 A 
ATOM     14  N   UNL     1       4.060   0.134  -0.088  0.00  0.00    -0.181 NA
ATOM     15  N   UNL     1       2.057   0.136  -1.312  0.00  0.00    -0.310 N 
ATOM     16  N   UNL     1       6.196   0.484  -3.498  0.00  0.00    -0.283 N 
ATOM     17  H   UNL     1       5.522   0.032   1.997  0.00  0.00    +0.149 HD
ATOM     18  H   UNL     1       1.601   0.182  -2.167  0.00  0.00    +0.149 HD
ATOM     19  H   UNL     1       5.740   0.620  -4.344  0.00  0.00    +0.155 HD
BRANCH  15  20
ATOM     20  C   UNL     1       1.283   0.007  -0.075  0.00  0.00    +0.073 C 
ATOM     21  C   UNL     1      -0.158   0.521  -0.087  0.00  0.00    +0.024 C 
ATOM     22  C   UNL     1       0.117  -0.984  -0.072  0.00  0.00    +0.024 C 
ENDBRANCH  15  20
ENDBRANCH   1  16
BRANCH   6  23
ATOM     23  S   UNL     1       7.565   2.094  -5.625  0.00  0.00    -0.044 S 
BRANCH  23  24
ATOM     24  C   UNL     1       8.939   2.794  -6.580  0.00  0.00    +0.370 C 
ATOM     25  F   UNL     1       9.749   3.562  -5.737  0.00  0.00    -0.186 F 
ATOM     26  F   UNL     1       9.695   1.758  -7.138  0.00  0.00    -0.186 F 
BRANCH  24  27
ATOM     27  C   UNL     1       8.384   3.679  -7.699  0.00  0.00    +0.413 C 
ATOM     28  F   UNL     1       7.573   2.911  -8.542  0.00  0.00    -0.188 F 
ATOM     29  F   UNL     1       7.627   4.715  -7.141  0.00  0.00    -0.188 F 
BRANCH  27  30
ATOM     30  C   UNL     1       9.543   4.269  -8.504  0.00  0.00    +0.461 C 
ATOM     31  F   UNL     1      10.299   3.233  -9.062  0.00  0.00    -0.165 F 
ATOM     32  F   UNL     1       9.036   5.078  -9.527  0.00  0.00    -0.165 F 
ATOM     33  F   UNL     1      10.353   5.037  -7.661  0.00  0.00    -0.165 F 
ENDBRANCH  27  30
ENDBRANCH  24  27
ENDBRANCH  23  24
ENDBRANCH   6  23
TORSDOF 6
