REMARK  Name = ZINC47135773
REMARK  5 active torsions:
REMARK  status: ('A' for Active; 'I' for Inactive)
REMARK    1  A    between atoms: C_7  and  N_12
REMARK    2  A    between atoms: N_12  and  C_13
REMARK    3  A    between atoms: C_14  and  C_22
REMARK    4  A    between atoms: N_24  and  C_25
REMARK    5  A    between atoms: C_25  and  C_26
REMARK                            x       y       z     vdW  Elec       q    Type
REMARK                         _______ _______ _______ _____ _____    ______ ____
ROOT
ATOM      1  C   UNL     1       0.502  -4.053  -1.138  0.00  0.00    +0.081 A 
ATOM      2  C   UNL     1      -0.045  -4.817  -2.159  0.00  0.00    +0.068 A 
ATOM      3  C   UNL     1      -0.543  -6.136  -1.806  0.00  0.00    -0.023 A 
ATOM      4  C   UNL     1      -0.403  -6.448  -0.500  0.00  0.00    -0.005 A 
ATOM      5  S   UNL     1       0.372  -5.031   0.221  0.00  0.00    -0.078 S 
ATOM      6  C   UNL     1      -0.817  -7.722   0.170  0.00  0.00    +0.043 C 
ATOM      7  C   UNL     1      -1.767  -8.476  -0.773  0.00  0.00    +0.005 C 
ATOM      8  C   UNL     1      -1.149  -8.513  -2.174  0.00  0.00    +0.005 C 
ATOM      9  C   UNL     1      -1.172  -7.112  -2.789  0.00  0.00    +0.037 C 
ENDROOT
BRANCH   2  10
ATOM     10  C   UNL     1      -0.118  -4.316  -3.533  0.00  0.00    +0.247 C 
ATOM     11  O   UNL     1       0.801  -4.520  -4.305  0.00  0.00    -0.270 OA
ATOM     12  N   UNL     1      -1.202  -3.629  -3.943  0.00  0.00    -0.309 N 
ATOM     13  H   UNL     1      -1.935  -3.466  -3.328  0.00  0.00    +0.149 HD
BRANCH  12  14
ATOM     14  C   UNL     1      -1.275  -3.128  -5.318  0.00  0.00    +0.136 C 
BRANCH  14  15
ATOM     15  C   UNL     1      -2.600  -2.389  -5.521  0.00  0.00    +0.135 C 
ATOM     16  C   UNL     1      -2.739  -1.962  -6.999  0.00  0.00    +0.035 C 
ATOM     17  C   UNL     1      -3.381  -0.553  -6.875  0.00  0.00    +0.031 C 
ATOM     18  C   UNL     1      -2.722  -0.043  -5.569  0.00  0.00    +0.160 C 
ATOM     19  O   UNL     1      -2.622  -1.201  -4.722  0.00  0.00    -0.375 OA
ENDBRANCH  14  15
ENDBRANCH  12  14
ENDBRANCH   2  10
BRANCH   1  20
ATOM     20  N   UNL     1       1.037  -2.781  -1.222  0.00  0.00    -0.300 N 
ATOM     21  H   UNL     1       1.054  -2.317  -2.074  0.00  0.00    +0.150 HD
BRANCH  20  28
ATOM     22  C   UNL     1      -0.017   1.381   0.010  0.00  0.00    +0.000 A 
ATOM     23  C   UNL     1       1.169   2.094   0.002  0.00  0.00    +0.001 A 
ATOM     24  C   UNL     1       2.380   1.432  -0.013  0.00  0.00    +0.015 A 
ATOM     25  C   UNL     1       2.406   0.037  -0.021  0.00  0.00    +0.067 A 
ATOM     26  C   UNL     1       1.203  -0.674  -0.013  0.00  0.00    +0.025 A 
ATOM     27  C   UNL     1       0.002  -0.004   0.002  0.00  0.00    +0.010 A 
ATOM     28  C   UNL     1       1.578  -2.134  -0.024  0.00  0.00    +0.297 C 
ATOM     29  O   UNL     1       3.007  -2.192  -0.038  0.00  0.00    -0.435 OA
ATOM     30  C   UNL     1       3.506  -0.945  -0.037  0.00  0.00    +0.342 C 
ATOM     31  O   UNL     1       4.688  -0.667  -0.047  0.00  0.00    -0.245 OA
ENDBRANCH  20  28
ENDBRANCH   1  20
TORSDOF 5
