REMARK  Name = ZINC12473798
REMARK  11 active torsions:
REMARK  status: ('A' for Active; 'I' for Inactive)
REMARK    1  A    between atoms: C_1  and  C_2
REMARK    2  A    between atoms: C_5  and  N_8
REMARK    3  A    between atoms: C_9  and  C_11
REMARK    4  A    between atoms: C_11  and  S_12
REMARK    5  A    between atoms: S_12  and  C_14
REMARK    6  A    between atoms: C_14  and  C_15
REMARK    7  A    between atoms: N_17  and  C_18
REMARK    8  A    between atoms: N_17  and  C_28
REMARK    9  A    between atoms: C_28  and  C_30
REMARK   10  A    between atoms: C_28  and  C_31
REMARK   11  A    between atoms: N_33  and  C_34
REMARK                            x       y       z     vdW  Elec       q    Type
REMARK                         _______ _______ _______ _____ _____    ______ ____
ROOT
ATOM      1  C   UNL     1       5.181  -7.309  -0.767  0.00  0.00    +0.233 C 
ATOM      2  O   UNL     1       6.099  -6.518  -0.829  0.00  0.00    -0.274 OA
ATOM      3  N   UNL     1       5.434  -8.630  -0.694  0.00  0.00    -0.259 N 
ENDROOT
BRANCH   3   4
ATOM      4  C   UNL     1       4.375  -9.542  -0.622  0.00  0.00    +0.041 A 
ATOM      5  C   UNL     1       3.931  -9.988   0.613  0.00  0.00    +0.024 A 
ATOM      6  C   UNL     1       2.882 -10.884   0.681  0.00  0.00    +0.002 A 
ATOM      7  C   UNL     1       2.292 -11.340  -0.480  0.00  0.00    +0.004 A 
ATOM      8  C   UNL     1       2.738 -10.903  -1.721  0.00  0.00    -0.042 A 
ATOM      9  C   UNL     1       3.775 -10.002  -1.795  0.00  0.00    -0.023 A 
ATOM     10  C   UNL     1       4.298  -9.472  -3.104  0.00  0.00    +0.037 C 
ATOM     11  C   UNL     1       3.854 -10.365  -4.261  0.00  0.00    +0.005 C 
ATOM     12  C   UNL     1       2.338 -10.570  -4.160  0.00  0.00    +0.005 C 
ATOM     13  C   UNL     1       2.050 -11.449  -2.945  0.00  0.00    +0.035 C 
ENDBRANCH   3   4
BRANCH   3  14
ATOM     14  C   UNL     1       6.817  -9.113  -0.688  0.00  0.00    +0.164 C 
ATOM     15  C   UNL     1       6.991 -10.175  -1.775  0.00  0.00    +0.038 C 
BRANCH  14  16
ATOM     16  C   UNL     1       7.134  -9.713   0.657  0.00  0.00    +0.234 C 
ATOM     17  O   UNL     1       6.264  -9.815   1.496  0.00  0.00    -0.274 OA
ATOM     18  N   UNL     1       8.384 -10.138   0.928  0.00  0.00    -0.311 N 
ATOM     19  H   UNL     1       9.080 -10.057   0.257  0.00  0.00    +0.149 HD
BRANCH  18  20
ATOM     20  C   UNL     1       8.693 -10.722   2.236  0.00  0.00    +0.073 C 
ATOM     21  C   UNL     1       9.014  -9.604   3.230  0.00  0.00    +0.022 C 
ATOM     22  C   UNL     1       9.336 -10.214   4.596  0.00  0.00    +0.002 C 
ATOM     23  C   UNL     1      10.543 -11.145   4.467  0.00  0.00    +0.000 C 
ATOM     24  C   UNL     1      10.222 -12.263   3.473  0.00  0.00    +0.002 C 
ATOM     25  C   UNL     1       9.900 -11.653   2.107  0.00  0.00    +0.022 C 
ENDBRANCH  18  20
ENDBRANCH  14  16
ENDBRANCH   3  14
BRANCH   1  26
ATOM     26  C   UNL     1       3.758  -6.813  -0.773  0.00  0.00    +0.200 C 
BRANCH  26  27
ATOM     27  S   UNL     1       3.749  -5.002  -0.880  0.00  0.00    +0.040 S 
ATOM     28  O   UNL     1       4.372  -4.456   0.275  0.00  0.00    -0.256 OA
BRANCH  27  29
ATOM     29  C   UNL     1       1.987  -4.571  -0.876  0.00  0.00    +0.200 C 
BRANCH  29  31
ATOM     30  N   UNL     1       0.608  -2.520  -0.975  0.00  0.00    -0.285 N 
ATOM     31  C   UNL     1       1.836  -3.074  -0.962  0.00  0.00    +0.230 C 
ATOM     32  O   UNL     1       2.820  -2.367  -1.020  0.00  0.00    -0.274 OA
ATOM     33  H   UNL     1      -0.176  -3.076  -0.844  0.00  0.00    +0.155 HD
BRANCH  30  38
ATOM     34  C   UNL     1       0.020   3.063  -1.794  0.00  0.00    +0.044 C 
ATOM     35  C   UNL     1       0.176   1.580  -1.576  0.00  0.00    -0.050 A 
ATOM     36  C   UNL     1       1.197   0.894  -2.207  0.00  0.00    +0.005 A 
ATOM     37  C   UNL     1       1.343  -0.465  -2.010  0.00  0.00    +0.023 A 
ATOM     38  C   UNL     1       0.463  -1.143  -1.176  0.00  0.00    +0.033 A 
ATOM     39  C   UNL     1      -0.562  -0.451  -0.544  0.00  0.00    +0.023 A 
ATOM     40  C   UNL     1      -0.702   0.908  -0.745  0.00  0.00    +0.005 A 
ENDBRANCH  30  38
ENDBRANCH  29  31
ENDBRANCH  27  29
ENDBRANCH  26  27
ENDBRANCH   1  26
TORSDOF 9
