REMARK  Name = ZINC05671702
REMARK  6 active torsions:
REMARK  status: ('A' for Active; 'I' for Inactive)
REMARK    1  A    between atoms: C_1  and  C_2
REMARK    2  A    between atoms: C_2  and  C_3
REMARK    3  A    between atoms: C_3  and  C_4
REMARK    4  A    between atoms: C_4  and  C_5
REMARK    5  A    between atoms: C_8  and  N_11
REMARK    6  A    between atoms: C_15  and  N_21
REMARK                            x       y       z     vdW  Elec       q    Type
REMARK                         _______ _______ _______ _____ _____    ______ ____
ROOT
ATOM      1  N   UNL     1       1.197   1.752   0.000  0.00  0.00    -0.149 N 
ATOM      2  N   UNL     1       2.065   0.802  -0.013  0.00  0.00    -0.147 NA
ATOM      3  C   UNL     1       1.429  -0.359  -0.013  0.00  0.00    +0.115 A 
ATOM      4  C   UNL     1       1.791  -1.716  -0.025  0.00  0.00    +0.056 A 
ATOM      5  C   UNL     1       0.815  -2.671  -0.021  0.00  0.00    +0.045 A 
ATOM      6  C   UNL     1      -0.545  -2.330  -0.006  0.00  0.00    +0.064 A 
ATOM      7  C   UNL     1      -0.955  -1.035   0.005  0.00  0.00    +0.053 A 
ATOM      8  C   UNL     1       0.002  -0.004   0.002  0.00  0.00    +0.115 A 
ATOM      9  N   UNL     1      -0.016   1.320   0.009  0.00  0.00    -0.147 NA
ATOM     10 CL   UNL     1      -1.734  -3.594  -0.001  0.00  0.00    -0.082 Cl
ENDROOT
BRANCH   1  14
ATOM     11  C   UNL     1       2.202   5.797   0.010  0.00  0.00    -0.047 A 
ATOM     12  C   UNL     1       0.872   5.417   0.021  0.00  0.00    +0.006 A 
ATOM     13  C   UNL     1       0.536   4.077   0.018  0.00  0.00    +0.030 A 
ATOM     14  C   UNL     1       1.534   3.112   0.003  0.00  0.00    +0.086 A 
ATOM     15  C   UNL     1       2.869   3.497  -0.002  0.00  0.00    +0.030 A 
ATOM     16  C   UNL     1       3.198   4.838  -0.005  0.00  0.00    +0.006 A 
BRANCH  11  17
ATOM     17  C   UNL     1       2.565   7.260   0.013  0.00  0.00    +0.035 C 
BRANCH  17  18
ATOM     18  C   UNL     1       2.702   7.747   1.457  0.00  0.00    +0.004 C 
BRANCH  18  20
ATOM     19  C   UNL     1       3.208   9.720   2.904  0.00  0.00    +0.004 C 
ATOM     20  C   UNL     1       3.071   9.232   1.461  0.00  0.00    -0.003 C 
ENDBRANCH  18  20
ENDBRANCH  17  18
ENDBRANCH  11  17
ENDBRANCH   1  14
BRANCH   5  21
ATOM     21  N   UNL     1       1.181  -4.020  -0.032  0.00  0.00    -0.357 N 
ATOM     22  H   UNL     1       0.496  -4.708  -0.029  0.00  0.00    +0.142 HD
ATOM     23  H   UNL     1       2.118  -4.269  -0.042  0.00  0.00    +0.142 HD
ENDBRANCH   5  21
TORSDOF 5
