REMARK  Name = ZINC12349350
REMARK  8 active torsions:
REMARK  status: ('A' for Active; 'I' for Inactive)
REMARK    1  A    between atoms: C_1  and  O_2
REMARK    2  A    between atoms: O_2  and  C_3
REMARK    3  A    between atoms: C_6  and  C_17
REMARK    4  A    between atoms: C_8  and  O_9
REMARK    5  A    between atoms: O_9  and  C_10
REMARK    6  A    between atoms: C_10  and  C_11
REMARK    7  A    between atoms: C_24  and  O_25
REMARK    8  A    between atoms: C_32  and  C_35
REMARK                            x       y       z     vdW  Elec       q    Type
REMARK                         _______ _______ _______ _____ _____    ______ ____
ROOT
ATOM      1  C   UNL     1       3.571   0.668  -0.023  0.00  0.00    +0.092 C 
ATOM      2  C   UNL     1       2.071   0.729  -0.013  0.00  0.00    +0.067 A 
ATOM      3  C   UNL     1       1.290  -0.397  -0.014  0.00  0.00    +0.126 A 
ATOM      4  N   UNL     1       0.002  -0.004   0.002  0.00  0.00    -0.260 N 
ATOM      5  H   UNL     1      -0.797  -0.605   0.007  0.00  0.00    +0.190 HD
ATOM      6  N   UNL     1      -0.017   1.400   0.010  0.00  0.00    -0.134 NA
ATOM      7  C   UNL     1       1.224   1.834   0.000  0.00  0.00    +0.237 A 
ATOM      8  N   UNL     1       1.851  -1.668  -0.031  0.00  0.00    -0.303 N 
ATOM      9  C   UNL     1       3.182  -1.793  -0.343  0.00  0.00    +0.017 C 
ATOM     10  C   UNL     1       4.023  -0.736  -0.364  0.00  0.00    +0.024 C 
ATOM     11  C   UNL     1       5.376  -0.898  -0.713  0.00  0.00    +0.162 C 
ATOM     12  O   UNL     1       6.107   0.073  -0.719  0.00  0.00    -0.292 OA
ATOM     13  C   UNL     1       5.939  -2.242  -1.077  0.00  0.00    +0.088 C 
ATOM     14  C   UNL     1       4.822  -3.104  -1.676  0.00  0.00    +0.039 C 
ATOM     15  C   UNL     1       3.681  -3.184  -0.660  0.00  0.00    +0.060 C 
ATOM     16  H   UNL     1       1.315  -2.450   0.173  0.00  0.00    +0.153 HD
ENDROOT
BRANCH   1  20
ATOM     17  C   UNL     1       5.060   1.736   3.842  0.00  0.00    +0.162 A 
ATOM     18  C   UNL     1       4.217   0.645   3.698  0.00  0.00    +0.050 A 
ATOM     19  C   UNL     1       3.733   0.306   2.448  0.00  0.00    +0.008 A 
ATOM     20  C   UNL     1       4.097   1.046   1.338  0.00  0.00    -0.032 A 
ATOM     21  C   UNL     1       4.937   2.135   1.475  0.00  0.00    +0.054 A 
ATOM     22  C   UNL     1       5.421   2.484   2.725  0.00  0.00    +0.163 A 
BRANCH  17  24
ATOM     23  C   UNL     1       5.119   1.262   6.171  0.00  0.00    +0.277 C 
ATOM     24  O   UNL     1       5.532   2.075   5.071  0.00  0.00    -0.491 OA
ENDBRANCH  17  24
BRANCH  22  25
ATOM     25  O   UNL     1       6.248   3.555   2.862  0.00  0.00    -0.484 OA
BRANCH  25  26
ATOM     26  C   UNL     1       6.577   4.276   1.672  0.00  0.00    +0.264 C 
BRANCH  26  27
ATOM     27  C   UNL     1       7.496   5.420   2.016  0.00  0.00    -0.010 A 
ATOM     28  C   UNL     1       6.969   6.657   2.337  0.00  0.00    +0.007 A 
ATOM     29  C   UNL     1       7.812   7.705   2.657  0.00  0.00    +0.000 A 
ATOM     30  C   UNL     1       9.181   7.519   2.647  0.00  0.00    +0.000 A 
ATOM     31  C   UNL     1       9.708   6.283   2.321  0.00  0.00    +0.000 A 
ATOM     32  C   UNL     1       8.866   5.234   2.006  0.00  0.00    +0.007 A 
ENDBRANCH  26  27
ENDBRANCH  25  26
ENDBRANCH  22  25
ENDBRANCH   1  20
BRANCH  14  33
ATOM     33  C   UNL     1       5.346  -4.487  -1.962  0.00  0.00    -0.006 A 
ATOM     34  C   UNL     1       5.389  -5.157  -3.140  0.00  0.00    +0.011 A 
ATOM     35  C   UNL     1       5.923  -6.431  -3.168  0.00  0.00    +0.008 A 
ATOM     36  C   UNL     1       6.379  -6.978  -2.014  0.00  0.00    +0.045 A 
ATOM     37  S   UNL     1       6.063  -5.673  -0.837  0.00  0.00    -0.101 S 
ENDBRANCH  14  33
BRANCH   7  38
ATOM     38  O   UNL     1       1.614   3.136   0.003  0.00  0.00    -0.491 OA
ATOM     39  H   UNL     1       0.807   3.726   0.014  0.00  0.00    +0.294 HD
ENDBRANCH   7  38
TORSDOF 7
