REMARK  Name = ZINC39533338
REMARK  10 active torsions:
REMARK  status: ('A' for Active; 'I' for Inactive)
REMARK    1  A    between atoms: C_1  and  C_2
REMARK    2  A    between atoms: C_2  and  C_3
REMARK    3  A    between atoms: C_2  and  C_4
REMARK    4  A    between atoms: C_4  and  C_5
REMARK    5  A    between atoms: C_8  and  C_11
REMARK    6  A    between atoms: C_11  and  C_13
REMARK    7  A    between atoms: C_11  and  N_16
REMARK    8  A    between atoms: C_13  and  N_14
REMARK    9  A    between atoms: C_20  and  C_23
REMARK   10  A    between atoms: C_28  and  O_29
REMARK                            x       y       z     vdW  Elec       q    Type
REMARK                         _______ _______ _______ _____ _____    ______ ____
ROOT
ATOM      1  N   UNL     1      -2.164  -6.896   0.512  0.00  0.00    -0.297 NA
ATOM      2  C   UNL     1      -1.401  -6.989   1.765  0.00  0.00    +0.066 C 
ATOM      3  C   UNL     1      -2.299  -7.564   2.863  0.00  0.00    -0.066 C 
ATOM      4  N   UNL     1      -2.775  -8.894   2.460  0.00  0.00    +0.385 N 
ATOM      5  C   UNL     1      -3.555  -8.782   1.220  0.00  0.00    -0.023 C 
ATOM      6  C   UNL     1      -2.668  -8.216   0.109  0.00  0.00    +0.074 C 
ATOM      7  H   UNL     1      -1.984  -9.502   2.305  0.00  0.00    -0.085 HD
ATOM      8  H   UNL     1      -3.356  -9.278   3.189  0.00  0.00    -0.085 HD
ENDROOT
BRANCH   5   9
ATOM      9  C   UNL     1      -4.058 -10.144   0.818  0.00  0.00    -0.019 A 
ATOM     10  C   UNL     1      -3.451 -11.280   1.318  0.00  0.00    +0.005 A 
ATOM     11  C   UNL     1      -3.911 -12.530   0.949  0.00  0.00    +0.000 A 
ATOM     12  C   UNL     1      -4.980 -12.647   0.079  0.00  0.00    +0.004 A 
ATOM     13  C   UNL     1      -5.590 -11.514  -0.424  0.00  0.00    +0.045 A 
ATOM     14  C   UNL     1      -5.133 -10.259  -0.051  0.00  0.00    +0.118 A 
BRANCH  14  15
ATOM     15  O   UNL     1      -5.735  -9.143  -0.539  0.00  0.00    -0.507 OA
ATOM     16  H   UNL     1      -5.354  -8.821  -1.368  0.00  0.00    +0.292 HD
ENDBRANCH  14  15
ENDBRANCH   5   9
BRANCH   1  17
ATOM     17  C   UNL     1      -1.353  -6.294  -0.555  0.00  0.00    +0.102 C 
BRANCH  17  21
ATOM     18  C   UNL     1      -1.587  -2.037  -0.291  0.00  0.00    -0.047 A 
ATOM     19  C   UNL     1      -1.183  -2.635  -1.470  0.00  0.00    +0.004 A 
ATOM     20  C   UNL     1      -1.107  -4.013  -1.555  0.00  0.00    +0.005 A 
ATOM     21  C   UNL     1      -1.435  -4.792  -0.461  0.00  0.00    -0.029 A 
ATOM     22  C   UNL     1      -1.838  -4.194   0.718  0.00  0.00    +0.005 A 
ATOM     23  C   UNL     1      -1.910  -2.816   0.804  0.00  0.00    +0.004 A 
BRANCH  18  24
ATOM     24  C   UNL     1      -1.670  -0.535  -0.198  0.00  0.00    +0.038 C 
BRANCH  24  26
ATOM     25  C   UNL     1      -0.369   1.551   0.248  0.00  0.00    +0.007 C 
ATOM     26  C   UNL     1      -0.325   0.022   0.273  0.00  0.00    -0.013 C 
ATOM     27  C   UNL     1      -0.046  -0.457   1.698  0.00  0.00    +0.007 C 
ENDBRANCH  24  26
ENDBRANCH  18  24
ENDBRANCH  17  21
BRANCH  17  28
ATOM     28  C   UNL     1       0.104  -6.736  -0.399  0.00  0.00    +0.122 C 
BRANCH  28  29
ATOM     29  N   UNL     1       0.184  -8.200  -0.495  0.00  0.00    -0.231 NA
ATOM     30 CL   UNL     1       1.812  -8.722  -0.533  0.00  0.00    -0.024 Cl
ATOM     31  H   UNL     1      -0.319  -8.640   0.261  0.00  0.00    +0.141 HD
ENDBRANCH  28  29
ENDBRANCH  17  28
ENDBRANCH   1  17
TORSDOF 8
