REMARK  Name = ZINC14266456
REMARK  9 active torsions:
REMARK  status: ('A' for Active; 'I' for Inactive)
REMARK    1  A    between atoms: C_1  and  C_2
REMARK    2  A    between atoms: C_5  and  C_8
REMARK    3  A    between atoms: C_8  and  C_33
REMARK    4  A    between atoms: N_11  and  C_15
REMARK    5  A    between atoms: C_15  and  C_16
REMARK    6  A    between atoms: C_16  and  C_18
REMARK    7  A    between atoms: C_20  and  C_32
REMARK    8  A    between atoms: N_21  and  C_24
REMARK    9  A    between atoms: C_22  and  C_23
REMARK                            x       y       z     vdW  Elec       q    Type
REMARK                         _______ _______ _______ _____ _____    ______ ____
ROOT
ATOM      1  C   UNL     1      -4.754   2.874   2.429  0.00  0.00    +0.197 C 
ENDROOT
BRANCH   1   5
ATOM      2  C   UNL     1      -7.694   3.549   4.596  0.00  0.00    +0.135 C 
ATOM      3  C   UNL     1      -6.711   2.601   3.938  0.00  0.00    +0.251 C 
ATOM      4  O   UNL     1      -6.683   1.393   4.033  0.00  0.00    -0.272 OA
ATOM      5  N   UNL     1      -5.872   3.381   3.228  0.00  0.00    -0.216 N 
ATOM      6  C   UNL     1      -6.190   4.676   3.339  0.00  0.00    +0.310 C 
ATOM      7  O   UNL     1      -5.581   5.571   2.786  0.00  0.00    -0.252 OA
ATOM      8  N   UNL     1      -7.259   4.877   4.131  0.00  0.00    -0.281 N 
ATOM      9  C   UNL     1      -7.601   3.455   6.120  0.00  0.00    +0.047 C 
ATOM     10  H   UNL     1      -7.663   5.730   4.353  0.00  0.00    +0.152 HD
BRANCH   2  15
ATOM     11  C   UNL     1     -13.080   2.438   2.823  0.00  0.00    +0.044 C 
ATOM     12  C   UNL     1     -11.675   2.727   3.285  0.00  0.00    -0.050 A 
ATOM     13  C   UNL     1     -11.292   4.027   3.558  0.00  0.00    +0.004 A 
ATOM     14  C   UNL     1     -10.004   4.293   3.982  0.00  0.00    +0.006 A 
ATOM     15  C   UNL     1      -9.099   3.259   4.134  0.00  0.00    -0.015 A 
ATOM     16  C   UNL     1      -9.480   1.960   3.856  0.00  0.00    +0.006 A 
ATOM     17  C   UNL     1     -10.770   1.694   3.435  0.00  0.00    +0.004 A 
ENDBRANCH   2  15
ENDBRANCH   1   5
BRANCH   1  18
ATOM     18  C   UNL     1      -3.513   2.813   3.282  0.00  0.00    +0.183 C 
ATOM     19  O   UNL     1      -3.558   3.160   4.444  0.00  0.00    -0.290 OA
BRANCH  18  20
ATOM     20  C   UNL     1      -2.253   2.336   2.709  0.00  0.00    +0.040 A 
ATOM     21  C   UNL     1      -2.022   1.887   1.329  0.00  0.00    +0.034 A 
ATOM     22  C   UNL     1      -0.726   1.540   1.257  0.00  0.00    +0.017 A 
ATOM     23  N   UNL     1      -0.138   1.745   2.471  0.00  0.00    -0.343 N 
ATOM     24  C   UNL     1      -1.035   2.221   3.353  0.00  0.00    +0.027 A 
ATOM     25  C   UNL     1      -0.761   2.569   4.793  0.00  0.00    +0.064 C 
ATOM     26  C   UNL     1      -0.030   1.014   0.028  0.00  0.00    +0.063 C 
BRANCH  23  27
ATOM     27  C   UNL     1       1.271   1.484   2.772  0.00  0.00    +0.110 C 
ATOM     28  C   UNL     1       2.162   2.436   1.958  0.00  0.00    +0.049 C 
ATOM     29  C   UNL     1       3.635   1.964   2.019  0.00  0.00    +0.168 C 
ATOM     30  S   UNL     1       3.467   0.148   2.261  0.00  0.00    -0.029 S 
ATOM     31  O   UNL     1       4.032  -0.205   3.516  0.00  0.00    -0.174 OA
ATOM     32  O   UNL     1       3.904  -0.517   1.084  0.00  0.00    -0.174 OA
ATOM     33  C   UNL     1       1.632   0.024   2.373  0.00  0.00    +0.191 C 
ENDBRANCH  23  27
ENDBRANCH  18  20
ENDBRANCH   1  18
TORSDOF 5
