REMARK  Name = ZINC09164714
REMARK  6 active torsions:
REMARK  status: ('A' for Active; 'I' for Inactive)
REMARK    1  A    between atoms: C_1  and  C_2
REMARK    2  A    between atoms: C_2  and  C_3
REMARK    3  A    between atoms: C_2  and  N_58
REMARK    4  A    between atoms: C_13  and  C_15
REMARK    5  A    between atoms: C_18  and  O_21
REMARK    6  A    between atoms: O_21  and  C_22
REMARK                            x       y       z     vdW  Elec       q    Type
REMARK                         _______ _______ _______ _____ _____    ______ ____
ROOT
ATOM      1  C   UNL     1      -2.056   1.429   1.314  0.00  0.00    -0.073 C 
ATOM      2  C   UNL     1      -2.683   1.822   2.655  0.00  0.00    +0.052 C 
ATOM      3  C   UNL     1      -2.735   3.345   2.763  0.00  0.00    +0.189 C 
ATOM      4  C   UNL     1      -1.331   3.924   2.600  0.00  0.00    +0.052 C 
ATOM      5  C   UNL     1      -0.745   3.467   1.261  0.00  0.00    -0.073 C 
ATOM      6  N   UNL     1      -3.625   3.890   1.734  0.00  0.00    -0.207 N 
ATOM      7  C   UNL     1      -3.938   5.337   1.694  0.00  0.00    +0.136 C 
ATOM      8  C   UNL     1      -5.176   5.391   0.788  0.00  0.00    +0.086 C 
ATOM      9  C   UNL     1      -5.235   4.004   0.181  0.00  0.00    +0.068 C 
ATOM     10  N   UNL     1      -4.343   3.251   0.739  0.00  0.00    -0.185 NA
ATOM     11  C   UNL     1      -4.255   5.745   3.109  0.00  0.00    +0.018 A 
ATOM     12  C   UNL     1      -4.897   6.947   3.337  0.00  0.00    +0.024 A 
ATOM     13  C   UNL     1      -5.158   7.366   4.629  0.00  0.00    +0.018 A 
ATOM     14  C   UNL     1      -4.772   6.574   5.697  0.00  0.00    +0.019 A 
ATOM     15  C   UNL     1      -4.142   5.370   5.472  0.00  0.00    +0.047 A 
ATOM     16  C   UNL     1      -3.884   4.935   4.172  0.00  0.00    +0.129 A 
ATOM     17  O   UNL     1      -3.280   3.727   4.027  0.00  0.00    -0.467 OA
ATOM     18 BR   UNL     1      -6.037   9.012   4.935  0.00  0.00    -0.050 Br
ATOM     19  N   UNL     1      -0.690   1.990   1.242  0.00  0.00    +0.381 N 
ATOM     20  H   UNL     1      -0.154   1.666   2.056  0.00  0.00    -0.081 HD
ENDROOT
BRANCH   9  21
ATOM     21  C   UNL     1      -6.165   3.578  -0.880  0.00  0.00    -0.002 A 
ATOM     22  C   UNL     1      -7.093   4.482  -1.403  0.00  0.00    +0.013 A 
ATOM     23  C   UNL     1      -7.957   4.081  -2.400  0.00  0.00    +0.046 A 
ATOM     24  C   UNL     1      -7.914   2.777  -2.875  0.00  0.00    +0.127 A 
ATOM     25  C   UNL     1      -6.997   1.873  -2.354  0.00  0.00    +0.046 A 
ATOM     26  C   UNL     1      -6.126   2.267  -1.362  0.00  0.00    +0.013 A 
BRANCH  24  27
ATOM     27  O   UNL     1      -8.772   2.384  -3.853  0.00  0.00    -0.434 OA
BRANCH  27  28
ATOM     28  C   UNL     1      -9.688   3.364  -4.344  0.00  0.00    +0.541 C 
ATOM     29  F   UNL     1     -10.496   3.814  -3.295  0.00  0.00    -0.166 F 
ATOM     30  F   UNL     1      -8.976   4.442  -4.880  0.00  0.00    -0.166 F 
ENDBRANCH  27  28
ENDBRANCH  24  27
ENDBRANCH   9  21
BRANCH  19  32
ATOM     31  C   UNL     1       0.002  -0.004   0.002  0.00  0.00    -0.014 C 
ATOM     32  C   UNL     1      -0.019   1.526   0.010  0.00  0.00    -0.075 C 
ATOM     33  C   UNL     1       1.417   2.055  -0.000  0.00  0.00    -0.014 C 
ENDBRANCH  19  32
TORSDOF 4
