REMARK  Name = ZINC33514931
REMARK  10 active torsions:
REMARK  status: ('A' for Active; 'I' for Inactive)
REMARK    1  A    between atoms: C_1  and  C_2
REMARK    2  A    between atoms: C_2  and  O_3
REMARK    3  A    between atoms: O_3  and  C_4
REMARK    4  A    between atoms: C_4  and  C_6
REMARK    5  A    between atoms: C_7  and  C_28
REMARK    6  A    between atoms: C_10  and  N_11
REMARK    7  A    between atoms: N_11  and  C_12
REMARK    8  A    between atoms: C_12  and  N_14
REMARK    9  A    between atoms: C_15  and  C_17
REMARK   10  A    between atoms: C_17  and  C_18
REMARK                            x       y       z     vdW  Elec       q    Type
REMARK                         _______ _______ _______ _____ _____    ______ ____
ROOT
ATOM      1  N   UNL     1      -1.222  -2.361   2.484  0.00  0.00    -0.290 N 
ATOM      2  H   UNL     1      -1.177  -1.279   2.679  0.00  0.00    +0.154 HD
ENDROOT
BRANCH   1   7
ATOM      3  C   UNL     1      -1.248  -2.094   0.003  0.00  0.00    +0.095 A 
ATOM      4  C   UNL     1      -1.290  -2.848  -1.236  0.00  0.00    +0.005 A 
ATOM      5  C   UNL     1      -1.341  -4.200  -1.127  0.00  0.00    +0.056 A 
ATOM      6  S   UNL     1      -1.334  -4.469   0.633  0.00  0.00    -0.080 S 
ATOM      7  C   UNL     1      -1.259  -2.829   1.181  0.00  0.00    +0.086 A 
BRANCH   4   8
ATOM      8  C   UNL     1      -1.277  -2.175  -2.557  0.00  0.00    -0.016 A 
ATOM      9  C   UNL     1      -2.168  -1.136  -2.821  0.00  0.00    +0.010 A 
ATOM     10  C   UNL     1      -2.149  -0.510  -4.050  0.00  0.00    +0.020 A 
ATOM     11  C   UNL     1      -1.254  -0.918  -5.024  0.00  0.00    +0.041 A 
ATOM     12  C   UNL     1      -0.370  -1.953  -4.769  0.00  0.00    +0.020 A 
ATOM     13  C   UNL     1      -0.378  -2.583  -3.541  0.00  0.00    +0.010 A 
ATOM     14 CL   UNL     1      -1.239  -0.130  -6.571  0.00  0.00    -0.084 Cl
ENDBRANCH   4   8
BRANCH   3  15
ATOM     15  C   UNL     1      -1.192  -0.633   0.010  0.00  0.00    +0.342 C 
ATOM     16  O   UNL     1      -2.221   0.016   0.023  0.00  0.00    -0.245 OA
BRANCH  15  17
ATOM     17  O   UNL     1       0.002  -0.004   0.002  0.00  0.00    -0.461 OA
BRANCH  17  19
ATOM     18  C   UNL     1       1.418   1.954  -0.001  0.00  0.00    +0.048 C 
ATOM     19  C   UNL     1      -0.017   1.425   0.010  0.00  0.00    +0.229 C 
ENDBRANCH  17  19
ENDBRANCH  15  17
ENDBRANCH   3  15
ENDBRANCH   1   7
BRANCH   1  20
ATOM     20  C   UNL     1      -1.241  -3.231   3.513  0.00  0.00    +0.141 C 
ATOM     21  S   UNL     1      -1.310  -4.914   3.210  0.00  0.00    -0.018 S 
BRANCH  20  22
ATOM     22  N   UNL     1      -1.204  -2.775   4.781  0.00  0.00    -0.267 N 
ATOM     23  C   UNL     1      -1.223  -3.645   5.811  0.00  0.00    +0.223 C 
ATOM     24  O   UNL     1      -1.272  -4.837   5.596  0.00  0.00    -0.275 OA
ATOM     25  H   UNL     1      -1.159  -1.694   4.976  0.00  0.00    +0.157 HD
BRANCH  23  26
ATOM     26  C   UNL     1      -1.182  -3.136   7.229  0.00  0.00    +0.131 C 
BRANCH  26  27
ATOM     27  C   UNL     1      -1.214  -4.302   8.182  0.00  0.00    -0.031 A 
ATOM     28  C   UNL     1      -2.395  -4.721   8.712  0.00  0.00    +0.005 A 
ATOM     29  C   UNL     1      -2.444  -5.798   9.595  0.00  0.00    +0.001 A 
ATOM     30  C   UNL     1      -1.311  -6.461   9.954  0.00  0.00    +0.008 A 
ATOM     31  C   UNL     1      -0.072  -6.058   9.428  0.00  0.00    -0.018 A 
ATOM     32  C   UNL     1      -0.024  -4.966   8.525  0.00  0.00    -0.014 A 
ATOM     33  C   UNL     1       1.216  -4.560   8.002  0.00  0.00    +0.009 A 
ATOM     34  C   UNL     1       2.349  -5.223   8.361  0.00  0.00    +0.001 A 
ATOM     35  C   UNL     1       2.300  -6.299   9.245  0.00  0.00    +0.001 A 
ATOM     36  C   UNL     1       1.119  -6.718   9.775  0.00  0.00    +0.008 A 
ENDBRANCH  26  27
ENDBRANCH  23  26
ENDBRANCH  20  22
ENDBRANCH   1  20
TORSDOF 9
