REMARK  Name = ZINC08725902
REMARK  12 active torsions:
REMARK  status: ('A' for Active; 'I' for Inactive)
REMARK    1  A    between atoms: C_1  and  C_2
REMARK    2  A    between atoms: C_2  and  O_3
REMARK    3  A    between atoms: O_3  and  C_4
REMARK    4  A    between atoms: C_4  and  C_6
REMARK    5  A    between atoms: C_7  and  C_28
REMARK    6  A    between atoms: C_11  and  C_15
REMARK    7  A    between atoms: C_15  and  N_52
REMARK    8  A    between atoms: C_16  and  N_52
REMARK    9  A    between atoms: C_17  and  C_18
REMARK   10  A    between atoms: C_17  and  N_52
REMARK   11  A    between atoms: C_18  and  O_19
REMARK   12  A    between atoms: O_19  and  C_20
REMARK                            x       y       z     vdW  Elec       q    Type
REMARK                         _______ _______ _______ _____ _____    ______ ____
ROOT
ATOM      1  C   UNL     1       0.167  10.957   7.232  0.00  0.00    +0.102 A 
ATOM      2  C   UNL     1      -1.058  10.531   6.814  0.00  0.00    -0.017 A 
ATOM      3  C   UNL     1      -1.177   9.829   5.609  0.00  0.00    +0.051 A 
ATOM      4  C   UNL     1      -2.346   9.296   4.986  0.00  0.00    +0.128 A 
ATOM      5  N   UNL     1      -2.230   8.664   3.830  0.00  0.00    -0.219 NA
ATOM      6  C   UNL     1      -1.064   8.498   3.231  0.00  0.00    +0.116 A 
ATOM      7  N   UNL     1       0.052   8.967   3.755  0.00  0.00    -0.227 NA
ATOM      8  C   UNL     1       0.032   9.614   4.902  0.00  0.00    +0.114 A 
ATOM      9  S   UNL     1       1.251  10.387   5.933  0.00  0.00    -0.062 S 
ATOM     10  N   UNL     1      -3.583   9.442   5.581  0.00  0.00    -0.343 N 
ATOM     11  C   UNL     1      -2.280  10.815   7.648  0.00  0.00    +0.046 C 
ATOM     12  H   UNL     1      -3.645   9.636   6.529  0.00  0.00    +0.144 HD
ATOM     13  H   UNL     1      -4.390   9.351   5.051  0.00  0.00    +0.144 HD
ENDROOT
BRANCH   1  14
ATOM     14  C   UNL     1       0.511  11.700   8.448  0.00  0.00    +0.346 C 
ATOM     15  O   UNL     1      -0.365  12.042   9.220  0.00  0.00    -0.244 OA
BRANCH  14  16
ATOM     16  O   UNL     1       1.798  12.004   8.712  0.00  0.00    -0.461 OA
BRANCH  16  18
ATOM     17  C   UNL     1       3.568  12.993  10.061  0.00  0.00    +0.048 C 
ATOM     18  C   UNL     1       2.064  12.742   9.934  0.00  0.00    +0.229 C 
ENDBRANCH  16  18
ENDBRANCH  14  16
ENDBRANCH   1  14
BRANCH   6  19
ATOM     19  C   UNL     1      -1.010   7.762   1.917  0.00  0.00    -0.001 C 
BRANCH  19  21
ATOM     20  C   UNL     1       0.511   6.078   2.764  0.00  0.00    -0.095 C 
ATOM     21  N   UNL     1      -0.828   6.320   2.186  0.00  0.00    +0.385 N 
ATOM     22  H   UNL     1      -1.541   6.013   2.859  0.00  0.00    -0.081 HD
BRANCH  21  23
ATOM     23  C   UNL     1      -0.985   5.549   0.935  0.00  0.00    -0.037 C 
BRANCH  23  24
ATOM     24  C   UNL     1      -1.016   4.057   1.275  0.00  0.00    +0.210 C 
BRANCH  24  25
ATOM     25  O   UNL     1      -2.168   3.774   2.071  0.00  0.00    -0.494 OA
BRANCH  25  26
ATOM     26  C   UNL     1      -2.346   2.484   2.461  0.00  0.00    +0.120 A 
ATOM     27  C   UNL     1      -3.444   2.138   3.235  0.00  0.00    +0.047 A 
ATOM     28  C   UNL     1      -3.624   0.827   3.631  0.00  0.00    +0.023 A 
ATOM     29  C   UNL     1      -2.709  -0.141   3.255  0.00  0.00    +0.041 A 
ATOM     30  C   UNL     1      -1.613   0.202   2.484  0.00  0.00    +0.023 A 
ATOM     31  C   UNL     1      -1.430   1.512   2.087  0.00  0.00    +0.047 A 
ATOM     32 CL   UNL     1      -2.937  -1.789   3.754  0.00  0.00    -0.084 Cl
ENDBRANCH  25  26
ENDBRANCH  24  25
ENDBRANCH  23  24
ENDBRANCH  21  23
ENDBRANCH  19  21
ENDBRANCH   6  19
TORSDOF 9
