REMARK  Name = ZINC00987186
REMARK  12 active torsions:
REMARK  status: ('A' for Active; 'I' for Inactive)
REMARK    1  A    between atoms: C_1  and  C_2
REMARK    2  A    between atoms: C_2  and  O_3
REMARK    3  A    between atoms: O_3  and  C_4
REMARK    4  A    between atoms: C_6  and  C_12
REMARK    5  A    between atoms: C_9  and  O_10
REMARK    6  A    between atoms: C_15  and  C_26
REMARK    7  A    between atoms: C_21  and  N_25
REMARK    8  A    between atoms: C_22  and  C_23
REMARK    9  A    between atoms: C_28  and  O_34
REMARK   10  A    between atoms: C_31  and  O_32
REMARK   11  A    between atoms: O_32  and  C_33
REMARK   12  A    between atoms: O_34  and  C_35
REMARK                            x       y       z     vdW  Elec       q    Type
REMARK                         _______ _______ _______ _____ _____    ______ ____
ROOT
ATOM      1  C   UNL     1       0.324  -4.882  -0.313  0.00  0.00    +0.102 C 
ATOM      2  C   UNL     1       0.609  -5.617  -1.597  0.00  0.00    +0.054 A 
ATOM      3  C   UNL     1       1.121  -5.127  -2.802  0.00  0.00    +0.104 A 
ATOM      4  N   UNL     1       1.199  -6.136  -3.650  0.00  0.00    -0.170 NA
ATOM      5  N   UNL     1       0.739  -7.293  -3.003  0.00  0.00    -0.246 N 
ATOM      6  H   UNL     1       0.686  -8.180  -3.391  0.00  0.00    +0.192 HD
ATOM      7  C   UNL     1       0.383  -6.955  -1.746  0.00  0.00    +0.223 A 
ATOM      8  O   UNL     1      -0.114  -7.729  -0.750  0.00  0.00    -0.423 OA
ATOM      9  C   UNL     1      -0.131  -7.212   0.495  0.00  0.00    +0.200 C 
ATOM     10  C   UNL     1       0.068  -5.902   0.768  0.00  0.00    +0.098 C 
ENDROOT
BRANCH   1  13
ATOM     11  C   UNL     1      -1.905  -1.836  -0.473  0.00  0.00    +0.163 A 
ATOM     12  C   UNL     1      -0.789  -2.641  -0.314  0.00  0.00    +0.054 A 
ATOM     13  C   UNL     1      -0.892  -4.008  -0.486  0.00  0.00    -0.030 A 
ATOM     14  C   UNL     1      -2.108  -4.577  -0.817  0.00  0.00    +0.023 A 
ATOM     15  C   UNL     1      -3.227  -3.779  -0.977  0.00  0.00    +0.063 A 
ATOM     16  C   UNL     1      -3.131  -2.408  -0.800  0.00  0.00    +0.173 A 
ATOM     17 BR   UNL     1      -4.888  -4.561  -1.431  0.00  0.00    -0.046 Br
BRANCH  16  18
ATOM     18  O   UNL     1      -4.231  -1.622  -0.952  0.00  0.00    -0.503 OA
ATOM     19  H   UNL     1      -4.364  -1.302  -1.855  0.00  0.00    +0.292 HD
ENDBRANCH  16  18
BRANCH  11  20
ATOM     20  O   UNL     1      -1.805  -0.490  -0.305  0.00  0.00    -0.489 OA
BRANCH  20  22
ATOM     21  C   UNL     1      -0.568   1.568  -0.030  0.00  0.00    +0.048 C 
ATOM     22  C   UNL     1      -0.496   0.041  -0.088  0.00  0.00    +0.226 C 
ENDBRANCH  20  22
ENDBRANCH  11  20
ENDBRANCH   1  13
BRANCH   3  23
ATOM     23  C   UNL     1       1.507  -3.721  -3.079  0.00  0.00    +0.048 A 
ATOM     24  C   UNL     1       2.304  -3.025  -2.175  0.00  0.00    +0.059 A 
ATOM     25  C   UNL     1       2.662  -1.713  -2.438  0.00  0.00    +0.121 A 
ATOM     26  C   UNL     1       2.227  -1.093  -3.602  0.00  0.00    +0.049 A 
ATOM     27  C   UNL     1       1.436  -1.780  -4.503  0.00  0.00    +0.050 A 
ATOM     28  C   UNL     1       1.077  -3.094  -4.252  0.00  0.00    +0.130 A 
BRANCH  28  29
ATOM     29  O   UNL     1       0.304  -3.771  -5.142  0.00  0.00    -0.494 OA
ATOM     30  C   UNL     1      -0.099  -3.067  -6.318  0.00  0.00    +0.277 C 
ENDBRANCH  28  29
BRANCH  25  31
ATOM     31  O   UNL     1       3.440  -1.031  -1.556  0.00  0.00    -0.495 OA
ATOM     32  C   UNL     1       3.771   0.318  -1.890  0.00  0.00    +0.277 C 
ENDBRANCH  25  31
ENDBRANCH   3  23
BRANCH   9  33
ATOM     33  N   UNL     1      -0.362  -8.063   1.546  0.00  0.00    -0.328 N 
ATOM     34  H   UNL     1      -0.507  -9.008   1.382  0.00  0.00    +0.145 HD
ATOM     35  H   UNL     1      -0.379  -7.720   2.454  0.00  0.00    +0.145 HD
ENDBRANCH   9  33
BRANCH  10  36
ATOM     36  C   UNL     1       0.033  -5.468   2.133  0.00  0.00    +0.101 C 
ATOM     37  N   UNL     1       0.005  -5.123   3.215  0.00  0.00    -0.191 NA
ENDBRANCH  10  36
TORSDOF 9
