REMARK  Name = ZINC19976651
REMARK  8 active torsions:
REMARK  status: ('A' for Active; 'I' for Inactive)
REMARK    1  A    between atoms: C_1  and  C_2
REMARK    2  A    between atoms: C_2  and  C_4
REMARK    3  A    between atoms: C_2  and  N_17
REMARK    4  A    between atoms: C_4  and  C_6
REMARK    5  A    between atoms: C_28  and  C_32
REMARK    6  A    between atoms: C_32  and  C_33
REMARK    7  A    between atoms: C_32  and  C_34
REMARK    8  A    between atoms: C_32  and  C_35
REMARK                            x       y       z     vdW  Elec       q    Type
REMARK                         _______ _______ _______ _____ _____    ______ ____
ROOT
ATOM      1  N   UNL     1       4.798   4.084   0.448  0.00  0.00    -0.200 N 
ATOM      2  C   UNL     1       5.510   3.755   1.544  0.00  0.00    +0.279 A 
ATOM      3  O   UNL     1       5.275   2.723   2.149  0.00  0.00    -0.265 OA
ATOM      4  C   UNL     1       6.552   4.639   1.982  0.00  0.00    +0.079 A 
ATOM      5  C   UNL     1       7.443   4.484   3.129  0.00  0.00    -0.023 A 
ATOM      6  C   UNL     1       8.348   5.464   3.340  0.00  0.00    -0.004 A 
ATOM      7  S   UNL     1       8.068   6.634   2.038  0.00  0.00    -0.071 S 
ATOM      8  C   UNL     1       6.733   5.801   1.215  0.00  0.00    +0.138 A 
ATOM      9  N   UNL     1       5.992   6.071   0.144  0.00  0.00    -0.123 NA
ATOM     10  N   UNL     1       5.061   5.270  -0.245  0.00  0.00    -0.061 NA
ATOM     11  C   UNL     1       9.365   5.540   4.438  0.00  0.00    +0.046 C 
ATOM     12  C   UNL     1       9.480   4.153   5.087  0.00  0.00    -0.000 C 
ATOM     13  C   UNL     1       8.072   3.625   5.374  0.00  0.00    +0.009 C 
ATOM     14  C   UNL     1       7.370   3.277   4.061  0.00  0.00    +0.037 C 
ENDROOT
BRANCH  12  15
ATOM     15  C   UNL     1      10.264   4.263   6.396  0.00  0.00    -0.035 C 
ATOM     16  C   UNL     1      10.361   2.884   7.050  0.00  0.00    +0.011 C 
ATOM     17  C   UNL     1      11.670   4.791   6.106  0.00  0.00    +0.011 C 
ATOM     18  C   UNL     1       9.543   5.226   7.342  0.00  0.00    +0.011 C 
ENDBRANCH  12  15
BRANCH   1  20
ATOM     19  C   UNL     1       4.041   2.732  -1.444  0.00  0.00    +0.041 C 
ATOM     20  C   UNL     1       3.733   3.193  -0.018  0.00  0.00    +0.180 C 
BRANCH  20  21
ATOM     21  C   UNL     1       2.418   3.930  -0.001  0.00  0.00    +0.187 C 
ATOM     22  O   UNL     1       2.403   5.143   0.005  0.00  0.00    -0.290 OA
BRANCH  21  23
ATOM     23  C   UNL     1       1.156   3.180   0.008  0.00  0.00    +0.022 A 
ATOM     24  C   UNL     1       1.171   1.780   0.000  0.00  0.00    +0.015 A 
ATOM     25  C   UNL     1      -0.013   1.076   0.008  0.00  0.00    +0.048 A 
ATOM     26  C   UNL     1      -1.224   1.752   0.017  0.00  0.00    +0.142 A 
ATOM     27  C   UNL     1      -1.248   3.150   0.030  0.00  0.00    +0.076 A 
ATOM     28  C   UNL     1      -0.067   3.863   0.023  0.00  0.00    +0.038 A 
ATOM     29  N   UNL     1      -2.484   3.814   0.044  0.00  0.00    -0.280 N 
ATOM     30  C   UNL     1      -3.598   3.119   0.350  0.00  0.00    +0.255 C 
ATOM     31  O   UNL     1      -4.681   3.665   0.334  0.00  0.00    -0.272 OA
ATOM     32  C   UNL     1      -3.489   1.663   0.724  0.00  0.00    +0.325 C 
ATOM     33  O   UNL     1      -2.396   1.066   0.021  0.00  0.00    -0.481 OA
ATOM     34  H   UNL     1      -2.534   4.887  -0.193  0.00  0.00    +0.155 HD
ENDBRANCH  21  23
ENDBRANCH  20  21
ENDBRANCH   1  20
TORSDOF 4
