REMARK  Name = ZINC58270988
REMARK  10 active torsions:
REMARK  status: ('A' for Active; 'I' for Inactive)
REMARK    1  A    between atoms: C_1  and  C_2
REMARK    2  A    between atoms: C_5  and  N_9
REMARK    3  A    between atoms: C_6  and  C_8
REMARK    4  A    between atoms: C_10  and  C_12
REMARK    5  A    between atoms: C_12  and  C_14
REMARK    6  A    between atoms: C_12  and  N_15
REMARK    7  A    between atoms: N_15  and  C_16
REMARK    8  A    between atoms: C_17  and  C_29
REMARK    9  A    between atoms: N_18  and  C_28
REMARK   10  A    between atoms: N_19  and  C_22
REMARK                            x       y       z     vdW  Elec       q    Type
REMARK                         _______ _______ _______ _____ _____    ______ ____
ROOT
ATOM      1  N   UNL     1       0.595  -6.715  -2.519  0.00  0.00    -0.327 N 
ATOM      2  H   UNL     1       0.225  -6.052  -3.122  0.00  0.00    +0.147 HD
ENDROOT
BRANCH   1   3
ATOM      3  C   UNL     1       0.556  -8.083  -2.865  0.00  0.00    +0.116 A 
ATOM      4  C   UNL     1       0.041  -8.599  -4.001  0.00  0.00    +0.059 A 
ATOM      5  N   UNL     1       0.193  -9.964  -3.962  0.00  0.00    -0.282 N 
ATOM      6  N   UNL     1       0.825 -10.299  -2.757  0.00  0.00    -0.216 N 
ATOM      7  C   UNL     1       1.056  -9.155  -2.082  0.00  0.00    +0.293 A 
ATOM      8  O   UNL     1       1.595  -9.060  -0.994  0.00  0.00    -0.264 OA
ATOM      9  C   UNL     1      -0.233 -10.906  -5.000  0.00  0.00    +0.171 C 
ATOM     10  C   UNL     1      -0.593  -7.813  -5.119  0.00  0.00    +0.067 C 
BRANCH   6  11
ATOM     11  C   UNL     1       1.160 -11.589  -2.334  0.00  0.00    +0.067 A 
ATOM     12  C   UNL     1       0.820 -12.012  -1.055  0.00  0.00    +0.028 A 
ATOM     13  C   UNL     1       1.153 -13.286  -0.639  0.00  0.00    +0.002 A 
ATOM     14  C   UNL     1       1.824 -14.140  -1.495  0.00  0.00    +0.000 A 
ATOM     15  C   UNL     1       2.165 -13.722  -2.768  0.00  0.00    +0.002 A 
ATOM     16  C   UNL     1       1.829 -12.451  -3.192  0.00  0.00    +0.028 A 
ENDBRANCH   6  11
ENDBRANCH   1   3
BRANCH   1  17
ATOM     17  C   UNL     1       1.194  -6.298  -1.248  0.00  0.00    +0.154 C 
ATOM     18  C   UNL     1       0.149  -6.399  -0.135  0.00  0.00    +0.038 C 
BRANCH  17  20
ATOM     19  N   UNL     1       2.259  -4.273  -0.308  0.00  0.00    -0.284 N 
ATOM     20  C   UNL     1       1.670  -4.873  -1.362  0.00  0.00    +0.237 C 
ATOM     21  O   UNL     1       1.525  -4.266  -2.402  0.00  0.00    -0.273 OA
ATOM     22  H   UNL     1       2.446  -4.781   0.496  0.00  0.00    +0.155 HD
BRANCH  19  27
ATOM     23  C   UNL     1       3.638   1.223  -0.580  0.00  0.00    +0.044 C 
ATOM     24  C   UNL     1       3.272  -0.237  -0.508  0.00  0.00    -0.050 A 
ATOM     25  C   UNL     1       3.244  -0.999  -1.661  0.00  0.00    +0.005 A 
ATOM     26  C   UNL     1       2.909  -2.337  -1.599  0.00  0.00    +0.024 A 
ATOM     27  C   UNL     1       2.599  -2.918  -0.375  0.00  0.00    +0.036 A 
ATOM     28  C   UNL     1       2.629  -2.150   0.781  0.00  0.00    -0.029 A 
ATOM     29  C   UNL     1       2.970  -0.813   0.712  0.00  0.00    +0.008 A 
ATOM     30  C   UNL     1       2.294  -2.776   2.111  0.00  0.00    +0.045 C 
ENDBRANCH  19  27
ENDBRANCH  17  20
ENDBRANCH   1  17
TORSDOF 5
