REMARK  Name = ZINC66106636
REMARK  5 active torsions:
REMARK  status: ('A' for Active; 'I' for Inactive)
REMARK    1  A    between atoms: C_1  and  C_2
REMARK    2  A    between atoms: C_2  and  N_3
REMARK    3  A    between atoms: C_7  and  C_9
REMARK    4  A    between atoms: C_9  and  N_10
REMARK    5  A    between atoms: C_13  and  C_16
REMARK                            x       y       z     vdW  Elec       q    Type
REMARK                         _______ _______ _______ _____ _____    ______ ____
ROOT
ATOM      1  N   UNL     1      -1.379  -1.708  -2.686  0.00  0.00    -0.325 N 
ATOM      2  C   UNL     1      -2.186  -1.936  -3.789  0.00  0.00    +0.159 A 
ATOM      3  N   UNL     1      -3.377  -1.441  -4.069  0.00  0.00    -0.225 NA
ATOM      4  C   UNL     1      -4.015  -1.773  -5.189  0.00  0.00    +0.080 A 
ATOM      5  C   UNL     1      -3.423  -2.640  -6.063  0.00  0.00    +0.076 A 
ATOM      6  S   UNL     1      -1.885  -2.971  -5.215  0.00  0.00    -0.060 S 
ATOM      7  H   UNL     1      -1.678  -1.113  -1.981  0.00  0.00    +0.148 HD
ENDROOT
BRANCH   4   8
ATOM      8  C   UNL     1      -5.353  -1.207  -5.486  0.00  0.00    +0.003 A 
ATOM      9  C   UNL     1      -6.018  -1.564  -6.658  0.00  0.00    +0.014 A 
ATOM     10  C   UNL     1      -7.264  -1.039  -6.936  0.00  0.00    +0.048 A 
ATOM     11  C   UNL     1      -7.858  -0.155  -6.049  0.00  0.00    +0.142 A 
ATOM     12  C   UNL     1      -7.197   0.205  -4.875  0.00  0.00    +0.076 A 
ATOM     13  C   UNL     1      -5.951  -0.322  -4.590  0.00  0.00    +0.037 A 
ATOM     14  N   UNL     1      -7.813   1.103  -3.990  0.00  0.00    -0.280 N 
ATOM     15  C   UNL     1      -9.135   1.349  -4.122  0.00  0.00    +0.255 C 
ATOM     16  O   UNL     1      -9.682   2.144  -3.387  0.00  0.00    -0.272 OA
ATOM     17  C   UNL     1      -9.926   0.633  -5.187  0.00  0.00    +0.325 C 
ATOM     18  O   UNL     1      -9.086   0.367  -6.313  0.00  0.00    -0.481 OA
ATOM     19  H   UNL     1      -7.298   1.539  -3.293  0.00  0.00    +0.155 HD
ENDBRANCH   4   8
BRANCH   1  20
ATOM     20  C   UNL     1      -0.074  -2.367  -2.584  0.00  0.00    +0.088 C 
BRANCH  20  25
ATOM     21  N   UNL     1       0.690  -0.478  -1.207  0.00  0.00    +0.382 N 
ATOM     22  C   UNL     1       2.115  -0.088  -1.153  0.00  0.00    -0.078 C 
ATOM     23  C   UNL     1       2.844  -1.331  -0.584  0.00  0.00    -0.020 C 
ATOM     24  C   UNL     1       2.053  -2.489  -1.246  0.00  0.00    -0.016 C 
ATOM     25  C   UNL     1       0.608  -1.948  -1.280  0.00  0.00    -0.051 C 
ATOM     26  H   UNL     1       0.259  -0.072  -2.024  0.00  0.00    -0.081 HD
BRANCH  21  28
ATOM     27  C   UNL     1      -0.019   1.526   0.010  0.00  0.00    -0.017 C 
ATOM     28  C   UNL     1       0.002  -0.004   0.002  0.00  0.00    -0.082 C 
ENDBRANCH  21  28
ENDBRANCH  20  25
ENDBRANCH   1  20
TORSDOF 4
