REMARK  Name = ZINC16988893
REMARK  10 active torsions:
REMARK  status: ('A' for Active; 'I' for Inactive)
REMARK    1  A    between atoms: C_1  and  C_2
REMARK    2  A    between atoms: C_2  and  C_4
REMARK    3  A    between atoms: C_2  and  S_14
REMARK    4  A    between atoms: N_9  and  C_10
REMARK    5  A    between atoms: C_10  and  C_11
REMARK    6  A    between atoms: C_10  and  C_12
REMARK    7  A    between atoms: C_10  and  C_13
REMARK    8  A    between atoms: S_14  and  C_15
REMARK    9  A    between atoms: C_18  and  C_21
REMARK   10  A    between atoms: N_19  and  N_20
REMARK                            x       y       z     vdW  Elec       q    Type
REMARK                         _______ _______ _______ _____ _____    ______ ____
ROOT
ATOM      1  S   UNL     1       4.676   7.124  -0.134  0.00  0.00    -0.072 S 
ENDROOT
BRANCH   1   2
ATOM      2  C   UNL     1       3.897   5.546  -0.057  0.00  0.00    +0.209 A 
ATOM      3  N   UNL     1       4.500   4.383   0.043  0.00  0.00    -0.121 NA
ATOM      4  N   UNL     1       3.632   3.436   0.074  0.00  0.00    -0.127 NA
ATOM      5  C   UNL     1       2.421   3.936  -0.005  0.00  0.00    +0.183 A 
ATOM      6  N   UNL     1       2.554   5.303  -0.097  0.00  0.00    -0.224 N 
BRANCH   5   7
ATOM      7  C   UNL     1       1.154   3.175  -0.002  0.00  0.00    +0.035 A 
ATOM      8  C   UNL     1       0.165   3.455  -0.946  0.00  0.00    +0.013 A 
ATOM      9  C   UNL     1      -1.016   2.741  -0.937  0.00  0.00    +0.001 A 
ATOM     10  C   UNL     1      -1.223   1.753   0.008  0.00  0.00    +0.001 A 
ATOM     11  C   UNL     1      -0.246   1.466   0.944  0.00  0.00    +0.016 A 
ATOM     12  C   UNL     1       0.940   2.172   0.947  0.00  0.00    +0.029 A 
ATOM     13 BR   UNL     1       2.273   1.783   2.231  0.00  0.00    -0.050 Br
ENDBRANCH   5   7
BRANCH   6  14
ATOM     14  N   UNL     1       1.551   6.224  -0.204  0.00  0.00    -0.295 N 
ATOM     15  H   UNL     1       1.305   6.598   0.700  0.00  0.00    +0.163 HD
ATOM     16  H   UNL     1       1.804   6.962  -0.844  0.00  0.00    +0.163 HD
ENDBRANCH   6  14
ENDBRANCH   1   2
BRANCH   1  18
ATOM     17  C   UNL     1       6.682   5.985   1.329  0.00  0.00    +0.029 C 
ATOM     18  C   UNL     1       6.412   6.623  -0.035  0.00  0.00    +0.137 C 
BRANCH  18  19
ATOM     19  C   UNL     1       7.295   7.832  -0.207  0.00  0.00    +0.234 C 
ATOM     20  O   UNL     1       6.873   8.935   0.069  0.00  0.00    -0.274 OA
ATOM     21  N   UNL     1       8.553   7.688  -0.668  0.00  0.00    -0.239 N 
ATOM     22  C   UNL     1       9.343   8.770  -0.822  0.00  0.00    +0.306 C 
ATOM     23  O   UNL     1       8.920   9.875  -0.545  0.00  0.00    -0.252 OA
ATOM     24  N   UNL     1      10.601   8.625  -1.282  0.00  0.00    -0.294 N 
ATOM     25  H   UNL     1       8.891   6.806  -0.888  0.00  0.00    +0.159 HD
ATOM     26  H   UNL     1      10.939   7.743  -1.503  0.00  0.00    +0.151 HD
BRANCH  24  27
ATOM     27  C   UNL     1      11.459   9.801  -1.450  0.00  0.00    +0.028 C 
ATOM     28  C   UNL     1      11.637  10.499  -0.100  0.00  0.00    +0.031 C 
ATOM     29  C   UNL     1      12.825   9.363  -1.982  0.00  0.00    +0.031 C 
ATOM     30  C   UNL     1      10.811  10.768  -2.442  0.00  0.00    +0.031 C 
ENDBRANCH  24  27
ENDBRANCH  18  19
ENDBRANCH   1  18
TORSDOF 6
