REMARK  Name = ZINC12587084
REMARK  7 active torsions:
REMARK  status: ('A' for Active; 'I' for Inactive)
REMARK    1  A    between atoms: C_1  and  C_2
REMARK    2  A    between atoms: C_2  and  C_3
REMARK    3  A    between atoms: C_2  and  C_4
REMARK    4  A    between atoms: C_4  and  C_5
REMARK    5  A    between atoms: C_5  and  C_7
REMARK    6  A    between atoms: C_5  and  O_29
REMARK    7  A    between atoms: C_15  and  C_19
REMARK                            x       y       z     vdW  Elec       q    Type
REMARK                         _______ _______ _______ _____ _____    ______ ____
ROOT
ATOM      1  C   UNL     1       5.335  12.005   1.025  0.00  0.00    +0.021 C 
ATOM      2  C   UNL     1       4.395  12.377  -0.126  0.00  0.00    +0.025 C 
ATOM      3  C   UNL     1       3.079  11.613   0.030  0.00  0.00    +0.108 C 
ATOM      4  N   UNL     1       3.345  10.169   0.021  0.00  0.00    -0.298 N 
ATOM      5  C   UNL     1       4.207   9.781   1.144  0.00  0.00    +0.108 C 
ATOM      6  C   UNL     1       5.558  10.491   1.022  0.00  0.00    +0.025 C 
ATOM      7  C   UNL     1       2.165   9.446   0.029  0.00  0.00    +0.238 A 
ATOM      8  N   UNL     1       2.208   8.121   0.028  0.00  0.00    -0.212 NA
ATOM      9  C   UNL     1       1.069   7.430   0.030  0.00  0.00    +0.094 A 
ATOM     10  C   UNL     1      -0.140   8.134   0.045  0.00  0.00    +0.163 A 
ATOM     11  N   UNL     1      -0.116   9.454   0.051  0.00  0.00    -0.152 NA
ATOM     12  N   UNL     1       1.003  10.088   0.043  0.00  0.00    -0.113 NA
ENDROOT
BRANCH   9  13
ATOM     13  C   UNL     1       1.082   5.948   0.022  0.00  0.00    +0.003 A 
ATOM     14  C   UNL     1       2.308   5.262   0.007  0.00  0.00    +0.011 A 
ATOM     15  C   UNL     1       2.347   3.905   0.000  0.00  0.00    +0.009 A 
ATOM     16  C   UNL     1       1.149   3.167   0.008  0.00  0.00    -0.018 A 
ATOM     17  C   UNL     1       1.163   1.762   0.000  0.00  0.00    +0.008 A 
ATOM     18  C   UNL     1      -0.013   1.076   0.008  0.00  0.00    +0.001 A 
ATOM     19  C   UNL     1      -1.235   1.745   0.018  0.00  0.00    +0.001 A 
ATOM     20  C   UNL     1      -1.288   3.105   0.031  0.00  0.00    +0.008 A 
ATOM     21  C   UNL     1      -0.094   3.849   0.024  0.00  0.00    -0.017 A 
ATOM     22  C   UNL     1      -0.113   5.252   0.031  0.00  0.00    +0.018 A 
ENDBRANCH   9  13
BRANCH   1  23
ATOM     23  C   UNL     1       6.675  12.720   0.841  0.00  0.00    +0.118 C 
BRANCH  23  24
ATOM     24  O   UNL     1       6.465  14.133   0.837  0.00  0.00    -0.392 OA
ATOM     25  H   UNL     1       6.069  14.475   1.650  0.00  0.00    +0.210 HD
ENDBRANCH  23  24
BRANCH  23  26
ATOM     26  C   UNL     1       7.613  12.348   1.991  0.00  0.00    +0.034 C 
BRANCH  26  28
ATOM     27  C   UNL     1       9.894  12.695   2.951  0.00  0.00    +0.007 C 
ATOM     28  C   UNL     1       8.993  12.961   1.744  0.00  0.00    -0.015 C 
ATOM     29  C   UNL     1       9.614  12.332   0.495  0.00  0.00    +0.007 C 
ENDBRANCH  26  28
ENDBRANCH  23  26
ENDBRANCH   1  23
TORSDOF 5
