REMARK  Name = ZINC41792637
REMARK  6 active torsions:
REMARK  status: ('A' for Active; 'I' for Inactive)
REMARK    1  A    between atoms: C_1  and  C_2
REMARK    2  A    between atoms: C_2  and  C_3
REMARK    3  A    between atoms: C_2  and  C_13
REMARK    4  A    between atoms: C_2  and  N_16
REMARK    5  A    between atoms: N_16  and  C_17
REMARK    6  A    between atoms: C_17  and  C_18
REMARK                            x       y       z     vdW  Elec       q    Type
REMARK                         _______ _______ _______ _____ _____    ______ ____
ROOT
ATOM      1  C   UNL     1      -0.027   1.518   0.042  0.00  0.00    +0.010 C 
ATOM      2  C   UNL     1      -0.001  -0.011   0.003  0.00  0.00    +0.092 C 
ENDROOT
BRANCH   2   3
ATOM      3  C   UNL     1       0.719  -0.532   1.220  0.00  0.00    +0.106 A 
ATOM      4  C   UNL     1       1.990  -0.252   1.538  0.00  0.00    +0.052 A 
ATOM      5  C   UNL     1       2.267  -0.966   2.790  0.00  0.00    +0.021 A 
ATOM      6  C   UNL     1       3.380  -1.082   3.621  0.00  0.00    +0.027 A 
ATOM      7  C   UNL     1       3.304  -1.856   4.758  0.00  0.00    +0.019 A 
ATOM      8  C   UNL     1       2.125  -2.518   5.075  0.00  0.00    +0.019 A 
ATOM      9  C   UNL     1       1.018  -2.411   4.262  0.00  0.00    +0.048 A 
ATOM     10  C   UNL     1       1.074  -1.635   3.112  0.00  0.00    +0.135 A 
ATOM     11  O   UNL     1       0.178  -1.341   2.148  0.00  0.00    -0.461 OA
ATOM     12 BR   UNL     1       4.810  -2.019   5.890  0.00  0.00    -0.050 Br
ENDBRANCH   2   3
BRANCH   2  13
ATOM     13  C   UNL     1       0.717  -0.470  -1.240  0.00  0.00    +0.352 C 
ATOM     14  O   UNL     1       1.847  -0.075  -1.472  0.00  0.00    -0.247 OA
ATOM     15  O   UNL     1       0.167  -1.235  -2.014  0.00  0.00    -0.247 OA
ENDBRANCH   2  13
BRANCH   2  16
ATOM     16  N   UNL     1      -1.377  -0.524  -0.008  0.00  0.00    +0.395 N 
ATOM     17  H   UNL     1      -1.830  -0.255  -0.869  0.00  0.00    -0.084 HD
ATOM     18  H   UNL     1      -1.361  -1.531   0.063  0.00  0.00    -0.084 HD
BRANCH  16  19
ATOM     19  C   UNL     1      -2.118   0.035   1.131  0.00  0.00    -0.077 C 
BRANCH  19  20
ATOM     20  C   UNL     1      -3.510  -0.598   1.194  0.00  0.00    -0.028 C 
ATOM     21  C   UNL     1      -4.559   0.134   0.342  0.00  0.00    +0.002 C 
ATOM     22  C   UNL     1      -5.548  -0.105   1.495  0.00  0.00    +0.000 C 
ATOM     23  C   UNL     1      -4.325  -0.170   2.425  0.00  0.00    +0.002 C 
ENDBRANCH  19  20
ENDBRANCH  16  19
ENDBRANCH   2  16
TORSDOF 5
