REMARK  Name = ZINC58949753
REMARK  8 active torsions:
REMARK  status: ('A' for Active; 'I' for Inactive)
REMARK    1  A    between atoms: C_1  and  C_2
REMARK    2  A    between atoms: C_2  and  C_29
REMARK    3  A    between atoms: C_6  and  C_16
REMARK    4  A    between atoms: C_8  and  C_12
REMARK    5  A    between atoms: C_9  and  N_11
REMARK    6  A    between atoms: C_12  and  O_14
REMARK    7  A    between atoms: O_14  and  C_15
REMARK    8  A    between atoms: C_18  and  N_23
REMARK                            x       y       z     vdW  Elec       q    Type
REMARK                         _______ _______ _______ _____ _____    ______ ____
ROOT
ATOM      1  C   UNL     1      -0.038   1.530  -0.047  0.00  0.00    +0.012 C 
ATOM      2  C   UNL     1      -0.006   0.000  -0.018  0.00  0.00    -0.021 C 
ATOM      3  C   UNL     1       0.747  -0.521  -1.244  0.00  0.00    +0.081 C 
ATOM      4  C   UNL     1       2.170  -0.015  -1.220  0.00  0.00    +0.115 C 
ATOM      5  C   UNL     1       2.800   0.212  -0.053  0.00  0.00    +0.045 C 
ATOM      6  C   UNL     1       4.224   0.712  -0.033  0.00  0.00    +0.099 C 
ATOM      7  C   UNL     1       4.587   1.302  -1.366  0.00  0.00    +0.105 C 
ATOM      8  C   UNL     1       3.849   1.015  -2.471  0.00  0.00    +0.195 C 
ATOM      9  O   UNL     1       2.785   0.201  -2.399  0.00  0.00    -0.446 OA
ATOM     10  C   UNL     1       2.155  -0.004   1.180  0.00  0.00    +0.164 C 
ATOM     11  O   UNL     1       2.762   0.193   2.213  0.00  0.00    -0.292 OA
ATOM     12  C   UNL     1       0.727  -0.475   1.241  0.00  0.00    +0.086 C 
ATOM     13  C   UNL     1      -1.436  -0.544  -0.017  0.00  0.00    +0.012 C 
ENDROOT
BRANCH   6  14
ATOM     14  C   UNL     1       5.151  -0.436   0.271  0.00  0.00    -0.015 A 
ATOM     15  C   UNL     1       5.197  -1.530  -0.572  0.00  0.00    +0.038 A 
ATOM     16  C   UNL     1       6.047  -2.583  -0.293  0.00  0.00    +0.127 A 
ATOM     17  C   UNL     1       6.853  -2.543   0.830  0.00  0.00    +0.034 A 
ATOM     18  C   UNL     1       6.809  -1.450   1.673  0.00  0.00    +0.022 A 
ATOM     19  C   UNL     1       5.962  -0.392   1.392  0.00  0.00    +0.045 A 
ATOM     20 CL   UNL     1       5.911   0.985   2.447  0.00  0.00    -0.083 Cl
BRANCH  16  21
ATOM     21  N   UNL     1       6.095  -3.755  -1.196  0.00  0.00    +0.056 N 
ATOM     22  O   UNL     1       5.391  -3.790  -2.178  0.00  0.00    -0.126 OA
ATOM     23  O   UNL     1       6.839  -4.676  -0.953  0.00  0.00    -0.126 OA
ENDBRANCH  16  21
ENDBRANCH   6  14
BRANCH   8  24
ATOM     24  N   UNL     1       4.197   1.565  -3.675  0.00  0.00    -0.329 N 
ATOM     25  H   UNL     1       5.008   2.093  -3.751  0.00  0.00    +0.145 HD
ATOM     26  H   UNL     1       3.633   1.427  -4.452  0.00  0.00    +0.145 HD
ENDBRANCH   8  24
BRANCH   7  27
ATOM     27  C   UNL     1       5.697   2.155  -1.472  0.00  0.00    +0.341 C 
ATOM     28  O   UNL     1       5.606   3.318  -1.120  0.00  0.00    -0.245 OA
BRANCH  27  29
ATOM     29  O   UNL     1       6.864   1.688  -1.963  0.00  0.00    -0.465 OA
ATOM     30  C   UNL     1       7.952   2.612  -2.042  0.00  0.00    +0.280 C 
ENDBRANCH  27  29
ENDBRANCH   7  27
TORSDOF 5
