REMARK  Name = ZINC08894322
REMARK  4 active torsions:
REMARK  status: ('A' for Active; 'I' for Inactive)
REMARK    1  A    between atoms: C_4  and  N_7
REMARK    2  A    between atoms: N_7  and  C_8
REMARK    3  A    between atoms: C_16  and  C_18
REMARK    4  A    between atoms: C_18  and  N_19
REMARK                            x       y       z     vdW  Elec       q    Type
REMARK                         _______ _______ _______ _____ _____    ______ ____
ROOT
ATOM      1  C   UNL     1       0.951   7.481   0.240  0.00  0.00    +0.214 C 
ENDROOT
BRANCH   1   2
ATOM      2  N   UNL     1       2.289   8.043   0.443  0.00  0.00    -0.215 N 
ATOM      3  C   UNL     1       2.853   8.244   1.654  0.00  0.00    +0.251 C 
ATOM      4  O   UNL     1       2.370   8.004   2.740  0.00  0.00    -0.272 OA
ATOM      5  C   UNL     1       4.212   8.827   1.366  0.00  0.00    +0.138 C 
ATOM      6  C   UNL     1       5.332   7.941   1.927  0.00  0.00    +0.045 C 
ATOM      7  C   UNL     1       5.624   8.609   3.289  0.00  0.00    +0.038 C 
ATOM      8  C   UNL     1       5.197  10.053   3.124  0.00  0.00    -0.042 A 
ATOM      9  C   UNL     1       4.380  10.176   2.012  0.00  0.00    -0.012 A 
ATOM     10  C   UNL     1       3.869  11.417   1.670  0.00  0.00    +0.006 A 
ATOM     11  C   UNL     1       4.171  12.529   2.432  0.00  0.00    +0.000 A 
ATOM     12  C   UNL     1       4.986  12.405   3.541  0.00  0.00    +0.000 A 
ATOM     13  C   UNL     1       5.498  11.169   3.885  0.00  0.00    +0.004 A 
ATOM     14  N   UNL     1       4.276   8.911  -0.093  0.00  0.00    -0.281 N 
ATOM     15  C   UNL     1       3.102   8.428  -0.549  0.00  0.00    +0.310 C 
ATOM     16  O   UNL     1       2.815   8.351  -1.728  0.00  0.00    -0.252 OA
ATOM     17  H   UNL     1       5.015   9.245  -0.625  0.00  0.00    +0.152 HD
ENDBRANCH   1   2
BRANCH   1  19
ATOM     18  N   UNL     1      -0.071   5.238   0.032  0.00  0.00    -0.265 N 
ATOM     19  C   UNL     1       1.050   5.982   0.122  0.00  0.00    +0.238 C 
ATOM     20  O   UNL     1       2.137   5.445   0.107  0.00  0.00    -0.273 OA
BRANCH  18  21
ATOM     21  C   UNL     1      -1.379   5.892  -0.060  0.00  0.00    +0.104 C 
ATOM     22  C   UNL     1      -2.123   5.391  -1.310  0.00  0.00    +0.047 C 
ATOM     23  C   UNL     1      -3.608   5.821  -1.246  0.00  0.00    +0.168 C 
ATOM     24  S   UNL     1      -3.923   5.922   0.563  0.00  0.00    -0.029 S 
ATOM     25  O   UNL     1      -4.245   7.264   0.902  0.00  0.00    -0.174 OA
ATOM     26  O   UNL     1      -4.807   4.875   0.938  0.00  0.00    -0.174 OA
ATOM     27  C   UNL     1      -2.234   5.535   1.189  0.00  0.00    +0.188 C 
ENDBRANCH  18  21
BRANCH  18  31
ATOM     28  C   UNL     1       0.185   1.080   0.016  0.00  0.00    +0.000 A 
ATOM     29  C   UNL     1      -1.052   1.695   0.074  0.00  0.00    +0.002 A 
ATOM     30  C   UNL     1      -1.140   3.073   0.084  0.00  0.00    +0.023 A 
ATOM     31  C   UNL     1       0.015   3.842   0.026  0.00  0.00    +0.037 A 
ATOM     32  C   UNL     1       1.256   3.221  -0.038  0.00  0.00    +0.023 A 
ATOM     33  C   UNL     1       1.337   1.842  -0.043  0.00  0.00    +0.002 A 
ENDBRANCH  18  31
ENDBRANCH   1  19
TORSDOF 4
