REMARK  Name = ZINC09452824
REMARK  6 active torsions:
REMARK  status: ('A' for Active; 'I' for Inactive)
REMARK    1  A    between atoms: C_3  and  N_28
REMARK    2  A    between atoms: C_6  and  C_7
REMARK    3  A    between atoms: C_8  and  C_9
REMARK    4  A    between atoms: N_11  and  C_12
REMARK    5  A    between atoms: C_15  and  S_18
REMARK    6  A    between atoms: S_18  and  N_21
REMARK                            x       y       z     vdW  Elec       q    Type
REMARK                         _______ _______ _______ _____ _____    ______ ____
ROOT
ATOM      1  C   UNL     1       1.207   2.021   0.038  0.00  0.00    +0.034 A 
ATOM      2  C   UNL     1       2.397   1.312  -0.058  0.00  0.00    +0.025 A 
ATOM      3  C   UNL     1       3.603   1.985  -0.035  0.00  0.00    +0.030 A 
ATOM      4  C   UNL     1       3.627   3.361   0.097  0.00  0.00    +0.109 A 
ATOM      5  C   UNL     1       2.443   4.069   0.198  0.00  0.00    +0.030 A 
ATOM      6  C   UNL     1       1.234   3.403   0.169  0.00  0.00    +0.025 A 
ENDROOT
BRANCH   1   9
ATOM      7  C   UNL     1      -1.087   1.911  -0.580  0.00  0.00    +0.241 C 
ATOM      8  O   UNL     1      -1.013   3.047  -1.012  0.00  0.00    -0.270 OA
ATOM      9  N   UNL     1      -0.016   1.344   0.009  0.00  0.00    -0.282 N 
ATOM     10  H   UNL     1      -0.095   0.467   0.417  0.00  0.00    +0.155 HD
BRANCH   7  12
ATOM     11  C   UNL     1      -3.411   1.730  -1.289  0.00  0.00    +0.013 C 
ATOM     12  C   UNL     1      -2.339   1.162  -0.700  0.00  0.00    +0.068 C 
BRANCH  11  18
ATOM     13  C   UNL     1      -4.757  -0.329  -0.919  0.00  0.00    +0.010 A 
ATOM     14  C   UNL     1      -5.941  -1.026  -1.031  0.00  0.00    +0.033 A 
ATOM     15  C   UNL     1      -7.039  -0.440  -1.637  0.00  0.00    +0.126 A 
ATOM     16  C   UNL     1      -6.959   0.851  -2.129  0.00  0.00    +0.033 A 
ATOM     17  C   UNL     1      -5.783   1.563  -2.020  0.00  0.00    +0.010 A 
ATOM     18  C   UNL     1      -4.670   0.977  -1.410  0.00  0.00    -0.025 A 
BRANCH  15  19
ATOM     19  N   UNL     1      -8.305  -1.197  -1.758  0.00  0.00    +0.056 N 
ATOM     20  O   UNL     1      -9.273  -0.684  -2.290  0.00  0.00    -0.126 OA
ATOM     21  O   UNL     1      -8.379  -2.333  -1.325  0.00  0.00    -0.126 OA
ENDBRANCH  15  19
ENDBRANCH  11  18
ENDBRANCH   7  12
ENDBRANCH   1   9
BRANCH   4  22
ATOM     22  S   UNL     1       5.168   4.215   0.134  0.00  0.00    +0.073 S 
ATOM     23  O   UNL     1       6.110   3.380  -0.527  0.00  0.00    -0.150 OA
ATOM     24  O   UNL     1       4.904   5.547  -0.285  0.00  0.00    -0.150 OA
BRANCH  22  25
ATOM     25  N   UNL     1       5.641   4.302   1.718  0.00  0.00    -0.205 N 
ATOM     26  C   UNL     1       5.943   3.156   2.407  0.00  0.00    +0.088 C 
ATOM     27  C   UNL     1       6.179   0.782   2.544  0.00  0.00    +0.113 C 
ATOM     28  C   UNL     1       5.058   0.488   3.542  0.00  0.00    +0.021 C 
ATOM     29  C   UNL     1       5.306   1.208   4.858  0.00  0.00    +0.002 C 
ATOM     30  C   UNL     1       5.237   2.721   4.735  0.00  0.00    +0.007 C 
ATOM     31  C   UNL     1       6.381   3.242   3.853  0.00  0.00    +0.070 C 
ATOM     32  H   UNL     1       5.705   5.163   2.159  0.00  0.00    +0.175 HD
ATOM     33  N   UNL     1       5.836   2.022   1.751  0.00  0.00    -0.375 N 
ATOM     34  H   UNL     1       5.539   1.982   0.769  0.00  0.00    +0.161 HD
ENDBRANCH  22  25
ENDBRANCH   4  22
TORSDOF 6
