REMARK  Name = ZINC08559396
REMARK  5 active torsions:
REMARK  status: ('A' for Active; 'I' for Inactive)
REMARK    1  A    between atoms: C_1  and  C_2
REMARK    2  A    between atoms: C_3  and  C_25
REMARK    3  A    between atoms: C_7  and  C_19
REMARK    4  A    between atoms: C_13  and  C_17
REMARK    5  A    between atoms: C_13  and  C_18
REMARK                            x       y       z     vdW  Elec       q    Type
REMARK                         _______ _______ _______ _____ _____    ______ ____
ROOT
ATOM      1  C   UNL     1      -2.240  -5.494  -1.252  0.00  0.00    +0.068 C 
ATOM      2  C   UNL     1      -1.551  -4.212  -0.862  0.00  0.00    +0.070 A 
ATOM      3  C   UNL     1      -0.163  -4.048  -0.664  0.00  0.00    +0.044 A 
ATOM      4  C   UNL     1       0.042  -2.734  -0.323  0.00  0.00    +0.130 A 
ATOM      5  N   UNL     1      -1.171  -2.119  -0.307  0.00  0.00    -0.238 N 
ATOM      6  N   UNL     1      -2.137  -3.061  -0.649  0.00  0.00    -0.173 NA
ATOM      7  C   UNL     1      -1.337  -0.707   0.029  0.00  0.00    +0.174 C 
ATOM      8  C   UNL     1       0.002  -0.004   0.002  0.00  0.00    +0.041 C 
ATOM      9  C   UNL     1       1.172  -0.679  -0.024  0.00  0.00    +0.019 C 
ATOM     10  N   UNL     1       1.213  -2.052  -0.031  0.00  0.00    -0.302 N 
ATOM     11  C   UNL     1       2.493   0.052  -0.055  0.00  0.00    +0.058 C 
ATOM     12  C   UNL     1       2.360   1.388   0.680  0.00  0.00    -0.023 C 
ATOM     13  C   UNL     1       1.255   2.204   0.002  0.00  0.00    +0.086 C 
ATOM     14  C   UNL     1      -0.017   1.402   0.010  0.00  0.00    +0.164 C 
ATOM     15  O   UNL     1      -1.085   1.982   0.018  0.00  0.00    -0.292 OA
ATOM     16  C   UNL     1       1.992   1.136   2.143  0.00  0.00    +0.011 C 
ATOM     17  C   UNL     1       3.684   2.150   0.606  0.00  0.00    +0.011 C 
ATOM     18  H   UNL     1       2.035  -2.529   0.162  0.00  0.00    +0.153 HD
ENDROOT
BRANCH   7  19
ATOM     19  C   UNL     1      -1.935  -0.589   1.407  0.00  0.00    -0.019 A 
ATOM     20  C   UNL     1      -1.265  -1.110   2.499  0.00  0.00    +0.006 A 
ATOM     21  C   UNL     1      -1.812  -0.997   3.763  0.00  0.00    +0.000 A 
ATOM     22  C   UNL     1      -3.033  -0.372   3.936  0.00  0.00    +0.000 A 
ATOM     23  C   UNL     1      -3.705   0.144   2.844  0.00  0.00    +0.000 A 
ATOM     24  C   UNL     1      -3.156   0.035   1.579  0.00  0.00    +0.006 A 
ENDBRANCH   7  19
BRANCH   3  25
ATOM     25  C   UNL     1       0.877  -5.096  -0.798  0.00  0.00    -0.013 A 
ATOM     26  C   UNL     1       1.844  -4.998  -1.797  0.00  0.00    +0.008 A 
ATOM     27  C   UNL     1       2.813  -5.974  -1.914  0.00  0.00    +0.001 A 
ATOM     28  C   UNL     1       2.819  -7.053  -1.049  0.00  0.00    +0.000 A 
ATOM     29  C   UNL     1       1.859  -7.158  -0.058  0.00  0.00    +0.001 A 
ATOM     30  C   UNL     1       0.888  -6.186   0.071  0.00  0.00    +0.008 A 
ENDBRANCH   3  25
TORSDOF 2
