REMARK  Name = ZINC04540322
REMARK  6 active torsions:
REMARK  status: ('A' for Active; 'I' for Inactive)
REMARK    1  A    between atoms: C_1  and  C_2
REMARK    2  A    between atoms: C_2  and  C_3
REMARK    3  A    between atoms: C_9  and  C_10
REMARK    4  A    between atoms: C_9  and  N_58
REMARK    5  A    between atoms: C_15  and  O_16
REMARK    6  A    between atoms: C_25  and  C_26
REMARK                            x       y       z     vdW  Elec       q    Type
REMARK                         _______ _______ _______ _____ _____    ______ ____
ROOT
ATOM      1  C   UNL     1      -1.575   2.261   0.209  0.00  0.00    -0.022 A 
ATOM      2  C   UNL     1      -0.244   1.903   0.403  0.00  0.00    +0.006 A 
ATOM      3  C   UNL     1       0.740   2.845   0.418  0.00  0.00    +0.012 A 
ATOM      4  C   UNL     1       0.417   4.199   0.240  0.00  0.00    +0.029 A 
ATOM      5  C   UNL     1      -0.933   4.575   0.048  0.00  0.00    +0.027 A 
ATOM      6  C   UNL     1      -1.931   3.580   0.037  0.00  0.00    +0.126 A 
ATOM      7  C   UNL     1      -1.266   5.933  -0.131  0.00  0.00    +0.013 A 
ATOM      8  C   UNL     1      -0.297   6.881  -0.120  0.00  0.00    +0.013 A 
ATOM      9  C   UNL     1       1.052   6.529   0.070  0.00  0.00    +0.026 A 
ATOM     10  C   UNL     1       1.419   5.194   0.251  0.00  0.00    +0.147 A 
ATOM     11  O   UNL     1       2.712   4.864   0.434  0.00  0.00    -0.421 OA
ATOM     12  C   UNL     1       3.686   5.787   0.448  0.00  0.00    +0.338 A 
ATOM     13  O   UNL     1       4.840   5.431   0.616  0.00  0.00    -0.245 OA
ATOM     14  C   UNL     1       3.409   7.153   0.274  0.00  0.00    +0.101 A 
ATOM     15  C   UNL     1       2.102   7.561   0.082  0.00  0.00    -0.000 A 
ENDROOT
BRANCH  15  16
ATOM     16  C   UNL     1       1.768   8.990  -0.105  0.00  0.00    -0.017 A 
ATOM     17  C   UNL     1       0.969   9.389  -1.177  0.00  0.00    +0.008 A 
ATOM     18  C   UNL     1       0.657  10.722  -1.343  0.00  0.00    +0.001 A 
ATOM     19  C   UNL     1       1.145  11.665  -0.456  0.00  0.00    +0.000 A 
ATOM     20  C   UNL     1       1.943  11.278   0.606  0.00  0.00    +0.001 A 
ATOM     21  C   UNL     1       2.257   9.947   0.786  0.00  0.00    +0.008 A 
ENDBRANCH  15  16
BRANCH   6  22
ATOM     22  O   UNL     1      -3.233   3.919  -0.146  0.00  0.00    -0.506 OA
ATOM     23  H   UNL     1      -3.511   3.926  -1.072  0.00  0.00    +0.292 HD
ENDBRANCH   6  22
BRANCH   1  24
ATOM     24  C   UNL     1      -2.639   1.194   0.193  0.00  0.00    -0.039 C 
BRANCH  24  30
ATOM     25  C   UNL     1      -3.953  -0.233  -1.256  0.00  0.00    -0.068 C 
ATOM     26  C   UNL     1      -4.409  -0.439  -2.702  0.00  0.00    -0.015 C 
ATOM     27  C   UNL     1      -3.191  -0.747  -3.577  0.00  0.00    -0.003 C 
ATOM     28  C   UNL     1      -2.185   0.402  -3.460  0.00  0.00    -0.019 C 
ATOM     29  C   UNL     1      -1.794   0.584  -1.992  0.00  0.00    -0.078 C 
ATOM     30  N   UNL     1      -3.006   0.901  -1.208  0.00  0.00    +0.384 N 
ATOM     31  H   UNL     1      -3.458   1.729  -1.614  0.00  0.00    -0.081 HD
BRANCH  25  33
ATOM     32  C   UNL     1      -6.103  -1.113  -0.337  0.00  0.00    +0.002 C 
ATOM     33  C   UNL     1      -5.165   0.095  -0.381  0.00  0.00    -0.019 C 
ENDBRANCH  25  33
ENDBRANCH  24  30
ENDBRANCH   1  24
TORSDOF 5
