REMARK  Name = ZINC40319973
REMARK  18 active torsions:
REMARK  status: ('A' for Active; 'I' for Inactive)
REMARK    1  A    between atoms: C_1  and  O_2
REMARK    2  A    between atoms: O_2  and  C_3
REMARK    3  A    between atoms: C_5  and  C_37
REMARK    4  A    between atoms: C_8  and  O_9
REMARK    5  A    between atoms: O_9  and  C_10
REMARK    6  A    between atoms: C_10  and  C_11
REMARK    7  A    between atoms: C_11  and  C_13
REMARK    8  A    between atoms: C_11  and  O_36
REMARK    9  A    between atoms: C_13  and  N_14
REMARK   10  A    between atoms: N_14  and  C_15
REMARK   11  A    between atoms: N_14  and  C_28
REMARK   12  A    between atoms: C_15  and  C_16
REMARK   13  A    between atoms: C_18  and  O_26
REMARK   14  A    between atoms: C_19  and  O_24
REMARK   15  A    between atoms: C_20  and  O_22
REMARK   16  A    between atoms: O_22  and  C_23
REMARK   17  A    between atoms: O_24  and  C_25
REMARK   18  A    between atoms: O_26  and  C_27
REMARK                            x       y       z     vdW  Elec       q    Type
REMARK                         _______ _______ _______ _____ _____    ______ ____
ROOT
ATOM      1  N   UNL     1      -0.306  -7.347  -2.017  0.00  0.00    +0.387 N 
ATOM      2  H   UNL     1       0.445  -7.340  -2.690  0.00  0.00    -0.081 HD
ENDROOT
BRANCH   1   3
ATOM      3  C   UNL     1      -0.931  -6.018  -1.966  0.00  0.00    -0.045 C 
ATOM      4  C   UNL     1      -1.997  -5.904  -3.068  0.00  0.00    +0.009 C 
ATOM      5  C   UNL     1      -2.429  -4.426  -3.233  0.00  0.00    +0.164 C 
ATOM      6  S   UNL     1      -0.926  -3.505  -2.706  0.00  0.00    -0.033 S 
ATOM      7  O   UNL     1      -1.236  -2.739  -1.551  0.00  0.00    -0.174 OA
ATOM      8  O   UNL     1      -0.356  -2.864  -3.839  0.00  0.00    -0.174 OA
ATOM      9  C   UNL     1       0.144  -4.923  -2.217  0.00  0.00    +0.151 C 
ENDBRANCH   1   3
BRANCH   1  10
ATOM     10  C   UNL     1       0.228  -7.688  -0.691  0.00  0.00    -0.043 C 
BRANCH  10  11
ATOM     11  C   UNL     1       1.611  -7.057  -0.521  0.00  0.00    +0.135 C 
BRANCH  11  12
ATOM     12  O   UNL     1       2.418  -7.366  -1.659  0.00  0.00    -0.390 OA
ATOM     13  H   UNL     1       2.552  -8.313  -1.801  0.00  0.00    +0.210 HD
ENDBRANCH  11  12
BRANCH  11  14
ATOM     14  C   UNL     1       2.274  -7.614   0.741  0.00  0.00    +0.258 C 
BRANCH  14  15
ATOM     15  O   UNL     1       3.514  -6.941   0.964  0.00  0.00    -0.486 OA
BRANCH  15  21
ATOM     16  C   UNL     1       5.454  -6.703   2.326  0.00  0.00    +0.162 A 
ATOM     17  C   UNL     1       6.185  -7.082   3.434  0.00  0.00    +0.060 A 
ATOM     18  C   UNL     1       5.701  -8.090   4.277  0.00  0.00    +0.018 A 
ATOM     19  C   UNL     1       4.478  -8.709   3.990  0.00  0.00    +0.015 A 
ATOM     20  C   UNL     1       3.756  -8.324   2.883  0.00  0.00    +0.050 A 
ATOM     21  C   UNL     1       4.234  -7.320   2.051  0.00  0.00    +0.162 A 
BRANCH  16  23
ATOM     22  C   UNL     1       7.178  -5.135   1.848  0.00  0.00    +0.277 C 
ATOM     23  O   UNL     1       5.921  -5.724   1.506  0.00  0.00    -0.491 OA
ENDBRANCH  16  23
BRANCH  18  24
ATOM     24  C   UNL     1       6.474  -8.498   5.457  0.00  0.00    +0.258 C 
ATOM     25  O   UNL     1       6.053  -9.372   6.185  0.00  0.00    -0.296 OA
ENDBRANCH  18  24
ENDBRANCH  15  21
ENDBRANCH  14  15
ENDBRANCH  11  14
ENDBRANCH  10  11
ENDBRANCH   1  10
BRANCH   1  26
ATOM     26  C   UNL     1      -1.309  -8.345  -2.412  0.00  0.00    -0.042 C 
BRANCH  26  27
ATOM     27  C   UNL     1      -1.550  -8.254  -3.897  0.00  0.00    -0.057 A 
ATOM     28  C   UNL     1      -2.841  -8.152  -4.381  0.00  0.00    +0.051 A 
ATOM     29  C   UNL     1      -3.067  -8.068  -5.747  0.00  0.00    +0.165 A 
ATOM     30  C   UNL     1      -1.993  -8.087  -6.629  0.00  0.00    +0.204 A 
ATOM     31  C   UNL     1      -0.697  -8.189  -6.138  0.00  0.00    +0.165 A 
ATOM     32  C   UNL     1      -0.479  -8.267  -4.771  0.00  0.00    +0.051 A 
BRANCH  31  33
ATOM     33  O   UNL     1       0.357  -8.208  -6.998  0.00  0.00    -0.491 OA
ATOM     34  C   UNL     1       1.661  -8.315  -6.423  0.00  0.00    +0.277 C 
ENDBRANCH  31  33
BRANCH  30  35
ATOM     35  O   UNL     1      -2.211  -8.006  -7.970  0.00  0.00    -0.488 OA
ATOM     36  C   UNL     1      -2.239  -6.698  -8.544  0.00  0.00    +0.277 C 
ENDBRANCH  30  35
BRANCH  29  37
ATOM     37  O   UNL     1      -4.337  -7.969  -6.222  0.00  0.00    -0.491 OA
ATOM     38  C   UNL     1      -5.391  -7.956  -5.257  0.00  0.00    +0.277 C 
ENDBRANCH  29  37
ENDBRANCH  26  27
ENDBRANCH   1  26
TORSDOF 14
