REMARK  Name = ZINC12050228
REMARK  6 active torsions:
REMARK  status: ('A' for Active; 'I' for Inactive)
REMARK    1  A    between atoms: C_1  and  C_2
REMARK    2  A    between atoms: C_4  and  C_10
REMARK    3  A    between atoms: C_6  and  C_9
REMARK    4  A    between atoms: C_7  and  O_8
REMARK    5  A    between atoms: N_16  and  C_23
REMARK    6  A    between atoms: C_23  and  C_24
REMARK                            x       y       z     vdW  Elec       q    Type
REMARK                         _______ _______ _______ _____ _____    ______ ____
ROOT
ATOM      1  C   UNL     1      -2.770   2.834   1.581  0.00  0.00    -0.036 C 
ATOM      2  C   UNL     1      -1.783   3.868   2.151  0.00  0.00    -0.007 C 
ATOM      3  C   UNL     1      -0.385   3.273   1.933  0.00  0.00    +0.003 C 
ATOM      4  C   UNL     1       0.260   2.886   3.276  0.00  0.00    +0.110 C 
ATOM      5  N   UNL     1      -0.041   1.465   3.483  0.00  0.00    -0.298 N 
ATOM      6  C   UNL     1      -0.482   0.885   2.352  0.00  0.00    +0.206 C 
ATOM      7  O   UNL     1      -0.734  -0.295   2.231  0.00  0.00    -0.277 OA
ATOM      8  C   UNL     1      -0.614   1.905   1.265  0.00  0.00    +0.018 C 
ATOM      9  C   UNL     1      -1.883   2.481  -0.655  0.00  0.00    -0.077 C 
ATOM     10  C   UNL     1      -0.424   2.316  -1.115  0.00  0.00    -0.019 C 
ATOM     11  C   UNL     1       0.320   1.680   0.080  0.00  0.00    -0.004 C 
ATOM     12  N   UNL     1      -1.959   1.950   0.719  0.00  0.00    +0.394 N 
ATOM     13  H   UNL     1      -2.369   1.009   0.704  0.00  0.00    -0.079 HD
ENDROOT
BRANCH   1  17
ATOM     14  C   UNL     1      -6.358   2.679  -1.903  0.00  0.00    +0.047 C 
ATOM     15  C   UNL     1      -5.555   3.454  -0.891  0.00  0.00    -0.009 A 
ATOM     16  C   UNL     1      -4.575   2.819  -0.153  0.00  0.00    +0.009 A 
ATOM     17  C   UNL     1      -3.838   3.529   0.777  0.00  0.00    -0.060 A 
ATOM     18  C   UNL     1      -4.084   4.875   0.975  0.00  0.00    +0.009 A 
ATOM     19  C   UNL     1      -5.059   5.517   0.235  0.00  0.00    -0.009 A 
ATOM     20  C   UNL     1      -5.799   4.806  -0.698  0.00  0.00    +0.123 A 
ATOM     21  C   UNL     1      -5.321   6.985   0.446  0.00  0.00    +0.047 C 
BRANCH  20  22
ATOM     22  O   UNL     1      -6.763   5.433  -1.423  0.00  0.00    -0.506 OA
ATOM     23  H   UNL     1      -7.638   5.418  -1.010  0.00  0.00    +0.292 HD
ENDBRANCH  20  22
ENDBRANCH   1  17
BRANCH   5  24
ATOM     24  C   UNL     1       0.119   0.765   4.760  0.00  0.00    +0.142 C 
BRANCH  24  25
ATOM     25  C   UNL     1      -1.163   0.860   5.548  0.00  0.00    -0.029 A 
ATOM     26  C   UNL     1      -1.361   1.914   6.421  0.00  0.00    +0.005 A 
ATOM     27  C   UNL     1      -2.538   2.003   7.140  0.00  0.00    +0.002 A 
ATOM     28  C   UNL     1      -3.513   1.033   6.996  0.00  0.00    +0.020 A 
ATOM     29  C   UNL     1      -3.312  -0.024   6.127  0.00  0.00    +0.041 A 
ATOM     30  C   UNL     1      -2.136  -0.111   5.403  0.00  0.00    +0.025 A 
ATOM     31 CL   UNL     1      -4.535  -1.243   5.945  0.00  0.00    -0.084 Cl
ENDBRANCH  24  25
ENDBRANCH   5  24
TORSDOF 4
