REMARK  Name = ZINC02922726
REMARK  13 active torsions:
REMARK  status: ('A' for Active; 'I' for Inactive)
REMARK    1  A    between atoms: C_1  and  C_2
REMARK    2  A    between atoms: C_2  and  C_3
REMARK    3  A    between atoms: C_3  and  C_4
REMARK    4  A    between atoms: C_4  and  C_5
REMARK    5  A    between atoms: C_4  and  C_13
REMARK    6  A    between atoms: C_4  and  O_25
REMARK    7  A    between atoms: C_8  and  O_11
REMARK    8  A    between atoms: O_11  and  C_12
REMARK    9  A    between atoms: C_13  and  C_15
REMARK   10  A    between atoms: C_13  and  C_19
REMARK   11  A    between atoms: C_15  and  N_16
REMARK   12  A    between atoms: N_16  and  C_17
REMARK   13  A    between atoms: N_16  and  C_18
REMARK                            x       y       z     vdW  Elec       q    Type
REMARK                         _______ _______ _______ _____ _____    ______ ____
ROOT
ATOM      1  C   UNL     1      -1.486  -1.686  -0.196  0.00  0.00    +0.096 C 
ENDROOT
BRANCH   1   2
ATOM      2  C   UNL     1      -2.916  -2.082   0.067  0.00  0.00    -0.015 A 
ATOM      3  C   UNL     1      -3.671  -2.650  -0.942  0.00  0.00    +0.010 A 
ATOM      4  C   UNL     1      -4.983  -3.013  -0.704  0.00  0.00    +0.046 A 
ATOM      5  C   UNL     1      -5.542  -2.807   0.550  0.00  0.00    +0.120 A 
ATOM      6  C   UNL     1      -4.781  -2.237   1.560  0.00  0.00    +0.046 A 
ATOM      7  C   UNL     1      -3.469  -1.881   1.319  0.00  0.00    +0.010 A 
BRANCH   5   8
ATOM      8  O   UNL     1      -6.832  -3.163   0.786  0.00  0.00    -0.495 OA
ATOM      9  C   UNL     1      -7.340  -2.922   2.100  0.00  0.00    +0.277 C 
ENDBRANCH   5   8
ENDBRANCH   1   2
BRANCH   1  10
ATOM     10  O   UNL     1      -0.794  -1.547   1.047  0.00  0.00    -0.383 OA
ATOM     11  H   UNL     1      -0.653  -2.382   1.514  0.00  0.00    +0.211 HD
ENDBRANCH   1  10
BRANCH   1  12
ATOM     12  C   UNL     1      -1.455  -0.354  -0.948  0.00  0.00    +0.040 C 
BRANCH  12  14
ATOM     13  C   UNL     1      -0.044   1.630  -1.512  0.00  0.00    +0.004 C 
ATOM     14  C   UNL     1      -0.042   0.231  -0.892  0.00  0.00    -0.000 C 
ENDBRANCH  12  14
ENDBRANCH   1  12
BRANCH   1  15
ATOM     15  C   UNL     1      -0.805  -2.765  -1.040  0.00  0.00    +0.039 C 
BRANCH  15  16
ATOM     16  C   UNL     1      -1.181  -2.581  -2.488  0.00  0.00    -0.043 A 
ATOM     17  C   UNL     1      -0.830  -1.421  -3.152  0.00  0.00    +0.004 A 
ATOM     18  C   UNL     1      -1.175  -1.252  -4.480  0.00  0.00    +0.000 A 
ATOM     19  C   UNL     1      -1.871  -2.244  -5.144  0.00  0.00    +0.000 A 
ATOM     20  C   UNL     1      -2.222  -3.405  -4.481  0.00  0.00    +0.000 A 
ATOM     21  C   UNL     1      -1.873  -3.575  -3.154  0.00  0.00    +0.004 A 
ENDBRANCH  15  16
BRANCH  15  22
ATOM     22  C   UNL     1      -1.261  -4.147  -0.567  0.00  0.00    -0.068 C 
BRANCH  22  23
ATOM     23  N   UNL     1      -0.926  -4.312   0.854  0.00  0.00    +0.376 N 
ATOM     24  C   UNL     1      -1.391  -5.627   1.317  0.00  0.00    -0.097 C 
ATOM     25  C   UNL     1       0.529  -4.218   1.028  0.00  0.00    -0.097 C 
ATOM     26  H   UNL     1      -1.377  -3.587   1.393  0.00  0.00    -0.083 HD
ENDBRANCH  22  23
ENDBRANCH  15  22
ENDBRANCH   1  15
TORSDOF 9
