REMARK  Name = ZINC27233484
REMARK  8 active torsions:
REMARK  status: ('A' for Active; 'I' for Inactive)
REMARK    1  A    between atoms: C_1  and  C_2
REMARK    2  A    between atoms: N_11  and  C_15
REMARK    3  A    between atoms: C_15  and  C_16
REMARK    4  A    between atoms: N_18  and  C_19
REMARK    5  A    between atoms: C_24  and  C_25
REMARK    6  A    between atoms: N_27  and  C_28
REMARK    7  A    between atoms: C_28  and  C_29
REMARK    8  A    between atoms: C_28  and  C_30
REMARK                            x       y       z     vdW  Elec       q    Type
REMARK                         _______ _______ _______ _____ _____    ______ ____
ROOT
ATOM      1  C   UNL     1       2.921   1.458  -1.433  0.00  0.00    +0.235 C 
ATOM      2  O   UNL     1       2.155   1.692  -2.344  0.00  0.00    -0.274 OA
ATOM      3  N   UNL     1       4.179   1.053  -1.698  0.00  0.00    -0.284 N 
ATOM      4  H   UNL     1       4.896   0.912  -0.875  0.00  0.00    +0.155 HD
ENDROOT
BRANCH   3   5
ATOM      5  C   UNL     1       4.572   0.813  -3.012  0.00  0.00    +0.046 A 
ATOM      6  C   UNL     1       4.071   1.596  -4.044  0.00  0.00    +0.024 A 
ATOM      7  C   UNL     1       4.461   1.357  -5.346  0.00  0.00    +0.002 A 
ATOM      8  C   UNL     1       5.354   0.337  -5.634  0.00  0.00    +0.001 A 
ATOM      9  C   UNL     1       5.862  -0.450  -4.623  0.00  0.00    +0.015 A 
ATOM     10  C   UNL     1       5.479  -0.217  -3.300  0.00  0.00    +0.058 A 
BRANCH  10  11
ATOM     11  C   UNL     1       6.023  -1.052  -2.212  0.00  0.00    +0.246 C 
ATOM     12  O   UNL     1       5.612  -0.914  -1.076  0.00  0.00    -0.270 OA
ATOM     13  N   UNL     1       6.975  -1.968  -2.478  0.00  0.00    -0.309 N 
ATOM     14  H   UNL     1       7.347  -2.093  -3.505  0.00  0.00    +0.149 HD
BRANCH  13  15
ATOM     15  C   UNL     1       7.515  -2.798  -1.397  0.00  0.00    +0.067 C 
ATOM     16  C   UNL     1       6.611  -4.013  -1.187  0.00  0.00    +0.027 C 
ATOM     17  C   UNL     1       8.923  -3.267  -1.770  0.00  0.00    +0.027 C 
ENDBRANCH  13  15
ENDBRANCH  10  11
ENDBRANCH   3   5
BRANCH   1  18
ATOM     18  C   UNL     1       2.466   1.620  -0.006  0.00  0.00    +0.214 C 
BRANCH  18  28
ATOM     19  C   UNL     1      -1.215   2.158  -2.449  0.00  0.00    +0.010 C 
ATOM     20  C   UNL     1      -2.055   1.889  -1.199  0.00  0.00    +0.018 C 
ATOM     21  C   UNL     1      -3.265   2.826  -1.187  0.00  0.00    +0.006 C 
ATOM     22  C   UNL     1      -4.094   2.571   0.074  0.00  0.00    +0.000 C 
ATOM     23  C   UNL     1      -3.237   2.843   1.312  0.00  0.00    +0.003 C 
ATOM     24  C   UNL     1      -2.027   1.905   1.310  0.00  0.00    +0.035 C 
ATOM     25  C   UNL     1      -1.207   2.132   0.045  0.00  0.00    +0.115 C 
ATOM     26  C   UNL     1       0.009   1.235   0.037  0.00  0.00    +0.247 C 
ATOM     27  O   UNL     1       0.026   0.022   0.044  0.00  0.00    -0.273 OA
ATOM     28  N   UNL     1       1.071   2.067   0.014  0.00  0.00    -0.215 N 
ATOM     29  C   UNL     1       0.691   3.350   0.012  0.00  0.00    +0.310 C 
ATOM     30  O   UNL     1       1.468   4.285  -0.007  0.00  0.00    -0.252 OA
ATOM     31  N   UNL     1      -0.648   3.490   0.033  0.00  0.00    -0.285 N 
ATOM     32  H   UNL     1      -1.319   4.361   0.041  0.00  0.00    +0.151 HD
ENDBRANCH  18  28
ENDBRANCH   1  18
TORSDOF 5
