REMARK  Name = ZINC39218227
REMARK  8 active torsions:
REMARK  status: ('A' for Active; 'I' for Inactive)
REMARK    1  A    between atoms: C_1  and  O_2
REMARK    2  A    between atoms: O_2  and  C_3
REMARK    3  A    between atoms: C_6  and  C_9
REMARK    4  A    between atoms: C_11  and  C_36
REMARK    5  A    between atoms: C_12  and  N_35
REMARK    6  A    between atoms: N_13  and  N_21
REMARK    7  A    between atoms: N_21  and  C_22
REMARK    8  A    between atoms: C_23  and  C_29
REMARK                            x       y       z     vdW  Elec       q    Type
REMARK                         _______ _______ _______ _____ _____    ______ ____
ROOT
ATOM      1  C   UNL     1       2.231  -2.616   4.633  0.00  0.00    +0.097 C 
ATOM      2  C   UNL     1       3.362  -3.289   3.913  0.00  0.00    +0.078 C 
ATOM      3  C   UNL     1       3.365  -4.633   3.713  0.00  0.00    +0.119 C 
ATOM      4  N   UNL     1       2.326  -5.403   4.179  0.00  0.00    -0.211 N 
ATOM      5  C   UNL     1       1.502  -4.934   5.167  0.00  0.00    +0.039 C 
ATOM      6  C   UNL     1       1.420  -3.612   5.423  0.00  0.00    +0.026 C 
ATOM      7  C   UNL     1       0.574  -3.123   6.434  0.00  0.00    +0.162 C 
ATOM      8  O   UNL     1       0.533  -1.928   6.650  0.00  0.00    -0.292 OA
ATOM      9  C   UNL     1      -0.281  -4.051   7.252  0.00  0.00    +0.080 C 
ATOM     10  C   UNL     1      -0.614  -5.290   6.414  0.00  0.00    +0.014 C 
ATOM     11  C   UNL     1       0.696  -5.932   5.961  0.00  0.00    +0.053 C 
ENDROOT
BRANCH   1  15
ATOM     12  C   UNL     1      -0.303  -0.698   1.776  0.00  0.00    +0.120 A 
ATOM     13  C   UNL     1       0.334   0.052   2.754  0.00  0.00    +0.046 A 
ATOM     14  C   UNL     1       1.152  -0.571   3.677  0.00  0.00    +0.008 A 
ATOM     15  C   UNL     1       1.337  -1.940   3.626  0.00  0.00    -0.034 A 
ATOM     16  C   UNL     1       0.704  -2.689   2.652  0.00  0.00    +0.008 A 
ATOM     17  C   UNL     1      -0.121  -2.072   1.731  0.00  0.00    +0.046 A 
BRANCH  12  19
ATOM     18  C   UNL     1      -1.251   1.330   0.975  0.00  0.00    +0.277 C 
ATOM     19  O   UNL     1      -1.109  -0.088   0.868  0.00  0.00    -0.495 OA
ENDBRANCH  12  19
ENDBRANCH   1  15
BRANCH   3  20
ATOM     20  N   UNL     1       4.409  -5.224   3.043  0.00  0.00    -0.344 N 
ATOM     21  H   UNL     1       5.143  -4.682   2.713  0.00  0.00    +0.144 HD
ATOM     22  H   UNL     1       4.413  -6.183   2.899  0.00  0.00    +0.144 HD
ENDBRANCH   3  20
BRANCH   4  23
ATOM     23  N   UNL     1       2.108  -6.677   3.639  0.00  0.00    -0.260 N 
ATOM     24  H   UNL     1       1.395  -6.816   2.997  0.00  0.00    +0.170 HD
BRANCH  23  25
ATOM     25  C   UNL     1       2.891  -7.711   4.013  0.00  0.00    +0.059 C 
ATOM     26  C   UNL     1       2.778  -8.968   3.425  0.00  0.00    +0.110 C 
ATOM     27  N   UNL     1       3.554  -9.975   3.802  0.00  0.00    -0.155 NA
ATOM     28  N   UNL     1       4.456  -9.929   4.704  0.00  0.00    -0.080 NA
ATOM     29  C   UNL     1       4.743  -8.822   5.405  0.00  0.00    +0.260 C 
ATOM     30  O   UNL     1       5.611  -8.824   6.255  0.00  0.00    -0.272 OA
ATOM     31  C   UNL     1       3.949  -7.566   5.096  0.00  0.00    +0.153 C 
BRANCH  26  32
ATOM     32  C   UNL     1       1.772  -9.184   2.357  0.00  0.00    +0.003 A 
ATOM     33  C   UNL     1       1.679  -8.290   1.292  0.00  0.00    +0.010 A 
ATOM     34  C   UNL     1       0.741  -8.497   0.301  0.00  0.00    +0.001 A 
ATOM     35  C   UNL     1      -0.107  -9.588   0.363  0.00  0.00    +0.000 A 
ATOM     36  C   UNL     1      -0.020 -10.479   1.419  0.00  0.00    +0.001 A 
ATOM     37  C   UNL     1       0.918 -10.285   2.413  0.00  0.00    +0.010 A 
ENDBRANCH  26  32
ENDBRANCH  23  25
ENDBRANCH   4  23
BRANCH   2  38
ATOM     38  C   UNL     1       4.456  -2.502   3.428  0.00  0.00    +0.099 C 
ATOM     39  N   UNL     1       5.324  -1.878   3.044  0.00  0.00    -0.191 NA
ENDBRANCH   2  38
TORSDOF 7
