REMARK  Name = ZINC35511360
REMARK  5 active torsions:
REMARK  status: ('A' for Active; 'I' for Inactive)
REMARK    1  A    between atoms: C_1  and  C_2
REMARK    2  A    between atoms: C_2  and  C_3
REMARK    3  A    between atoms: C_3  and  C_4
REMARK    4  A    between atoms: C_6  and  C_9
REMARK    5  A    between atoms: N_17  and  C_18
REMARK                            x       y       z     vdW  Elec       q    Type
REMARK                         _______ _______ _______ _____ _____    ______ ____
ROOT
ATOM      1  C   UNL     1       2.148  -5.344   0.433  0.00  0.00    +0.130 C 
ATOM      2  C   UNL     1       2.450  -6.269   1.632  0.00  0.00    +0.030 C 
ATOM      3  C   UNL     1       2.294  -7.687   1.024  0.00  0.00    +0.021 C 
ATOM      4  C   UNL     1       1.132  -7.471   0.022  0.00  0.00    +0.110 C 
ATOM      5  N   UNL     1       1.358  -6.120  -0.533  0.00  0.00    -0.277 N 
ATOM      6  C   UNL     1       0.914  -5.673  -1.724  0.00  0.00    +0.307 C 
ATOM      7  O   UNL     1       1.161  -4.536  -2.077  0.00  0.00    -0.252 OA
ATOM      8  N   UNL     1       0.196  -6.485  -2.524  0.00  0.00    -0.269 N 
ATOM      9  H   UNL     1       0.055  -7.412  -2.274  0.00  0.00    +0.156 HD
ENDROOT
BRANCH   8  10
ATOM     10  C   UNL     1      -0.347  -5.992  -3.717  0.00  0.00    +0.035 A 
ATOM     11  C   UNL     1      -1.581  -6.449  -4.160  0.00  0.00    +0.024 A 
ATOM     12  C   UNL     1      -2.115  -5.961  -5.337  0.00  0.00    +0.017 A 
ATOM     13  C   UNL     1      -1.421  -5.018  -6.073  0.00  0.00    +0.018 A 
ATOM     14  C   UNL     1      -0.192  -4.560  -5.634  0.00  0.00    +0.017 A 
ATOM     15  C   UNL     1       0.344  -5.041  -4.455  0.00  0.00    +0.024 A 
ATOM     16 BR   UNL     1      -2.155  -4.352  -7.684  0.00  0.00    -0.050 Br
ENDBRANCH   8  10
BRANCH   1  19
ATOM     17  C   UNL     1       0.752  -2.030   1.250  0.00  0.00    +0.138 A 
ATOM     18  C   UNL     1       1.706  -2.799   0.690  0.00  0.00    +0.072 A 
ATOM     19  C   UNL     1       1.359  -4.146   0.896  0.00  0.00    +0.104 A 
ATOM     20  N   UNL     1       0.237  -4.178   1.557  0.00  0.00    -0.081 NA
ATOM     21  O   UNL     1      -0.166  -2.842   1.797  0.00  0.00    -0.359 OA
BRANCH  17  22
ATOM     22  C   UNL     1       0.724  -0.524   1.264  0.00  0.00    +0.077 C 
BRANCH  22  24
ATOM     23  C   UNL     1      -0.052   1.514   0.044  0.00  0.00    +0.004 C 
ATOM     24  C   UNL     1      -0.023  -0.016   0.030  0.00  0.00    +0.004 C 
ENDBRANCH  22  24
ENDBRANCH  17  22
ENDBRANCH   1  19
TORSDOF 4
