REMARK  Name = ZINC01325658
REMARK  5 active torsions:
REMARK  status: ('A' for Active; 'I' for Inactive)
REMARK    1  A    between atoms: C_11  and  S_13
REMARK    2  A    between atoms: S_13  and  C_14
REMARK    3  A    between atoms: C_14  and  C_15
REMARK    4  A    between atoms: N_17  and  C_18
REMARK    5  A    between atoms: N_17  and  C_24
REMARK                            x       y       z     vdW  Elec       q    Type
REMARK                         _______ _______ _______ _____ _____    ______ ____
ROOT
ATOM      1  C   UNL     1       7.814  -1.846  -0.094  0.00  0.00    +0.226 C 
ATOM      2  O   UNL     1       8.009  -3.037   0.026  0.00  0.00    -0.275 OA
ATOM      3  N   UNL     1       8.858  -0.999  -0.190  0.00  0.00    -0.295 N 
ENDROOT
BRANCH   3   4
ATOM      4  C   UNL     1      10.221  -1.525  -0.303  0.00  0.00    +0.076 C 
ATOM      5  C   UNL     1      10.331  -2.391  -1.560  0.00  0.00    +0.022 C 
ATOM      6  C   UNL     1      11.754  -2.940  -1.678  0.00  0.00    +0.002 C 
ATOM      7  C   UNL     1      12.077  -3.787  -0.445  0.00  0.00    +0.000 C 
ATOM      8  C   UNL     1      11.967  -2.921   0.811  0.00  0.00    +0.002 C 
ATOM      9  C   UNL     1      10.544  -2.372   0.930  0.00  0.00    +0.022 C 
ENDBRANCH   3   4
BRANCH   3  10
ATOM     10  C   UNL     1       8.630   0.448  -0.181  0.00  0.00    +0.076 C 
ATOM     11  C   UNL     1       8.076   0.869   1.182  0.00  0.00    +0.022 C 
ATOM     12  C   UNL     1       7.838   2.380   1.191  0.00  0.00    +0.002 C 
ATOM     13  C   UNL     1       6.832   2.745   0.097  0.00  0.00    +0.000 C 
ATOM     14  C   UNL     1       7.386   2.324  -1.266  0.00  0.00    +0.002 C 
ATOM     15  C   UNL     1       7.625   0.812  -1.275  0.00  0.00    +0.022 C 
ENDBRANCH   3  10
BRANCH   1  16
ATOM     16  C   UNL     1       6.405  -1.314  -0.135  0.00  0.00    +0.173 C 
BRANCH  16  17
ATOM     17  S   UNL     1       5.250  -2.622   0.357  0.00  0.00    -0.078 S 
BRANCH  17  28
ATOM     18  C   UNL     1      -0.025   1.333  -0.388  0.00  0.00    +0.001 A 
ATOM     19  C   UNL     1       1.148   2.012  -0.692  0.00  0.00    +0.002 A 
ATOM     20  C   UNL     1       2.362   1.391  -0.608  0.00  0.00    +0.028 A 
ATOM     21  C   UNL     1       2.429   0.052  -0.211  0.00  0.00    +0.079 A 
ATOM     22  C   UNL     1       1.233  -0.635   0.098  0.00  0.00    +0.065 A 
ATOM     23  C   UNL     1       0.008   0.023   0.003  0.00  0.00    +0.015 A 
ATOM     24  C   UNL     1       1.329  -2.041   0.513  0.00  0.00    +0.260 A 
ATOM     25  O   UNL     1       0.335  -2.687   0.792  0.00  0.00    -0.267 OA
ATOM     26  N   UNL     1       2.563  -2.592   0.575  0.00  0.00    -0.301 N 
ATOM     27  H   UNL     1       2.665  -3.518   0.845  0.00  0.00    +0.171 HD
ATOM     28  C   UNL     1       3.667  -1.853   0.259  0.00  0.00    +0.170 A 
ATOM     29  N   UNL     1       3.605  -0.598  -0.114  0.00  0.00    -0.223 NA
ENDBRANCH  17  28
ENDBRANCH  16  17
ENDBRANCH   1  16
TORSDOF 5
