REMARK  Name = ZINC16956834
REMARK  5 active torsions:
REMARK  status: ('A' for Active; 'I' for Inactive)
REMARK    1  A    between atoms: C_4  and  C_7
REMARK    2  A    between atoms: C_7  and  S_8
REMARK    3  A    between atoms: S_8  and  C_9
REMARK    4  A    between atoms: C_14  and  C_24
REMARK    5  A    between atoms: C_27  and  O_30
REMARK                            x       y       z     vdW  Elec       q    Type
REMARK                         _______ _______ _______ _____ _____    ______ ____
ROOT
ATOM      1  C   UNL     1      -0.551   3.459   0.026  0.00  0.00    +0.211 A 
ATOM      2  N   UNL     1      -1.024   2.211   0.029  0.00  0.00    -0.184 NA
ATOM      3  C   UNL     1      -0.016   1.347   0.009  0.00  0.00    +0.250 A 
ATOM      4  N   UNL     1       1.131   2.077   0.002  0.00  0.00    -0.220 N 
ATOM      5  N   UNL     1       0.763   3.425   0.013  0.00  0.00    -0.141 NA
ATOM      6  C   UNL     1       2.422   1.379  -0.013  0.00  0.00    +0.157 C 
ATOM      7  C   UNL     1       2.361  -0.137  -0.021  0.00  0.00    +0.129 C 
ATOM      8  C   UNL     1       3.489  -0.859  -0.035  0.00  0.00    +0.144 C 
ATOM      9  C   UNL     1       3.453  -2.364  -0.040  0.00  0.00    +0.075 C 
ATOM     10  C   UNL     1       2.176  -2.838  -0.740  0.00  0.00    +0.013 C 
ATOM     11  C   UNL     1       0.964  -2.242  -0.019  0.00  0.00    +0.052 C 
ATOM     12  C   UNL     1       1.084  -0.737  -0.012  0.00  0.00    +0.035 C 
ATOM     13  N   UNL     1       0.002  -0.004   0.002  0.00  0.00    -0.219 NA
ATOM     14  O   UNL     1       4.680  -0.225  -0.046  0.00  0.00    -0.297 OA
ENDROOT
BRANCH   6  15
ATOM     15  C   UNL     1       3.182   1.824  -1.236  0.00  0.00    -0.022 A 
ATOM     16  C   UNL     1       2.719   1.490  -2.496  0.00  0.00    +0.009 A 
ATOM     17  C   UNL     1       3.411   1.902  -3.619  0.00  0.00    +0.046 A 
ATOM     18  C   UNL     1       4.576   2.641  -3.482  0.00  0.00    +0.117 A 
ATOM     19  C   UNL     1       5.042   2.970  -2.217  0.00  0.00    +0.046 A 
ATOM     20  C   UNL     1       4.343   2.561  -1.097  0.00  0.00    +0.009 A 
BRANCH  18  21
ATOM     21  O   UNL     1       5.262   3.042  -4.585  0.00  0.00    -0.507 OA
ATOM     22  H   UNL     1       5.931   2.411  -4.883  0.00  0.00    +0.292 HD
ENDBRANCH  18  21
ENDBRANCH   6  15
BRANCH   1  23
ATOM     23  S   UNL     1      -1.533   4.922   0.043  0.00  0.00    -0.080 S 
BRANCH  23  24
ATOM     24  C   UNL     1      -3.239   4.305   0.057  0.00  0.00    +0.112 C 
BRANCH  24  28
ATOM     25  C   UNL     1      -5.948   7.608   0.099  0.00  0.00    +0.000 A 
ATOM     26  C   UNL     1      -5.521   7.079  -1.105  0.00  0.00    +0.000 A 
ATOM     27  C   UNL     1      -4.645   6.010  -1.119  0.00  0.00    +0.004 A 
ATOM     28  C   UNL     1      -4.195   5.470   0.072  0.00  0.00    -0.037 A 
ATOM     29  C   UNL     1      -4.625   5.995   1.276  0.00  0.00    +0.004 A 
ATOM     30  C   UNL     1      -5.498   7.067   1.289  0.00  0.00    +0.000 A 
ENDBRANCH  24  28
ENDBRANCH  23  24
ENDBRANCH   1  23
TORSDOF 5
