REMARK  Name = ZINC64002166
REMARK  6 active torsions:
REMARK  status: ('A' for Active; 'I' for Inactive)
REMARK    1  A    between atoms: C_1  and  C_2
REMARK    2  A    between atoms: C_7  and  S_12
REMARK    3  A    between atoms: S_12  and  C_13
REMARK    4  A    between atoms: C_13  and  C_14
REMARK    5  A    between atoms: C_23  and  C_25
REMARK    6  A    between atoms: N_27  and  C_28
REMARK                            x       y       z     vdW  Elec       q    Type
REMARK                         _______ _______ _______ _____ _____    ______ ____
ROOT
ATOM      1  C   UNL     1      -4.120  -4.933   1.860  0.00  0.00    +0.226 C 
ATOM      2  O   UNL     1      -4.120  -6.000   2.437  0.00  0.00    -0.275 OA
ATOM      3  N   UNL     1      -5.287  -4.341   1.539  0.00  0.00    -0.301 N 
ATOM      4  C   UNL     1      -5.296  -3.052   0.835  0.00  0.00    +0.108 C 
ATOM      5  C   UNL     1      -6.090  -2.039   1.668  0.00  0.00    +0.026 C 
ATOM      6  C   UNL     1      -7.448  -2.651   2.026  0.00  0.00    -0.015 C 
ATOM      7  C   UNL     1      -7.383  -4.002   2.744  0.00  0.00    +0.026 C 
ATOM      8  C   UNL     1      -6.563  -4.979   1.883  0.00  0.00    +0.108 C 
ATOM      9  C   UNL     1      -8.608  -2.417   1.058  0.00  0.00    +0.021 C 
ATOM     10  C   UNL     1      -8.579  -1.697   2.408  0.00  0.00    +0.082 C 
ENDROOT
BRANCH  10  11
ATOM     11  C   UNL     1      -8.276  -0.221   2.402  0.00  0.00    +0.221 C 
ATOM     12  O   UNL     1      -8.363   0.412   1.371  0.00  0.00    -0.275 OA
ATOM     13  N   UNL     1      -7.909   0.396   3.543  0.00  0.00    -0.285 N 
ATOM     14  H   UNL     1      -7.764  -0.123   4.350  0.00  0.00    +0.155 HD
BRANCH  13  15
ATOM     15  C   UNL     1      -7.736   1.785   3.564  0.00  0.00    +0.036 A 
ATOM     16  C   UNL     1      -6.747   2.351   4.357  0.00  0.00    +0.026 A 
ATOM     17  C   UNL     1      -6.577   3.722   4.377  0.00  0.00    +0.043 A 
ATOM     18  C   UNL     1      -7.393   4.533   3.606  0.00  0.00    +0.159 A 
ATOM     19  C   UNL     1      -8.382   3.971   2.813  0.00  0.00    +0.160 A 
ATOM     20  C   UNL     1      -8.550   2.598   2.787  0.00  0.00    +0.064 A 
ATOM     21  F   UNL     1      -9.177   4.763   2.062  0.00  0.00    -0.202 F 
ATOM     22  F   UNL     1      -7.226   5.873   3.627  0.00  0.00    -0.202 F 
ENDBRANCH  13  15
ENDBRANCH  10  11
BRANCH   1  23
ATOM     23  C   UNL     1      -2.814  -4.270   1.502  0.00  0.00    +0.168 C 
BRANCH  23  24
ATOM     24  S   UNL     1      -1.436  -5.306   2.064  0.00  0.00    -0.106 S 
BRANCH  24  31
ATOM     25  C   UNL     1      -0.010   1.455   0.021  0.00  0.00    +0.044 C 
ATOM     26  C   UNL     1       0.002  -0.052   0.016  0.00  0.00    -0.048 A 
ATOM     27  C   UNL     1       0.004  -0.722  -1.220  0.00  0.00    +0.005 A 
ATOM     28  C   UNL     1       0.014  -2.067  -1.318  0.00  0.00    +0.028 A 
ATOM     29  C   UNL     1       0.025  -2.882  -0.096  0.00  0.00    +0.061 A 
ATOM     30  N   UNL     1       0.035  -4.168   0.111  0.00  0.00    -0.355 N 
ATOM     31  C   UNL     1       0.042  -4.380   1.564  0.00  0.00    +0.236 C 
ATOM     32  N   UNL     1       0.034  -3.047   2.177  0.00  0.00    -0.355 N 
ATOM     33  C   UNL     1       0.024  -2.173   1.213  0.00  0.00    +0.061 A 
ATOM     34  C   UNL     1       0.017  -0.703   1.196  0.00  0.00    +0.030 A 
ATOM     35  H   UNL     1       0.038  -4.858  -0.570  0.00  0.00    +0.162 HD
ATOM     36  H   UNL     1       0.035  -2.852   3.128  0.00  0.00    +0.162 HD
ENDBRANCH  24  31
ENDBRANCH  23  24
ENDBRANCH   1  23
TORSDOF 5
