REMARK  Name = ZINC08788394
REMARK  10 active torsions:
REMARK  status: ('A' for Active; 'I' for Inactive)
REMARK    1  A    between atoms: C_1  and  C_2
REMARK    2  A    between atoms: C_2  and  O_3
REMARK    3  A    between atoms: O_3  and  C_4
REMARK    4  A    between atoms: C_4  and  C_6
REMARK    5  A    between atoms: C_10  and  N_11
REMARK    6  A    between atoms: C_12  and  C_14
REMARK    7  A    between atoms: C_14  and  N_15
REMARK    8  A    between atoms: N_15  and  C_16
REMARK    9  A    between atoms: C_19  and  C_23
REMARK   10  A    between atoms: C_25  and  C_29
REMARK                            x       y       z     vdW  Elec       q    Type
REMARK                         _______ _______ _______ _____ _____    ______ ____
ROOT
ATOM      1  C   UNL     1      -1.116   2.230   0.019  0.00  0.00    +0.091 A 
ATOM      2  C   UNL     1      -0.860   3.661   0.030  0.00  0.00    -0.021 A 
ATOM      3  C   UNL     1       0.444   4.012   0.020  0.00  0.00    -0.004 A 
ATOM      4  S   UNL     1       1.326   2.477   0.003  0.00  0.00    -0.077 S 
ATOM      5  C   UNL     1      -0.017   1.382   0.010  0.00  0.00    +0.086 A 
ATOM      6  C   UNL     1       1.005   5.400   0.023  0.00  0.00    +0.046 C 
ATOM      7  C   UNL     1      -0.114   6.373   0.420  0.00  0.00    -0.009 C 
ATOM      8  C   UNL     1      -1.363   6.052  -0.407  0.00  0.00    +0.008 C 
ATOM      9  C   UNL     1      -1.958   4.718   0.046  0.00  0.00    +0.037 C 
ATOM     10  C   UNL     1       0.332   7.810   0.138  0.00  0.00    +0.008 C 
ENDROOT
BRANCH   5  11
ATOM     11  N   UNL     1       0.002  -0.004   0.002  0.00  0.00    -0.278 N 
ATOM     12  C   UNL     1       1.178  -0.662  -0.012  0.00  0.00    +0.235 C 
ATOM     13  O   UNL     1       2.220  -0.041  -0.018  0.00  0.00    -0.274 OA
ATOM     14  H   UNL     1      -0.831  -0.500   0.007  0.00  0.00    +0.155 HD
BRANCH  12  15
ATOM     15  C   UNL     1       1.199  -2.169  -0.021  0.00  0.00    +0.198 C 
BRANCH  15  16
ATOM     16  N   UNL     1       2.586  -2.638  -0.036  0.00  0.00    -0.335 N 
ATOM     17  H   UNL     1       3.315  -1.998  -0.039  0.00  0.00    +0.147 HD
BRANCH  16  18
ATOM     18  C   UNL     1       2.860  -4.008  -0.046  0.00  0.00    +0.029 A 
ATOM     19  C   UNL     1       4.176  -4.455  -0.060  0.00  0.00    +0.023 A 
ATOM     20  C   UNL     1       4.443  -5.809  -0.069  0.00  0.00    +0.006 A 
ATOM     21  C   UNL     1       3.404  -6.721  -0.064  0.00  0.00    -0.036 A 
ATOM     22  C   UNL     1       2.093  -6.280  -0.050  0.00  0.00    +0.023 A 
ATOM     23  C   UNL     1       1.818  -4.926  -0.035  0.00  0.00    +0.038 A 
ATOM     24 BR   UNL     1       0.675  -7.532  -0.043  0.00  0.00    -0.050 Br
ATOM     25  C   UNL     1       3.700  -8.199  -0.074  0.00  0.00    +0.045 C 
ENDBRANCH  16  18
ENDBRANCH  15  16
ENDBRANCH  12  15
ENDBRANCH   5  11
BRANCH   1  26
ATOM     26  C   UNL     1      -2.482   1.703   0.021  0.00  0.00    +0.342 C 
ATOM     27  O   UNL     1      -3.046   1.478   1.075  0.00  0.00    -0.245 OA
BRANCH  26  28
ATOM     28  O   UNL     1      -3.116   1.466  -1.146  0.00  0.00    -0.461 OA
BRANCH  28  30
ATOM     29  C   UNL     1      -5.019   0.740  -2.481  0.00  0.00    +0.048 C 
ATOM     30  C   UNL     1      -4.468   0.943  -1.068  0.00  0.00    +0.229 C 
ENDBRANCH  28  30
ENDBRANCH  26  28
ENDBRANCH   1  26
TORSDOF 7
