REMARK  Name = ZINC13020305
REMARK  11 active torsions:
REMARK  status: ('A' for Active; 'I' for Inactive)
REMARK    1  A    between atoms: C_1  and  C_2
REMARK    2  A    between atoms: C_2  and  C_4
REMARK    3  A    between atoms: C_2  and  N_6
REMARK    4  A    between atoms: C_7  and  C_28
REMARK    5  A    between atoms: C_10  and  S_11
REMARK    6  A    between atoms: S_11  and  C_12
REMARK    7  A    between atoms: C_12  and  C_14
REMARK    8  A    between atoms: C_12  and  C_15
REMARK    9  A    between atoms: N_17  and  C_18
REMARK   10  A    between atoms: C_21  and  S_24
REMARK   11  A    between atoms: S_24  and  C_25
REMARK                            x       y       z     vdW  Elec       q    Type
REMARK                         _______ _______ _______ _____ _____    ______ ____
ROOT
ATOM      1  S   UNL     1       3.657   7.932   0.046  0.00  0.00    -0.073 S 
ENDROOT
BRANCH   1   6
ATOM      2  N   UNL     1       2.323   5.479  -0.149  0.00  0.00    -0.288 N 
ATOM      3  C   UNL     1       1.019   5.070  -0.317  0.00  0.00    +0.172 A 
ATOM      4  N   UNL     1       0.283   6.156  -0.404  0.00  0.00    -0.128 NA
ATOM      5  N   UNL     1       1.026   7.199  -0.294  0.00  0.00    -0.122 NA
ATOM      6  C   UNL     1       2.281   6.846  -0.139  0.00  0.00    +0.193 A 
BRANCH   3   7
ATOM      7  C   UNL     1       0.541   3.680  -0.393  0.00  0.00    +0.056 A 
ATOM      8  C   UNL     1      -0.740   3.199  -0.281  0.00  0.00    +0.019 A 
ATOM      9  C   UNL     1      -0.948   1.843  -0.394  0.00  0.00    +0.008 A 
ATOM     10  C   UNL     1       0.117   1.024  -0.599  0.00  0.00    +0.046 A 
ATOM     11  S   UNL     1       1.475   2.181  -0.654  0.00  0.00    -0.094 S 
ENDBRANCH   3   7
BRANCH   2  13
ATOM     12  C   UNL     1       4.491   4.932  -1.141  0.00  0.00    +0.043 C 
ATOM     13  C   UNL     1       3.507   4.629  -0.008  0.00  0.00    +0.201 C 
BRANCH  13  14
ATOM     14  C   UNL     1       4.168   4.902   1.318  0.00  0.00    +0.378 C 
ATOM     15  O   UNL     1       5.309   5.300   1.354  0.00  0.00    -0.244 OA
ATOM     16  O   UNL     1       3.490   4.705   2.459  0.00  0.00    -0.244 OA
ENDBRANCH  13  14
ENDBRANCH   2  13
ENDBRANCH   1   6
BRANCH   1  17
ATOM     17  C   UNL     1       2.810   9.529  -0.044  0.00  0.00    +0.137 C 
ATOM     18  C   UNL     1       1.875   9.679   1.157  0.00  0.00    +0.029 C 
BRANCH  17  19
ATOM     19  C   UNL     1       3.829  10.639  -0.028  0.00  0.00    +0.230 C 
ATOM     20  O   UNL     1       4.948  10.430   0.392  0.00  0.00    -0.274 OA
ATOM     21  N   UNL     1       3.498  11.865  -0.481  0.00  0.00    -0.285 N 
ATOM     22  H   UNL     1       2.630  12.013  -0.888  0.00  0.00    +0.155 HD
BRANCH  21  23
ATOM     23  C   UNL     1       4.408  12.924  -0.365  0.00  0.00    +0.033 A 
ATOM     24  C   UNL     1       5.267  12.986   0.724  0.00  0.00    +0.024 A 
ATOM     25  C   UNL     1       6.167  14.027   0.836  0.00  0.00    +0.017 A 
ATOM     26  C   UNL     1       6.206  15.019  -0.136  0.00  0.00    +0.013 A 
ATOM     27  C   UNL     1       5.342  14.960  -1.223  0.00  0.00    +0.017 A 
ATOM     28  C   UNL     1       4.446  13.916  -1.337  0.00  0.00    +0.024 A 
BRANCH  26  29
ATOM     29  S   UNL     1       7.350  16.351   0.009  0.00  0.00    -0.056 S 
BRANCH  29  30
ATOM     30  C   UNL     1       8.238  16.000   1.552  0.00  0.00    +0.404 C 
ATOM     31  F   UNL     1       7.329  15.967   2.616  0.00  0.00    -0.197 F 
ATOM     32  F   UNL     1       8.880  14.762   1.449  0.00  0.00    -0.197 F 
ENDBRANCH  29  30
ENDBRANCH  26  29
ENDBRANCH  21  23
ENDBRANCH  17  19
ENDBRANCH   1  17
TORSDOF 9
