REMARK  Name = ZINC35515902
REMARK  4 active torsions:
REMARK  status: ('A' for Active; 'I' for Inactive)
REMARK    1  A    between atoms: C_4  and  C_7
REMARK    2  A    between atoms: C_7  and  N_8
REMARK    3  A    between atoms: C_12  and  C_13
REMARK    4  A    between atoms: C_19  and  C_22
REMARK                            x       y       z     vdW  Elec       q    Type
REMARK                         _______ _______ _______ _____ _____    ______ ____
ROOT
ATOM      1  N   UNL     1       3.217  -0.499   1.838  0.00  0.00    -0.251 N 
ATOM      2  C   UNL     1       4.280   0.179   2.236  0.00  0.00    +0.096 C 
ATOM      3  S   UNL     1       5.123   1.229   1.180  0.00  0.00    -0.034 S 
ATOM      4  C   UNL     1       4.703  -0.013   3.634  0.00  0.00    +0.046 C 
ATOM      5  C   UNL     1       5.743   0.544   4.310  0.00  0.00    +0.025 C 
ATOM      6  S   UNL     1       3.472  -1.181   4.199  0.00  0.00    -0.029 S 
ATOM      7  C   UNL     1       2.552  -1.321   2.676  0.00  0.00    +0.284 C 
ATOM      8  O   UNL     1       1.566  -1.996   2.448  0.00  0.00    -0.262 OA
ENDROOT
BRANCH   5   9
ATOM      9  C   UNL     1       6.078   0.075   5.658  0.00  0.00    -0.023 A 
ATOM     10  C   UNL     1       5.616  -1.191   6.079  0.00  0.00    +0.010 A 
ATOM     11  C   UNL     1       5.895  -1.672   7.311  0.00  0.00    +0.032 A 
ATOM     12  C   UNL     1       6.692  -0.865   8.230  0.00  0.00    +0.114 A 
ATOM     13  C   UNL     1       7.168   0.455   7.777  0.00  0.00    +0.050 A 
ATOM     14  C   UNL     1       6.843   0.885   6.483  0.00  0.00    +0.021 A 
ATOM     15  C   UNL     1       7.893   0.999   8.838  0.00  0.00    +0.175 A 
ATOM     16  O   UNL     1       7.870   0.112   9.844  0.00  0.00    -0.353 OA
ATOM     17  N   UNL     1       7.129  -1.030   9.458  0.00  0.00    -0.078 NA
BRANCH  15  18
ATOM     18  C   UNL     1       8.562   2.311   8.851  0.00  0.00    +0.021 A 
ATOM     19  C   UNL     1       7.898   3.444   8.371  0.00  0.00    +0.011 A 
ATOM     20  C   UNL     1       8.531   4.669   8.387  0.00  0.00    +0.001 A 
ATOM     21  C   UNL     1       9.821   4.779   8.877  0.00  0.00    +0.000 A 
ATOM     22  C   UNL     1      10.485   3.662   9.354  0.00  0.00    +0.001 A 
ATOM     23  C   UNL     1       9.863   2.431   9.349  0.00  0.00    +0.011 A 
ENDBRANCH  15  18
ENDBRANCH   5   9
BRANCH   1  24
ATOM     24  C   UNL     1       2.748  -0.350   0.458  0.00  0.00    +0.150 C 
BRANCH  24  28
ATOM     25  C   UNL     1      -0.067   2.856   0.248  0.00  0.00    +0.000 A 
ATOM     26  C   UNL     1       1.280   3.106   0.063  0.00  0.00    +0.000 A 
ATOM     27  C   UNL     1       2.191   2.068   0.131  0.00  0.00    +0.005 A 
ATOM     28  C   UNL     1       1.755   0.781   0.385  0.00  0.00    -0.030 A 
ATOM     29  C   UNL     1       0.408   0.531   0.571  0.00  0.00    +0.005 A 
ATOM     30  C   UNL     1      -0.503   1.569   0.501  0.00  0.00    +0.000 A 
ENDBRANCH  24  28
ENDBRANCH   1  24
TORSDOF 4
