REMARK  Name = ZINC20407047
REMARK  9 active torsions:
REMARK  status: ('A' for Active; 'I' for Inactive)
REMARK    1  A    between atoms: C_1  and  C_2
REMARK    2  A    between atoms: C_2  and  C_4
REMARK    3  A    between atoms: C_2  and  N_12
REMARK    4  A    between atoms: C_7  and  O_10
REMARK    5  A    between atoms: O_10  and  C_11
REMARK    6  A    between atoms: C_13  and  C_15
REMARK    7  A    between atoms: C_15  and  C_17
REMARK    8  A    between atoms: C_15  and  S_18
REMARK    9  A    between atoms: S_18  and  C_19
REMARK                            x       y       z     vdW  Elec       q    Type
REMARK                         _______ _______ _______ _____ _____    ______ ____
ROOT
ATOM      1  C   UNL     1      -5.451   1.585   2.397  0.00  0.00    +0.137 C 
ATOM      2  C   UNL     1      -6.572   2.220   1.570  0.00  0.00    +0.029 C 
ENDROOT
BRANCH   1   4
ATOM      3  N   UNL     1      -3.471   1.630   0.915  0.00  0.00    -0.308 N 
ATOM      4  C   UNL     1      -4.466   0.913   1.475  0.00  0.00    +0.227 C 
ATOM      5  O   UNL     1      -4.568  -0.271   1.237  0.00  0.00    -0.275 OA
ATOM      6  H   UNL     1      -3.378   2.704   1.131  0.00  0.00    +0.149 HD
BRANCH   3   8
ATOM      7  C   UNL     1      -3.086   0.939  -1.399  0.00  0.00    +0.033 C 
ATOM      8  C   UNL     1      -2.513   0.977   0.019  0.00  0.00    +0.100 C 
BRANCH   8   9
ATOM      9  C   UNL     1      -1.220   1.750   0.017  0.00  0.00    -0.027 A 
ATOM     10  C   UNL     1      -0.013   1.076   0.008  0.00  0.00    +0.009 A 
ATOM     11  C   UNL     1       1.175   1.782   0.000  0.00  0.00    +0.046 A 
ATOM     12  C   UNL     1       1.155   3.169   0.008  0.00  0.00    +0.120 A 
ATOM     13  C   UNL     1      -0.057   3.844   0.023  0.00  0.00    +0.046 A 
ATOM     14  C   UNL     1      -1.242   3.133   0.031  0.00  0.00    +0.009 A 
BRANCH  12  15
ATOM     15  O   UNL     1       2.322   3.866   0.000  0.00  0.00    -0.495 OA
ATOM     16  C   UNL     1       2.225   5.292   0.009  0.00  0.00    +0.277 C 
ENDBRANCH  12  15
ENDBRANCH   8   9
ENDBRANCH   3   8
ENDBRANCH   1   4
BRANCH   1  17
ATOM     17  S   UNL     1      -6.155   0.357   3.525  0.00  0.00    -0.075 S 
BRANCH  17  18
ATOM     18  C   UNL     1      -7.124   1.408   4.555  0.00  0.00    +0.171 A 
ATOM     19  N   UNL     1      -7.848   0.867   5.577  0.00  0.00    -0.301 N 
ATOM     20  H   UNL     1      -7.824  -0.219   5.754  0.00  0.00    +0.171 HD
ATOM     21  C   UNL     1      -8.600   1.637   6.385  0.00  0.00    +0.261 A 
ATOM     22  O   UNL     1      -9.242   1.139   7.293  0.00  0.00    -0.267 OA
ATOM     23  C   UNL     1      -8.636   3.050   6.162  0.00  0.00    +0.075 A 
ATOM     24  C   UNL     1      -9.377   4.068   6.910  0.00  0.00    -0.023 A 
ATOM     25  C   UNL     1      -9.245   5.346   6.500  0.00  0.00    -0.004 A 
ATOM     26  S   UNL     1      -8.142   5.273   5.114  0.00  0.00    -0.073 S 
ATOM     27  C   UNL     1      -7.861   3.521   5.089  0.00  0.00    +0.117 A 
ATOM     28  N   UNL     1      -7.136   2.707   4.331  0.00  0.00    -0.216 NA
ATOM     29  C   UNL     1      -9.893   6.560   7.091  0.00  0.00    +0.043 C 
ATOM     30  C   UNL     1     -11.032   6.101   8.013  0.00  0.00    +0.005 C 
ATOM     31  C   UNL     1     -10.508   4.986   8.922  0.00  0.00    +0.005 C 
ATOM     32  C   UNL     1     -10.263   3.719   8.102  0.00  0.00    +0.037 C 
ENDBRANCH  17  18
ENDBRANCH   1  17
TORSDOF 6
