REMARK  Name = ZINC08590456
REMARK  9 active torsions:
REMARK  status: ('A' for Active; 'I' for Inactive)
REMARK    1  A    between atoms: C_1  and  C_2
REMARK    2  A    between atoms: N_15  and  C_25
REMARK    3  A    between atoms: C_16  and  C_18
REMARK    4  A    between atoms: C_21  and  O_24
REMARK    5  A    between atoms: C_25  and  C_26
REMARK    6  A    between atoms: C_26  and  C_27
REMARK    7  A    between atoms: C_27  and  N_28
REMARK    8  A    between atoms: N_28  and  C_29
REMARK    9  A    between atoms: N_28  and  C_30
REMARK                            x       y       z     vdW  Elec       q    Type
REMARK                         _______ _______ _______ _____ _____    ______ ____
ROOT
ATOM      1  C   UNL     1      -0.018   1.503   0.010  0.00  0.00    +0.044 C 
ATOM      2  C   UNL     1       0.002  -0.004   0.002  0.00  0.00    -0.050 A 
ATOM      3  C   UNL     1       0.006  -0.689  -1.205  0.00  0.00    +0.007 A 
ATOM      4  C   UNL     1       0.021  -2.065  -1.235  0.00  0.00    +0.047 A 
ATOM      5  C   UNL     1       0.035  -2.790  -0.043  0.00  0.00    +0.139 A 
ATOM      6  C   UNL     1       0.037  -2.086   1.172  0.00  0.00    +0.065 A 
ATOM      7  C   UNL     1       0.023  -0.692   1.183  0.00  0.00    +0.018 A 
ATOM      8  C   UNL     1       0.068  -2.849   2.446  0.00  0.00    +0.199 A 
ATOM      9  O   UNL     1      -0.097  -2.332   3.537  0.00  0.00    -0.287 OA
ATOM     10  C   UNL     1       0.314  -4.283   2.265  0.00  0.00    +0.072 A 
ATOM     11  C   UNL     1       0.294  -4.850   1.022  0.00  0.00    +0.199 A 
ATOM     12  O   UNL     1       0.043  -4.141  -0.096  0.00  0.00    -0.450 OA
ATOM     13  C   UNL     1       0.583  -6.288   1.166  0.00  0.00    +0.283 C 
ATOM     14  O   UNL     1       0.643  -7.081   0.247  0.00  0.00    -0.267 OA
ATOM     15  N   UNL     1       0.770  -6.596   2.465  0.00  0.00    -0.284 N 
ATOM     16  C   UNL     1       0.614  -5.362   3.253  0.00  0.00    +0.144 C 
ENDROOT
BRANCH  16  17
ATOM     17  C   UNL     1       1.891  -5.051   3.990  0.00  0.00    -0.022 A 
ATOM     18  C   UNL     1       3.112  -5.281   3.384  0.00  0.00    +0.009 A 
ATOM     19  C   UNL     1       4.284  -4.997   4.058  0.00  0.00    +0.046 A 
ATOM     20  C   UNL     1       4.235  -4.481   5.344  0.00  0.00    +0.117 A 
ATOM     21  C   UNL     1       3.009  -4.251   5.951  0.00  0.00    +0.046 A 
ATOM     22  C   UNL     1       1.840  -4.532   5.271  0.00  0.00    +0.009 A 
BRANCH  20  23
ATOM     23  O   UNL     1       5.387  -4.201   6.010  0.00  0.00    -0.507 OA
ATOM     24  H   UNL     1       5.711  -3.300   5.873  0.00  0.00    +0.292 HD
ENDBRANCH  20  23
ENDBRANCH  16  17
BRANCH  15  25
ATOM     25  C   UNL     1       1.076  -7.926   2.999  0.00  0.00    +0.107 C 
BRANCH  25  26
ATOM     26  C   UNL     1       2.593  -8.120   3.045  0.00  0.00    +0.000 C 
BRANCH  26  27
ATOM     27  C   UNL     1       2.912  -9.509   3.603  0.00  0.00    -0.078 C 
BRANCH  27  28
ATOM     28  N   UNL     1       4.368  -9.696   3.647  0.00  0.00    +0.376 N 
ATOM     29  C   UNL     1       4.678 -10.979   4.293  0.00  0.00    -0.097 C 
ATOM     30  C   UNL     1       4.904  -9.694   2.279  0.00  0.00    -0.097 C 
ATOM     31  H   UNL     1       4.788  -8.945   4.174  0.00  0.00    -0.083 HD
ENDBRANCH  27  28
ENDBRANCH  26  27
ENDBRANCH  25  26
ENDBRANCH  15  25
TORSDOF 6
