REMARK  Name = ZINC13151895
REMARK  6 active torsions:
REMARK  status: ('A' for Active; 'I' for Inactive)
REMARK    1  A    between atoms: C_1  and  C_2
REMARK    2  A    between atoms: C_2  and  C_4
REMARK    3  A    between atoms: C_15  and  S_20
REMARK    4  A    between atoms: S_20  and  C_21
REMARK    5  A    between atoms: C_26  and  N_27
REMARK    6  A    between atoms: CA_30  and  C_33
REMARK                            x       y       z     vdW  Elec       q    Type
REMARK                         _______ _______ _______ _____ _____    ______ ____
ROOT
ATOM      1  C   UNL     1       1.310   7.163   4.427  0.00  0.00    +0.017 A 
ATOM      2  C   UNL     1       1.934   8.414   4.522  0.00  0.00    +0.013 A 
ATOM      3  C   UNL     1       3.064   8.669   3.801  0.00  0.00    +0.024 A 
ATOM      4  C   UNL     1       3.607   7.692   2.966  0.00  0.00    +0.031 A 
ATOM      5  C   UNL     1       2.990   6.437   2.881  0.00  0.00    -0.021 A 
ATOM      6  C   UNL     1       1.857   6.178   3.595  0.00  0.00    +0.017 A 
ATOM      7  C   UNL     1       3.608   5.412   1.999  0.00  0.00    +0.045 C 
ATOM      8  C   UNL     1       4.241   6.151   0.788  0.00  0.00    +0.030 C 
ATOM      9  C   UNL     1       4.616   4.976  -0.119  0.00  0.00    +0.022 C 
ATOM     10  C   UNL     1       3.375   4.046  -0.007  0.00  0.00    +0.070 C 
ATOM     11  C   UNL     1       2.694   4.386   1.345  0.00  0.00    +0.101 C 
ATOM     12 CL   UNL     1       2.571   2.910   2.373  0.00  0.00    -0.120 Cl
ATOM     13  CA  UNL     1       5.387   6.979   1.342  0.00  0.00    +0.188 C 
ATOM     14  N   UNL     1       4.742   8.000   2.220  0.00  0.00    -0.331 N 
ATOM     15  H   UNL     1       5.122   8.890   2.275  0.00  0.00    +0.147 HD
ENDROOT
BRANCH   1  17
ATOM     16  C   UNL     1      -0.494   7.949   6.089  0.00  0.00    +0.091 C 
ATOM     17  C   UNL     1       0.091   6.886   5.195  0.00  0.00    +0.160 C 
ATOM     18  O   UNL     1      -0.446   5.802   5.111  0.00  0.00    -0.292 OA
ENDBRANCH   1  17
BRANCH  13  19
ATOM     19  C   UNL     1       6.326   6.104   2.131  0.00  0.00    +0.376 C 
ATOM     20  O   UNL     1       6.260   6.082   3.338  0.00  0.00    -0.244 OA
ATOM     21  OXT UNL     1       7.234   5.348   1.494  0.00  0.00    -0.244 OA
ENDBRANCH  13  19
BRANCH  10  22
ATOM     22  S   UNL     1       3.897   2.308  -0.021  0.00  0.00    -0.118 S 
BRANCH  22  23
ATOM     23  C   UNL     1       2.381   1.409  -0.013  0.00  0.00    +0.038 A 
ATOM     24  C   UNL     1       1.168   2.087   0.002  0.00  0.00    +0.017 A 
ATOM     25  C   UNL     1      -0.017   1.379   0.010  0.00  0.00    +0.001 A 
ATOM     26  C   UNL     1       0.002  -0.004   0.002  0.00  0.00    +0.002 A 
ATOM     27  C   UNL     1       1.207  -0.682  -0.014  0.00  0.00    +0.034 A 
ATOM     28  C   UNL     1       2.396   0.019  -0.021  0.00  0.00    +0.140 A 
BRANCH  28  29
ATOM     29  N   UNL     1       3.685  -0.708  -0.037  0.00  0.00    +0.058 N 
ATOM     30  O   UNL     1       3.698  -1.926  -0.043  0.00  0.00    -0.126 OA
ATOM     31  O   UNL     1       4.734  -0.088  -0.043  0.00  0.00    -0.126 OA
ENDBRANCH  28  29
ENDBRANCH  22  23
ENDBRANCH  10  22
TORSDOF 5
