REMARK  Name = ZINC06289812
REMARK  6 active torsions:
REMARK  status: ('A' for Active; 'I' for Inactive)
REMARK    1  A    between atoms: C_1  and  O_2
REMARK    2  A    between atoms: O_2  and  C_3
REMARK    3  A    between atoms: C_12  and  C_13
REMARK    4  A    between atoms: C_17  and  C_27
REMARK    5  A    between atoms: C_22  and  N_26
REMARK    6  A    between atoms: C_23  and  C_24
REMARK                            x       y       z     vdW  Elec       q    Type
REMARK                         _______ _______ _______ _____ _____    ______ ____
ROOT
ATOM      1  C   UNL     1       0.042  -2.800  -0.009  0.00  0.00    +0.086 C 
ATOM      2  C   UNL     1      -1.474  -2.577  -0.005  0.00  0.00    +0.144 C 
ATOM      3  C   UNL     1      -1.987  -2.354   1.398  0.00  0.00    +0.156 C 
ATOM      4  N   UNL     1      -2.436  -1.141   1.430  0.00  0.00    -0.146 NA
ATOM      5  N   UNL     1      -2.272  -0.478   0.214  0.00  0.00    -0.115 NA
ATOM      6  C   UNL     1      -1.696  -1.224  -0.677  0.00  0.00    +0.227 C 
ATOM      7  O   UNL     1      -1.242  -0.982  -1.925  0.00  0.00    -0.425 OA
ATOM      8  C   UNL     1      -0.026  -1.527  -2.189  0.00  0.00    +0.200 C 
ATOM      9  C   UNL     1       0.598  -2.374  -1.342  0.00  0.00    +0.095 C 
ENDROOT
BRANCH   1  19
ATOM     10  C   UNL     1       0.608  -0.619   1.052  0.00  0.00    +0.124 A 
ATOM     11  C   UNL     1       1.186   0.154   2.064  0.00  0.00    +0.046 A 
ATOM     12  C   UNL     1       1.834  -0.431   3.107  0.00  0.00    +0.012 A 
ATOM     13  C   UNL     1       1.926  -1.833   3.172  0.00  0.00    -0.017 A 
ATOM     14  C   UNL     1       2.588  -2.470   4.235  0.00  0.00    +0.008 A 
ATOM     15  C   UNL     1       2.659  -3.829   4.267  0.00  0.00    +0.001 A 
ATOM     16  C   UNL     1       2.084  -4.601   3.260  0.00  0.00    +0.001 A 
ATOM     17  C   UNL     1       1.435  -4.019   2.215  0.00  0.00    +0.009 A 
ATOM     18  C   UNL     1       1.342  -2.618   2.147  0.00  0.00    -0.011 A 
ATOM     19  C   UNL     1       0.675  -1.982   1.087  0.00  0.00    +0.011 A 
BRANCH  10  21
ATOM     20  C   UNL     1      -0.070   1.423   0.041  0.00  0.00    +0.277 C 
ATOM     21  O   UNL     1      -0.033  -0.005   0.023  0.00  0.00    -0.495 OA
ENDBRANCH  10  21
ENDBRANCH   1  19
BRANCH   3  22
ATOM     22  C   UNL     1      -1.977  -3.345   2.533  0.00  0.00    +0.433 C 
ATOM     23  F   UNL     1      -2.539  -2.757   3.671  0.00  0.00    -0.165 F 
ATOM     24  F   UNL     1      -2.722  -4.473   2.174  0.00  0.00    -0.165 F 
ATOM     25  F   UNL     1      -0.659  -3.726   2.808  0.00  0.00    -0.165 F 
ENDBRANCH   3  22
BRANCH   8  26
ATOM     26  N   UNL     1       0.597  -1.204  -3.369  0.00  0.00    -0.328 N 
ATOM     27  H   UNL     1       0.168  -0.598  -3.994  0.00  0.00    +0.145 HD
ATOM     28  H   UNL     1       1.466  -1.581  -3.579  0.00  0.00    +0.145 HD
ENDBRANCH   8  26
BRANCH   9  29
ATOM     29  C   UNL     1       1.871  -2.900  -1.734  0.00  0.00    +0.100 C 
ATOM     30  N   UNL     1       2.881  -3.318  -2.046  0.00  0.00    -0.191 NA
ENDBRANCH   9  29
TORSDOF 5
