REMARK  Name = ZINC42351155
REMARK  5 active torsions:
REMARK  status: ('A' for Active; 'I' for Inactive)
REMARK    1  A    between atoms: C_1  and  C_2
REMARK    2  A    between atoms: C_2  and  C_3
REMARK    3  A    between atoms: C_7  and  C_20
REMARK    4  A    between atoms: N_10  and  S_11
REMARK    5  A    between atoms: S_11  and  C_14
REMARK                            x       y       z     vdW  Elec       q    Type
REMARK                         _______ _______ _______ _____ _____    ______ ____
ROOT
ATOM      1  C   UNL     1       0.718  -0.497  -1.257  0.00  0.00    +0.105 C 
ATOM      2  C   UNL     1       0.841  -2.025  -1.216  0.00  0.00    +0.180 C 
ATOM      3  O   UNL     1      -0.461  -2.605  -1.329  0.00  0.00    -0.374 OA
ATOM      4  C   UNL     1      -1.126  -2.315  -2.561  0.00  0.00    +0.131 C 
ATOM      5  C   UNL     1      -1.349  -0.803  -2.671  0.00  0.00    +0.141 C 
ATOM      6  N   UNL     1      -0.061  -0.125  -2.448  0.00  0.00    -0.168 NA
ATOM      7  C   UNL     1      -2.475  -3.036  -2.595  0.00  0.00    +0.039 C 
ENDROOT
BRANCH   6   8
ATOM      8  S   UNL     1       0.495   1.020  -3.507  0.00  0.00    +0.069 S 
ATOM      9  O   UNL     1      -0.644   1.543  -4.175  0.00  0.00    -0.152 OA
ATOM     10  O   UNL     1       1.397   1.843  -2.779  0.00  0.00    -0.152 OA
BRANCH   8  11
ATOM     11  C   UNL     1       1.452   0.181  -4.726  0.00  0.00    +0.157 A 
ATOM     12  C   UNL     1       2.114   0.693  -5.793  0.00  0.00    +0.051 A 
ATOM     13  C   UNL     1       2.808  -0.165  -6.626  0.00  0.00    +0.025 A 
ATOM     14  C   UNL     1       2.807  -1.492  -6.350  0.00  0.00    +0.048 A 
ATOM     15  S   UNL     1       1.809  -1.562  -4.872  0.00  0.00    -0.076 S 
ATOM     16 BR   UNL     1       2.087   2.552  -6.138  0.00  0.00    -0.048 Br
ENDBRANCH   8  11
ENDBRANCH   6   8
BRANCH   1  18
ATOM     17  C   UNL     1      -0.019   1.526   0.010  0.00  0.00    +0.005 C 
ATOM     18  C   UNL     1       0.002  -0.004   0.002  0.00  0.00    +0.019 C 
ENDBRANCH   1  18
TORSDOF 3
