REMARK  Name = ZINC40356511
REMARK  11 active torsions:
REMARK  status: ('A' for Active; 'I' for Inactive)
REMARK    1  A    between atoms: C_1  and  C_2
REMARK    2  A    between atoms: C_5  and  C_8
REMARK    3  A    between atoms: C_8  and  N_9
REMARK    4  A    between atoms: N_9  and  C_10
REMARK    5  A    between atoms: C_10  and  C_11
REMARK    6  A    between atoms: C_11  and  C_30
REMARK    7  A    between atoms: C_15  and  C_29
REMARK    8  A    between atoms: C_24  and  C_26
REMARK    9  A    between atoms: C_26  and  C_27
REMARK   10  A    between atoms: C_26  and  C_28
REMARK   11  A    between atoms: N_33  and  C_34
REMARK                            x       y       z     vdW  Elec       q    Type
REMARK                         _______ _______ _______ _____ _____    ______ ____
ROOT
ATOM      1  N   UNL     1       1.527  -4.229   0.061  0.00  0.00    -0.281 N 
ATOM      2  C   UNL     1       2.159  -4.342  -1.124  0.00  0.00    +0.307 C 
ATOM      3  O   UNL     1       3.284  -4.801  -1.172  0.00  0.00    -0.252 OA
ATOM      4  N   UNL     1       1.543  -3.946  -2.256  0.00  0.00    -0.269 N 
ATOM      5  H   UNL     1       0.673  -3.521  -2.211  0.00  0.00    +0.156 HD
ENDROOT
BRANCH   4   6
ATOM      6  C   UNL     1       2.160  -4.149  -3.495  0.00  0.00    +0.036 A 
ATOM      7  C   UNL     1       1.393  -4.447  -4.614  0.00  0.00    +0.023 A 
ATOM      8  C   UNL     1       2.004  -4.646  -5.836  0.00  0.00    +0.003 A 
ATOM      9  C   UNL     1       3.379  -4.550  -5.947  0.00  0.00    +0.020 A 
ATOM     10  C   UNL     1       4.147  -4.253  -4.835  0.00  0.00    +0.043 A 
ATOM     11  C   UNL     1       3.540  -4.047  -3.610  0.00  0.00    +0.043 A 
ATOM     12 CL   UNL     1       5.873  -4.133  -4.979  0.00  0.00    -0.083 Cl
ENDBRANCH   4   6
BRANCH   1  13
ATOM     13  C   UNL     1       0.172  -3.676   0.120  0.00  0.00    +0.144 C 
BRANCH  13  18
ATOM     14  C   UNL     1       0.454   2.053   0.821  0.00  0.00    +0.044 C 
ATOM     15  C   UNL     1       0.380   0.559   0.638  0.00  0.00    -0.050 A 
ATOM     16  C   UNL     1       0.356   0.019  -0.634  0.00  0.00    +0.003 A 
ATOM     17  C   UNL     1       0.288  -1.352  -0.802  0.00  0.00    +0.005 A 
ATOM     18  C   UNL     1       0.246  -2.182   0.302  0.00  0.00    -0.030 A 
ATOM     19  C   UNL     1       0.271  -1.642   1.575  0.00  0.00    +0.005 A 
ATOM     20  C   UNL     1       0.343  -0.272   1.743  0.00  0.00    +0.003 A 
ENDBRANCH  13  18
ENDBRANCH   1  13
BRANCH   1  21
ATOM     21  C   UNL     1       2.196  -4.659   1.292  0.00  0.00    +0.116 C 
BRANCH  21  22
ATOM     22  C   UNL     1       1.882  -6.131   1.554  0.00  0.00    -0.013 C 
ATOM     23  C   UNL     1       0.372  -6.330   1.704  0.00  0.00    +0.008 C 
ATOM     24  C   UNL     1      -0.135  -5.860   3.061  0.00  0.00    +0.001 C 
ATOM     25  C   UNL     1       0.590  -6.609   4.181  0.00  0.00    +0.011 C 
ATOM     26  C   UNL     1       2.084  -6.312   4.105  0.00  0.00    -0.003 C 
ATOM     27  C   UNL     1       2.634  -6.687   2.742  0.00  0.00    +0.007 C 
ATOM     28  C   UNL     1       4.134  -6.407   2.704  0.00  0.00    +0.009 C 
ATOM     29  C   UNL     1       4.824  -7.426   3.613  0.00  0.00    +0.036 C 
ATOM     30  C   UNL     1       4.090  -7.608   4.914  0.00  0.00    -0.043 A 
ATOM     31  C   UNL     1       2.829  -7.108   5.156  0.00  0.00    -0.038 A 
ATOM     32  C   UNL     1       2.219  -7.320   6.381  0.00  0.00    +0.005 A 
ATOM     33  C   UNL     1       2.865  -8.036   7.370  0.00  0.00    +0.004 A 
ATOM     34  C   UNL     1       4.130  -8.540   7.133  0.00  0.00    -0.045 A 
ATOM     35  C   UNL     1       4.738  -8.327   5.914  0.00  0.00    +0.007 A 
ATOM     36  C   UNL     1       2.310  -4.837   4.437  0.00  0.00    +0.016 C 
ATOM     37  C   UNL     1       2.310  -6.924   0.295  0.00  0.00    +0.013 C 
BRANCH  34  38
ATOM     38  C   UNL     1       4.845  -9.320   8.207  0.00  0.00    +0.013 C 
ATOM     39  C   UNL     1       5.024  -8.438   9.444  0.00  0.00    +0.012 C 
ATOM     40  C   UNL     1       4.019 -10.554   8.576  0.00  0.00    +0.012 C 
ENDBRANCH  34  38
ENDBRANCH  21  22
ENDBRANCH   1  21
TORSDOF 6
