REMARK  Name = ZINC67106413
REMARK  7 active torsions:
REMARK  status: ('A' for Active; 'I' for Inactive)
REMARK    1  A    between atoms: C_1  and  C_2
REMARK    2  A    between atoms: C_5  and  C_12
REMARK    3  A    between atoms: C_8  and  C_10
REMARK    4  A    between atoms: C_8  and  C_11
REMARK    5  A    between atoms: C_12  and  C_13
REMARK    6  A    between atoms: N_15  and  C_16
REMARK    7  A    between atoms: C_24  and  C_29
REMARK                            x       y       z     vdW  Elec       q    Type
REMARK                         _______ _______ _______ _____ _____    ______ ____
ROOT
ATOM      1  C   UNL     1       0.366  -2.082  -6.152  0.00  0.00    +0.105 C 
ATOM      2  C   UNL     1       0.675  -3.048  -7.294  0.00  0.00    +0.027 C 
ATOM      3  C   UNL     1       0.019  -2.505  -8.570  0.00  0.00    +0.008 C 
ATOM      4  C   UNL     1       0.763  -1.239  -8.988  0.00  0.00    +0.054 C 
ATOM      5  C   UNL     1       0.879  -0.281  -7.829  0.00  0.00    +0.024 A 
ATOM      6  C   UNL     1       0.706  -0.667  -6.544  0.00  0.00    -0.007 A 
ATOM      7  C   UNL     1       0.840   0.270  -5.510  0.00  0.00    +0.025 A 
ATOM      8  C   UNL     1       1.147   1.591  -5.814  0.00  0.00    +0.101 A 
ATOM      9  C   UNL     1       1.314   1.950  -7.176  0.00  0.00    +0.261 A 
ATOM     10  O   UNL     1       1.581   3.100  -7.479  0.00  0.00    -0.267 OA
ATOM     11  N   UNL     1       1.174   1.016  -8.127  0.00  0.00    -0.325 N 
ATOM     12  H   UNL     1       1.289   1.271  -9.056  0.00  0.00    +0.169 HD
ENDROOT
BRANCH   8  13
ATOM     13  C   UNL     1       1.295   2.593  -4.747  0.00  0.00    +0.247 C 
ATOM     14  O   UNL     1       1.046   2.296  -3.594  0.00  0.00    -0.270 OA
ATOM     15  N   UNL     1       1.708   3.840  -5.047  0.00  0.00    -0.325 N 
ATOM     16  H   UNL     1       1.837   4.099  -5.973  0.00  0.00    +0.145 HD
ATOM     17  H   UNL     1       1.877   4.479  -4.337  0.00  0.00    +0.145 HD
ENDBRANCH   8  13
BRANCH   1  20
ATOM     18  C   UNL     1       0.720  -2.134  -3.742  0.00  0.00    +0.214 C 
ATOM     19  O   UNL     1      -0.323  -1.530  -3.605  0.00  0.00    -0.276 OA
ATOM     20  N   UNL     1       1.154  -2.458  -4.976  0.00  0.00    -0.308 N 
ATOM     21  H   UNL     1       1.988  -2.942  -5.085  0.00  0.00    +0.149 HD
BRANCH  18  22
ATOM     22  C   UNL     1       1.530  -2.521  -2.532  0.00  0.00    +0.099 C 
BRANCH  22  26
ATOM     23  C   UNL     1       0.036   1.506   0.021  0.00  0.00    +0.007 C 
ATOM     24  C   UNL     1       0.073  -0.023   0.010  0.00  0.00    -0.013 C 
ATOM     25  C   UNL     1       0.783  -0.507  -1.256  0.00  0.00    +0.007 C 
ATOM     26  C   UNL     1       0.820  -2.037  -1.266  0.00  0.00    -0.002 C 
ATOM     27  C   UNL     1       1.577  -2.537  -0.034  0.00  0.00    +0.010 C 
ATOM     28  C   UNL     1       0.867  -2.053   1.232  0.00  0.00    -0.034 C 
ATOM     29  C   UNL     1       0.830  -0.523   1.242  0.00  0.00    +0.009 C 
ATOM     30  C   UNL     1      -0.563  -2.598   1.255  0.00  0.00    +0.011 C 
ATOM     31  C   UNL     1       1.623  -2.553   2.464  0.00  0.00    +0.011 C 
ENDBRANCH  22  26
ENDBRANCH  18  22
ENDBRANCH   1  20
TORSDOF 4
