REMARK  Name = ZINC01322125
REMARK  8 active torsions:
REMARK  status: ('A' for Active; 'I' for Inactive)
REMARK    1  A    between atoms: C_1  and  O_2
REMARK    2  A    between atoms: O_2  and  C_3
REMARK    3  A    between atoms: C_13  and  C_17
REMARK    4  A    between atoms: C_20  and  O_32
REMARK    5  A    between atoms: C_21  and  C_23
REMARK    6  A    between atoms: C_23  and  O_24
REMARK    7  A    between atoms: O_24  and  C_25
REMARK    8  A    between atoms: O_32  and  C_33
REMARK                            x       y       z     vdW  Elec       q    Type
REMARK                         _______ _______ _______ _____ _____    ______ ____
ROOT
ATOM      1  C   UNL     1      -5.205   9.782  -1.737  0.00  0.00    +0.121 A 
ATOM      2  C   UNL     1      -6.002   8.716  -1.336  0.00  0.00    +0.047 A 
ATOM      3  C   UNL     1      -5.546   7.742  -0.465  0.00  0.00    +0.030 A 
ATOM      4  C   UNL     1      -4.241   7.869   0.004  0.00  0.00    +0.047 A 
ATOM      5  C   UNL     1      -3.426   8.957  -0.402  0.00  0.00    +0.006 A 
ATOM      6  C   UNL     1      -3.903   9.932  -1.285  0.00  0.00    +0.056 A 
ATOM      7  C   UNL     1      -2.157   8.775   0.268  0.00  0.00    -0.022 A 
ATOM      8  C   UNL     1      -2.253   7.648   1.008  0.00  0.00    +0.010 A 
ATOM      9  N   UNL     1      -3.498   7.100   0.857  0.00  0.00    -0.359 N 
ATOM     10  H   UNL     1      -3.806   6.287   1.288  0.00  0.00    +0.166 HD
ATOM     11  C   UNL     1      -1.120   7.122   1.857  0.00  0.00    +0.007 C 
ATOM     12  C   UNL     1      -0.014   9.233   1.387  0.00  0.00    -0.076 C 
ATOM     13  C   UNL     1      -0.916   9.630   0.211  0.00  0.00    +0.018 C 
ATOM     14  N   UNL     1       0.141   7.764   1.426  0.00  0.00    +0.387 N 
ATOM     15  H   UNL     1       0.389   7.426   0.489  0.00  0.00    -0.084 HD
ATOM     16  H   UNL     1       0.887   7.521   2.087  0.00  0.00    -0.084 HD
ENDROOT
BRANCH  11  17
ATOM     17  C   UNL     1      -1.003   5.630   1.677  0.00  0.00    -0.055 A 
ATOM     18  C   UNL     1      -0.368   5.117   0.561  0.00  0.00    +0.006 A 
ATOM     19  C   UNL     1      -0.253   3.751   0.396  0.00  0.00    +0.046 A 
ATOM     20  C   UNL     1      -0.787   2.892   1.346  0.00  0.00    +0.126 A 
ATOM     21  C   UNL     1      -1.425   3.409   2.465  0.00  0.00    +0.031 A 
ATOM     22  C   UNL     1      -1.531   4.776   2.627  0.00  0.00    +0.013 A 
BRANCH  20  23
ATOM     23  O   UNL     1      -0.682   1.547   1.184  0.00  0.00    -0.495 OA
ATOM     24  C   UNL     1      -0.013   1.086   0.008  0.00  0.00    +0.277 C 
ENDBRANCH  20  23
BRANCH  21  25
ATOM     25  C   UNL     1      -2.000   2.479   3.502  0.00  0.00    +0.268 C 
BRANCH  25  26
ATOM     26  O   UNL     1      -2.599   3.245   4.548  0.00  0.00    -0.487 OA
BRANCH  26  27
ATOM     27  C   UNL     1      -3.169   2.554   5.571  0.00  0.00    +0.121 A 
ATOM     28  C   UNL     1      -3.156   1.166   5.563  0.00  0.00    +0.047 A 
ATOM     29  C   UNL     1      -3.731   0.466   6.606  0.00  0.00    +0.019 A 
ATOM     30  C   UNL     1      -4.329   1.146   7.651  0.00  0.00    +0.018 A 
ATOM     31  C   UNL     1      -4.347   2.530   7.658  0.00  0.00    +0.019 A 
ATOM     32  C   UNL     1      -3.769   3.234   6.620  0.00  0.00    +0.047 A 
ATOM     33 BR   UNL     1      -5.121   0.185   9.074  0.00  0.00    -0.050 Br
ENDBRANCH  26  27
ENDBRANCH  25  26
ENDBRANCH  21  25
ENDBRANCH  11  17
BRANCH   1  35
ATOM     34  C   UNL     1      -7.063  10.505  -3.034  0.00  0.00    +0.277 C 
ATOM     35  O   UNL     1      -5.717  10.704  -2.596  0.00  0.00    -0.495 OA
ENDBRANCH   1  35
TORSDOF 6
