REMARK  Name = ZINC48373899
REMARK  8 active torsions:
REMARK  status: ('A' for Active; 'I' for Inactive)
REMARK    1  A    between atoms: C_1  and  C_2
REMARK    2  A    between atoms: C_2  and  C_4
REMARK    3  A    between atoms: C_2  and  N_14
REMARK    4  A    between atoms: C_8  and  N_10
REMARK    5  A    between atoms: C_11  and  C_13
REMARK    6  A    between atoms: N_17  and  C_18
REMARK    7  A    between atoms: C_23  and  S_24
REMARK    8  A    between atoms: S_24  and  C_25
REMARK                            x       y       z     vdW  Elec       q    Type
REMARK                         _______ _______ _______ _____ _____    ______ ____
ROOT
ATOM      1  N   UNL     1       0.529  -0.461  -1.204  0.00  0.00    -0.293 N 
ATOM      2  C   UNL     1      -0.071  -0.581  -2.405  0.00  0.00    +0.304 C 
ATOM      3  O   UNL     1      -1.234  -0.252  -2.539  0.00  0.00    -0.252 OA
ATOM      4  N   UNL     1       0.618  -1.067  -3.457  0.00  0.00    -0.268 N 
ATOM      5  H   UNL     1       1.457  -0.723  -1.097  0.00  0.00    +0.151 HD
ATOM      6  H   UNL     1       1.524  -1.392  -3.335  0.00  0.00    +0.156 HD
ENDROOT
BRANCH   4   7
ATOM      7  C   UNL     1       0.025  -1.102  -4.727  0.00  0.00    +0.048 A 
ATOM      8  C   UNL     1      -1.333  -1.350  -4.854  0.00  0.00    +0.024 A 
ATOM      9  C   UNL     1      -1.915  -1.384  -6.108  0.00  0.00    +0.002 A 
ATOM     10  C   UNL     1      -1.147  -1.172  -7.238  0.00  0.00    +0.001 A 
ATOM     11  C   UNL     1       0.208  -0.923  -7.121  0.00  0.00    +0.016 A 
ATOM     12  C   UNL     1       0.800  -0.881  -5.866  0.00  0.00    +0.029 A 
BRANCH  12  13
ATOM     13  S   UNL     1       2.525  -0.557  -5.713  0.00  0.00    -0.120 S 
BRANCH  13  14
ATOM     14  C   UNL     1       3.085  -0.342  -7.425  0.00  0.00    +0.051 C 
ATOM     15  C   UNL     1       2.992  -1.683  -8.184  0.00  0.00    +0.014 C 
ATOM     16  C   UNL     1       4.236  -1.683  -9.107  0.00  0.00    +0.001 C 
ATOM     17  C   UNL     1       5.322  -1.028  -8.218  0.00  0.00    +0.001 C 
ATOM     18  C   UNL     1       4.566   0.074  -7.447  0.00  0.00    +0.014 C 
ENDBRANCH  13  14
ENDBRANCH  12  13
ENDBRANCH   4   7
BRANCH   1  20
ATOM     19  C   UNL     1      -0.166   1.596  -0.078  0.00  0.00    +0.033 C 
ATOM     20  C   UNL     1      -0.220   0.067  -0.061  0.00  0.00    +0.102 C 
BRANCH  20  21
ATOM     21  C   UNL     1       0.391  -0.444   1.218  0.00  0.00    -0.026 A 
ATOM     22  C   UNL     1       1.767  -0.519   1.345  0.00  0.00    +0.005 A 
ATOM     23  C   UNL     1       2.331  -0.987   2.517  0.00  0.00    +0.002 A 
ATOM     24  C   UNL     1       1.523  -1.379   3.566  0.00  0.00    +0.023 A 
ATOM     25  C   UNL     1       0.142  -1.304   3.443  0.00  0.00    +0.034 A 
ATOM     26  C   UNL     1      -0.422  -0.829   2.265  0.00  0.00    +0.028 A 
BRANCH  25  27
ATOM     27  N   UNL     1      -0.680  -1.701   4.503  0.00  0.00    -0.286 N 
ATOM     28  C   UNL     1      -0.217  -1.654   5.768  0.00  0.00    +0.214 C 
ATOM     29  O   UNL     1       0.871  -1.169   5.999  0.00  0.00    -0.276 OA
ATOM     30  C   UNL     1      -1.051  -2.204   6.897  0.00  0.00    +0.109 C 
ATOM     31  H   UNL     1      -1.582  -2.011   4.328  0.00  0.00    +0.155 HD
ENDBRANCH  25  27
ENDBRANCH  20  21
ENDBRANCH   1  20
TORSDOF 6
