REMARK  Name = ZINC21498023
REMARK  6 active torsions:
REMARK  status: ('A' for Active; 'I' for Inactive)
REMARK    1  A    between atoms: C_1  and  C_2
REMARK    2  A    between atoms: C_10  and  C_13
REMARK    3  A    between atoms: C_13  and  O_14
REMARK    4  A    between atoms: O_14  and  C_15
REMARK    5  A    between atoms: C_15  and  C_17
REMARK    6  A    between atoms: C_20  and  C_23
REMARK                            x       y       z     vdW  Elec       q    Type
REMARK                         _______ _______ _______ _____ _____    ______ ____
ROOT
ATOM      1  O   UNL     1       2.320   4.256   0.002  0.00  0.00    -0.455 OA
ENDROOT
BRANCH   1   2
ATOM      2  C   UNL     1       1.163   3.567   0.010  0.00  0.00    +0.340 C 
ATOM      3  O   UNL     1       0.103   4.160   0.022  0.00  0.00    -0.245 OA
BRANCH   2   4
ATOM      4  C   UNL     1       1.183   2.088   0.002  0.00  0.00    +0.059 A 
ATOM      5  C   UNL     1      -0.017   1.374   0.010  0.00  0.00    +0.016 A 
ATOM      6  C   UNL     1       0.002  -0.004   0.002  0.00  0.00    +0.014 A 
ATOM      7  C   UNL     1       1.220  -0.685  -0.013  0.00  0.00    +0.037 A 
ATOM      8  C   UNL     1       2.419   0.028  -0.021  0.00  0.00    +0.014 A 
ATOM      9  C   UNL     1       2.401   1.406  -0.013  0.00  0.00    +0.016 A 
BRANCH   7  10
ATOM     10  C   UNL     1       1.240  -2.166  -0.021  0.00  0.00    +0.242 C 
ATOM     11  O   UNL     1       0.196  -2.787  -0.014  0.00  0.00    -0.270 OA
ATOM     12  N   UNL     1       2.416  -2.824  -0.036  0.00  0.00    -0.325 N 
ATOM     13  H   UNL     1       2.430  -3.924  -0.041  0.00  0.00    +0.145 HD
ATOM     14  H   UNL     1       3.361  -2.261  -0.042  0.00  0.00    +0.145 HD
ENDBRANCH   7  10
ENDBRANCH   2   4
ENDBRANCH   1   2
BRANCH   1  15
ATOM     15  C   UNL     1       2.225   5.705   0.011  0.00  0.00    +0.289 C 
BRANCH  15  25
ATOM     16  C   UNL     1       6.161   7.419  -2.557  0.00  0.00    +0.046 C 
ATOM     17  C   UNL     1       5.477   7.114  -1.249  0.00  0.00    -0.021 A 
ATOM     18  C   UNL     1       6.114   7.376  -0.022  0.00  0.00    +0.005 A 
ATOM     19  C   UNL     1       7.404   7.931   0.029  0.00  0.00    +0.010 A 
ATOM     20  C   UNL     1       7.986   8.169   1.236  0.00  0.00    +0.001 A 
ATOM     21  C   UNL     1       7.319   7.873   2.423  0.00  0.00    +0.002 A 
ATOM     22  C   UNL     1       6.069   7.335   2.411  0.00  0.00    +0.028 A 
ATOM     23  C   UNL     1       5.434   7.074   1.184  0.00  0.00    +0.072 A 
ATOM     24  N   UNL     1       4.205   6.551   1.141  0.00  0.00    -0.247 NA
ATOM     25  C   UNL     1       3.610   6.300   0.001  0.00  0.00    +0.098 A 
ATOM     26  C   UNL     1       4.222   6.574  -1.222  0.00  0.00    +0.069 A 
ATOM     27 CL   UNL     1       3.391   6.229  -2.707  0.00  0.00    -0.081 Cl
ENDBRANCH  15  25
ENDBRANCH   1  15
TORSDOF 5
