REMARK  Name = ZINC66187962
REMARK  8 active torsions:
REMARK  status: ('A' for Active; 'I' for Inactive)
REMARK    1  A    between atoms: C_1  and  C_2
REMARK    2  A    between atoms: C_5  and  C_28
REMARK    3  A    between atoms: N_8  and  C_10
REMARK    4  A    between atoms: C_10  and  C_11
REMARK    5  A    between atoms: C_10  and  C_12
REMARK    6  A    between atoms: C_10  and  C_13
REMARK    7  A    between atoms: C_13  and  N_14
REMARK    8  A    between atoms: C_20  and  N_23
REMARK                            x       y       z     vdW  Elec       q    Type
REMARK                         _______ _______ _______ _____ _____    ______ ____
ROOT
ATOM      1  N   UNL     1      -0.741  -2.466   3.618  0.00  0.00    -0.301 N 
ATOM      2  C   UNL     1      -1.618  -2.151   4.592  0.00  0.00    +0.302 C 
ATOM      3  O   UNL     1      -1.268  -1.449   5.521  0.00  0.00    -0.253 OA
ATOM      4  N   UNL     1      -2.882  -2.614   4.536  0.00  0.00    -0.287 N 
ATOM      5  C   UNL     1      -3.434  -3.474   3.479  0.00  0.00    +0.108 C 
ATOM      6  C   UNL     1      -4.903  -3.770   3.849  0.00  0.00    +0.005 C 
ATOM      7  C   UNL     1      -4.931  -3.526   5.381  0.00  0.00    -0.049 C 
ATOM      8  C   UNL     1      -3.939  -2.349   5.529  0.00  0.00    +0.094 C 
ATOM      9  H   UNL     1      -1.020  -3.026   2.877  0.00  0.00    +0.150 HD
ENDROOT
BRANCH   7  10
ATOM     10  N   UNL     1      -6.277  -3.145   5.829  0.00  0.00    +0.383 N 
ATOM     11  C   UNL     1      -7.231  -4.258   5.589  0.00  0.00    -0.078 C 
ATOM     12  C   UNL     1      -8.385  -3.955   6.578  0.00  0.00    -0.020 C 
ATOM     13  C   UNL     1      -7.642  -3.411   7.819  0.00  0.00    -0.020 C 
ATOM     14  C   UNL     1      -6.282  -2.918   7.291  0.00  0.00    -0.078 C 
ATOM     15  H   UNL     1      -6.582  -2.313   5.347  0.00  0.00    -0.081 HD
ENDBRANCH   7  10
BRANCH   1  16
ATOM     16  C   UNL     1       0.633  -1.963   3.678  0.00  0.00    +0.093 C 
BRANCH  16  17
ATOM     17  C   UNL     1       1.413  -2.463   2.461  0.00  0.00    -0.055 C 
ATOM     18  C   UNL     1       1.431  -3.993   2.459  0.00  0.00    -0.008 C 
ATOM     19  C   UNL     1       2.849  -1.937   2.524  0.00  0.00    -0.008 C 
BRANCH  17  25
ATOM     20  C   UNL     1      -0.019   1.526   0.010  0.00  0.00    +0.005 C 
ATOM     21  C   UNL     1       0.002  -0.004   0.002  0.00  0.00    -0.031 C 
ATOM     22  C   UNL     1       0.721  -0.499  -1.257  0.00  0.00    +0.003 C 
ATOM     23  C   UNL     1       0.805  -2.027  -1.217  0.00  0.00    -0.031 C 
ATOM     24  C   UNL     1       1.518  -2.460   0.066  0.00  0.00    -0.075 C 
ATOM     25  N   UNL     1       0.768  -1.979   1.233  0.00  0.00    +0.384 N 
ATOM     26  C   UNL     1       0.744  -0.512   1.240  0.00  0.00    -0.075 C 
ATOM     27  C   UNL     1      -0.606  -2.618  -1.242  0.00  0.00    +0.005 C 
ATOM     28  H   UNL     1      -0.177  -2.330   1.192  0.00  0.00    -0.081 HD
ENDBRANCH  17  25
ENDBRANCH  16  17
ENDBRANCH   1  16
TORSDOF 4
