REMARK  Name = ZINC09346899
REMARK  13 active torsions:
REMARK  status: ('A' for Active; 'I' for Inactive)
REMARK    1  A    between atoms: C_1  and  C_2
REMARK    2  A    between atoms: C_2  and  O_3
REMARK    3  A    between atoms: O_3  and  C_4
REMARK    4  A    between atoms: C_4  and  C_6
REMARK    5  A    between atoms: C_10  and  N_11
REMARK    6  A    between atoms: C_12  and  C_14
REMARK    7  A    between atoms: C_19  and  S_20
REMARK    8  A    between atoms: S_20  and  C_21
REMARK    9  A    between atoms: C_21  and  C_22
REMARK   10  A    between atoms: C_23  and  C_28
REMARK   11  A    between atoms: C_23  and  C_29
REMARK   12  A    between atoms: C_24  and  C_26
REMARK   13  A    between atoms: C_24  and  C_27
REMARK                            x       y       z     vdW  Elec       q    Type
REMARK                         _______ _______ _______ _____ _____    ______ ____
ROOT
ATOM      1  C   UNL     1      -4.114   1.042  -0.438  0.00  0.00    +0.091 A 
ATOM      2  C   UNL     1      -2.974   1.643   0.227  0.00  0.00    -0.024 A 
ATOM      3  C   UNL     1      -2.666   2.898  -0.169  0.00  0.00    -0.016 A 
ATOM      4  S   UNL     1      -3.872   3.290  -1.403  0.00  0.00    -0.079 S 
ATOM      5  C   UNL     1      -4.769   1.807  -1.398  0.00  0.00    +0.086 A 
ATOM      6  C   UNL     1      -1.544   3.746   0.340  0.00  0.00    -0.041 C 
ATOM      7  C   UNL     1      -0.729   1.579   1.268  0.00  0.00    -0.069 C 
ATOM      8  C   UNL     1      -2.139   0.981   1.314  0.00  0.00    +0.024 C 
ATOM      9  C   UNL     1      -0.013   1.086   0.008  0.00  0.00    -0.010 C 
ATOM     10  C   UNL     1       0.048   1.047   2.488  0.00  0.00    -0.010 C 
ATOM     11  C   UNL     1      -2.153   4.999   1.001  0.00  0.00    -0.005 C 
ATOM     12  C   UNL     1      -0.672   4.209  -0.833  0.00  0.00    -0.005 C 
ATOM     13  N   UNL     1      -0.719   3.061   1.374  0.00  0.00    +0.389 N 
ATOM     14  H   UNL     1      -1.078   3.321   2.300  0.00  0.00    -0.084 HD
ATOM     15  H   UNL     1       0.251   3.385   1.280  0.00  0.00    -0.084 HD
ENDROOT
BRANCH   5  16
ATOM     16  N   UNL     1      -5.870   1.464  -2.164  0.00  0.00    -0.275 N 
ATOM     17  C   UNL     1      -6.372   2.343  -3.054  0.00  0.00    +0.250 C 
ATOM     18  O   UNL     1      -5.859   3.437  -3.184  0.00  0.00    -0.270 OA
ATOM     19  H   UNL     1      -6.280   0.591  -2.061  0.00  0.00    +0.156 HD
BRANCH  17  20
ATOM     20  C   UNL     1      -7.544   1.977  -3.869  0.00  0.00    +0.050 A 
ATOM     21  C   UNL     1      -8.135   0.719  -3.727  0.00  0.00    +0.014 A 
ATOM     22  C   UNL     1      -9.233   0.385  -4.489  0.00  0.00    +0.001 A 
ATOM     23  C   UNL     1      -9.751   1.288  -5.405  0.00  0.00    +0.001 A 
ATOM     24  C   UNL     1      -9.177   2.532  -5.560  0.00  0.00    +0.015 A 
ATOM     25  C   UNL     1      -8.072   2.890  -4.797  0.00  0.00    +0.020 A 
BRANCH  25  26
ATOM     26  S   UNL     1      -7.335   4.479  -4.994  0.00  0.00    -0.125 S 
BRANCH  26  27
ATOM     27  C   UNL     1      -8.344   5.274  -6.275  0.00  0.00    +0.071 C 
ATOM     28  C   UNL     1      -7.807   6.681  -6.547  0.00  0.00    +0.015 C 
ENDBRANCH  26  27
ENDBRANCH  25  26
ENDBRANCH  17  20
ENDBRANCH   5  16
BRANCH   1  29
ATOM     29  C   UNL     1      -4.568  -0.312  -0.116  0.00  0.00    +0.342 C 
ATOM     30  O   UNL     1      -5.395  -0.484   0.759  0.00  0.00    -0.245 OA
BRANCH  29  31
ATOM     31  O   UNL     1      -4.070  -1.369  -0.790  0.00  0.00    -0.461 OA
BRANCH  31  33
ATOM     32  C   UNL     1      -3.891  -3.746  -1.286  0.00  0.00    +0.048 C 
ATOM     33  C   UNL     1      -4.566  -2.681  -0.418  0.00  0.00    +0.229 C 
ENDBRANCH  31  33
ENDBRANCH  29  31
ENDBRANCH   1  29
TORSDOF 7
