REMARK  Name = ZINC45538045
REMARK  8 active torsions:
REMARK  status: ('A' for Active; 'I' for Inactive)
REMARK    1  A    between atoms: C_1  and  C_2
REMARK    2  A    between atoms: C_5  and  N_8
REMARK    3  A    between atoms: C_9  and  C_28
REMARK    4  A    between atoms: C_12  and  S_13
REMARK    5  A    between atoms: S_13  and  C_14
REMARK    6  A    between atoms: C_14  and  C_15
REMARK    7  A    between atoms: C_33  and  O_34
REMARK    8  A    between atoms: O_34  and  C_35
REMARK                            x       y       z     vdW  Elec       q    Type
REMARK                         _______ _______ _______ _____ _____    ______ ____
ROOT
ATOM      1  N   UNL     1       0.031  -4.174  -0.070  0.00  0.00    -0.270 N 
ATOM      2  C   UNL     1      -0.879  -5.021   0.523  0.00  0.00    +0.173 A 
ATOM      3  N   UNL     1      -0.443  -6.246   0.336  0.00  0.00    -0.128 NA
ATOM      4  N   UNL     1       0.660  -6.224  -0.322  0.00  0.00    -0.122 NA
ATOM      5  C   UNL     1       0.996  -4.985  -0.603  0.00  0.00    +0.197 A 
ENDROOT
BRANCH   1  10
ATOM      6  C   UNL     1      -0.187   1.494  -0.277  0.00  0.00    +0.044 C 
ATOM      7  C   UNL     1      -0.130  -0.011  -0.222  0.00  0.00    -0.050 A 
ATOM      8  C   UNL     1      -0.267  -0.750  -1.383  0.00  0.00    +0.005 A 
ATOM      9  C   UNL     1      -0.214  -2.129  -1.335  0.00  0.00    +0.026 A 
ATOM     10  C   UNL     1      -0.023  -2.774  -0.121  0.00  0.00    +0.051 A 
ATOM     11  C   UNL     1       0.115  -2.029   1.043  0.00  0.00    +0.026 A 
ATOM     12  C   UNL     1       0.066  -0.650   0.988  0.00  0.00    +0.005 A 
ENDBRANCH   1  10
BRANCH   2  13
ATOM     13  C   UNL     1      -2.113  -4.627   1.234  0.00  0.00    +0.061 A 
ATOM     14  C   UNL     1      -2.985  -3.699   0.664  0.00  0.00    +0.015 A 
ATOM     15  C   UNL     1      -4.136  -3.335   1.333  0.00  0.00    +0.001 A 
ATOM     16  C   UNL     1      -4.428  -3.887   2.568  0.00  0.00    +0.004 A 
ATOM     17  C   UNL     1      -3.572  -4.807   3.143  0.00  0.00    +0.046 A 
ATOM     18  C   UNL     1      -2.416  -5.187   2.481  0.00  0.00    +0.131 A 
BRANCH  18  19
ATOM     19  O   UNL     1      -1.577  -6.096   3.043  0.00  0.00    -0.494 OA
ATOM     20  C   UNL     1      -1.951  -6.625   4.316  0.00  0.00    +0.277 C 
ENDBRANCH  18  19
ENDBRANCH   2  13
BRANCH   5  21
ATOM     21  S   UNL     1       2.423  -4.465  -1.495  0.00  0.00    -0.078 S 
BRANCH  21  22
ATOM     22  C   UNL     1       3.269  -6.015  -1.912  0.00  0.00    +0.151 C 
BRANCH  22  23
ATOM     23  C   UNL     1       4.524  -5.710  -2.688  0.00  0.00    +0.121 A 
ATOM     24  N   UNL     1       5.297  -6.749  -3.098  0.00  0.00    -0.310 N 
ATOM     25  H   UNL     1       5.032  -7.658  -2.888  0.00  0.00    +0.170 HD
ATOM     26  C   UNL     1       6.434  -6.527  -3.798  0.00  0.00    +0.259 A 
ATOM     27  O   UNL     1       7.136  -7.449  -4.172  0.00  0.00    -0.267 OA
ATOM     28  C   UNL     1       6.789  -5.130  -4.089  0.00  0.00    +0.066 A 
ATOM     29  C   UNL     1       7.938  -4.795  -4.802  0.00  0.00    +0.035 A 
ATOM     30  C   UNL     1       8.223  -3.468  -5.046  0.00  0.00    +0.042 A 
ATOM     31  C   UNL     1       7.374  -2.468  -4.587  0.00  0.00    +0.022 A 
ATOM     32  C   UNL     1       6.234  -2.779  -3.881  0.00  0.00    +0.030 A 
ATOM     33  C   UNL     1       5.924  -4.116  -3.622  0.00  0.00    +0.078 A 
ATOM     34  N   UNL     1       4.809  -4.467  -2.934  0.00  0.00    -0.233 NA
ATOM     35 CL   UNL     1       9.653  -3.044  -5.934  0.00  0.00    -0.084 Cl
ENDBRANCH  22  23
ENDBRANCH  21  22
ENDBRANCH   5  21
TORSDOF 6
