REMARK  Name = ZINC67247491
REMARK  8 active torsions:
REMARK  status: ('A' for Active; 'I' for Inactive)
REMARK    1  A    between atoms: C_3  and  N_24
REMARK    2  A    between atoms: C_6  and  C_7
REMARK    3  A    between atoms: C_7  and  N_8
REMARK    4  A    between atoms: N_8  and  C_9
REMARK    5  A    between atoms: C_9  and  C_10
REMARK    6  A    between atoms: C_13  and  N_16
REMARK    7  A    between atoms: C_19  and  C_22
REMARK    8  A    between atoms: C_22  and  O_23
REMARK                            x       y       z     vdW  Elec       q    Type
REMARK                         _______ _______ _______ _____ _____    ______ ____
ROOT
ATOM      1  N   UNL     1      -1.564  -0.865  -1.189  0.00  0.00    +0.384 N 
ATOM      2  H   UNL     1      -1.665   0.056  -1.588  0.00  0.00    -0.085 HD
ATOM      3  H   UNL     1      -0.782  -1.334  -1.620  0.00  0.00    -0.085 HD
ENDROOT
BRANCH   1   4
ATOM      4  C   UNL     1      -1.330  -0.750   0.256  0.00  0.00    -0.046 C 
BRANCH   4  10
ATOM      5  C   UNL     1      -0.139   1.418   0.635  0.00  0.00    +0.003 A 
ATOM      6  C   UNL     1       1.012   2.148   0.859  0.00  0.00    +0.023 A 
ATOM      7  C   UNL     1       2.237   1.500   0.949  0.00  0.00    +0.030 A 
ATOM      8  C   UNL     1       2.300   0.119   0.812  0.00  0.00    +0.023 A 
ATOM      9  C   UNL     1       1.146  -0.605   0.589  0.00  0.00    +0.003 A 
ATOM     10  C   UNL     1      -0.072   0.043   0.500  0.00  0.00    -0.064 A 
BRANCH   7  11
ATOM     11  N   UNL     1       3.403   2.235   1.174  0.00  0.00    -0.330 N 
ATOM     12  C   UNL     1       4.687   1.555   1.391  0.00  0.00    +0.105 C 
ATOM     13  C   UNL     1       5.714   2.114   0.401  0.00  0.00    +0.019 C 
ATOM     14  C   UNL     1       5.777   3.636   0.544  0.00  0.00    +0.003 C 
ATOM     15  C   UNL     1       4.410   4.239   0.213  0.00  0.00    +0.019 C 
ATOM     16  C   UNL     1       3.369   3.704   1.194  0.00  0.00    +0.105 C 
ENDBRANCH   7  11
ENDBRANCH   4  10
ENDBRANCH   1   4
BRANCH   1  17
ATOM     17  C   UNL     1      -2.791  -1.639  -1.427  0.00  0.00    -0.046 C 
BRANCH  17  18
ATOM     18  C   UNL     1      -3.031  -1.756  -2.910  0.00  0.00    -0.064 A 
ATOM     19  C   UNL     1      -3.778  -0.796  -3.566  0.00  0.00    +0.003 A 
ATOM     20  C   UNL     1      -4.000  -0.901  -4.925  0.00  0.00    +0.023 A 
ATOM     21  C   UNL     1      -3.471  -1.973  -5.633  0.00  0.00    +0.030 A 
ATOM     22  C   UNL     1      -2.721  -2.936  -4.971  0.00  0.00    +0.023 A 
ATOM     23  C   UNL     1      -2.498  -2.822  -3.612  0.00  0.00    +0.003 A 
BRANCH  21  24
ATOM     24  N   UNL     1      -3.694  -2.082  -7.008  0.00  0.00    -0.330 N 
ATOM     25  C   UNL     1      -3.256  -3.276  -7.744  0.00  0.00    +0.105 C 
ATOM     26  C   UNL     1      -4.452  -3.848  -8.512  0.00  0.00    +0.024 C 
ATOM     27  C   UNL     1      -5.058  -2.753  -9.393  0.00  0.00    +0.017 C 
ATOM     28  C   UNL     1      -5.555  -1.604  -8.512  0.00  0.00    +0.024 C 
ATOM     29  C   UNL     1      -4.377  -1.009  -7.743  0.00  0.00    +0.105 C 
BRANCH  27  30
ATOM     30  C   UNL     1      -6.231  -3.329 -10.188  0.00  0.00    +0.159 C 
BRANCH  30  31
ATOM     31  O   UNL     1      -6.723  -2.341 -11.095  0.00  0.00    -0.395 OA
ATOM     32  H   UNL     1      -7.470  -2.638 -11.634  0.00  0.00    +0.209 HD
ENDBRANCH  30  31
ENDBRANCH  27  30
ENDBRANCH  21  24
ENDBRANCH  17  18
ENDBRANCH   1  17
TORSDOF 8
