REMARK  Name = ZINC66191989
REMARK  8 active torsions:
REMARK  status: ('A' for Active; 'I' for Inactive)
REMARK    1  A    between atoms: C_1  and  C_2
REMARK    2  A    between atoms: C_2  and  C_3
REMARK    3  A    between atoms: C_3  and  N_4
REMARK    4  A    between atoms: C_7  and  N_10
REMARK    5  A    between atoms: N_10  and  C_11
REMARK    6  A    between atoms: N_14  and  C_15
REMARK    7  A    between atoms: N_18  and  C_21
REMARK    8  A    between atoms: C_21  and  C_22
REMARK                            x       y       z     vdW  Elec       q    Type
REMARK                         _______ _______ _______ _____ _____    ______ ____
ROOT
ATOM      1  N   UNL     1      -1.315  -7.075   0.043  0.00  0.00    -0.286 N 
ATOM      2  C   UNL     1      -0.719  -7.913  -1.000  0.00  0.00    +0.134 C 
ATOM      3  C   UNL     1      -1.979  -7.645   1.067  0.00  0.00    +0.302 C 
ATOM      4  O   UNL     1      -2.474  -6.949   1.933  0.00  0.00    -0.253 OA
ATOM      5  N   UNL     1      -2.095  -8.986   1.133  0.00  0.00    -0.297 N 
ATOM      6  H   UNL     1      -1.700  -9.541   0.442  0.00  0.00    +0.151 HD
ENDROOT
BRANCH   1  10
ATOM      7  N   UNL     1      -0.184  -3.294  -1.437  0.00  0.00    +0.380 N 
ATOM      8  C   UNL     1       0.418  -3.712  -0.165  0.00  0.00    -0.077 C 
ATOM      9  C   UNL     1       0.292  -5.229  -0.011  0.00  0.00    +0.004 C 
ATOM     10  C   UNL     1      -1.190  -5.617  -0.028  0.00  0.00    +0.074 C 
ATOM     11  C   UNL     1      -1.825  -5.111  -1.327  0.00  0.00    +0.004 C 
ATOM     12  C   UNL     1      -1.620  -3.598  -1.432  0.00  0.00    -0.077 C 
ATOM     13  H   UNL     1       0.261  -3.788  -2.196  0.00  0.00    -0.082 HD
BRANCH   7  14
ATOM     14  C   UNL     1       0.009  -1.849  -1.617  0.00  0.00    -0.079 C 
BRANCH  14  16
ATOM     15  C   UNL     1       1.703  -0.040  -1.934  0.00  0.00    +0.002 C 
ATOM     16  C   UNL     1       1.502  -1.546  -1.747  0.00  0.00    -0.022 C 
ENDBRANCH  14  16
ENDBRANCH   7  14
ENDBRANCH   1  10
BRANCH   5  17
ATOM     17  C   UNL     1      -2.817  -9.606   2.247  0.00  0.00    +0.071 C 
ATOM     18  C   UNL     1      -4.314  -9.649   1.926  0.00  0.00    +0.004 C 
ATOM     19  C   UNL     1      -5.051 -10.368   3.057  0.00  0.00    -0.077 C 
ATOM     20  N   UNL     1      -4.538 -11.737   3.188  0.00  0.00    +0.383 N 
ATOM     21  C   UNL     1      -3.120 -11.703   3.566  0.00  0.00    -0.077 C 
ATOM     22  C   UNL     1      -2.308 -11.035   2.455  0.00  0.00    +0.004 C 
ATOM     23  H   UNL     1      -4.639 -12.219   2.308  0.00  0.00    -0.082 HD
BRANCH  20  24
ATOM     24  C   UNL     1      -5.302 -12.448   4.222  0.00  0.00    -0.006 C 
BRANCH  24  25
ATOM     25  C   UNL     1      -6.740 -12.654   3.743  0.00  0.00    +0.325 C 
ATOM     26  F   UNL     1      -7.379 -11.414   3.641  0.00  0.00    -0.211 F 
ATOM     27  F   UNL     1      -6.730 -13.277   2.491  0.00  0.00    -0.211 F 
ENDBRANCH  24  25
ENDBRANCH  20  24
ENDBRANCH   5  17
TORSDOF 6
