REMARK  Name = ZINC00565790
REMARK  7 active torsions:
REMARK  status: ('A' for Active; 'I' for Inactive)
REMARK    1  A    between atoms: C_1  and  C_2
REMARK    2  A    between atoms: C_7  and  C_8
REMARK    3  A    between atoms: N_9  and  N_10
REMARK    4  A    between atoms: C_11  and  C_13
REMARK    5  A    between atoms: C_13  and  O_14
REMARK    6  A    between atoms: O_14  and  C_15
REMARK    7  A    between atoms: C_18  and  C_21
REMARK                            x       y       z     vdW  Elec       q    Type
REMARK                         _______ _______ _______ _____ _____    ______ ____
ROOT
ATOM      1  C   UNL     1      -7.094   0.357  -1.123  0.00  0.00    +0.326 C 
ENDROOT
BRANCH   1   3
ATOM      2  N   UNL     1      -4.658   0.626  -0.789  0.00  0.00    -0.204 N 
ATOM      3  C   UNL     1      -5.874   1.202  -0.864  0.00  0.00    +0.270 C 
ATOM      4  O   UNL     1      -5.987   2.402  -0.723  0.00  0.00    -0.270 OA
ATOM      5  H   UNL     1      -4.568  -0.333  -0.902  0.00  0.00    +0.177 HD
BRANCH   2   7
ATOM      6  C   UNL     1      -2.353   0.858  -0.477  0.00  0.00    +0.138 C 
ATOM      7  N   UNL     1      -3.524   1.413  -0.549  0.00  0.00    -0.188 NA
BRANCH   6  14
ATOM      8  C   UNL     1      -2.665   3.674   0.107  0.00  0.00    +0.044 C 
ATOM      9  C   UNL     1      -1.296   3.046   0.060  0.00  0.00    -0.042 A 
ATOM     10  C   UNL     1      -0.174   3.816   0.290  0.00  0.00    +0.004 A 
ATOM     11  C   UNL     1       1.084   3.241   0.247  0.00  0.00    +0.000 A 
ATOM     12  C   UNL     1       1.226   1.892  -0.027  0.00  0.00    +0.001 A 
ATOM     13  C   UNL     1       0.114   1.111  -0.260  0.00  0.00    +0.010 A 
ATOM     14  C   UNL     1      -1.159   1.686  -0.224  0.00  0.00    -0.003 A 
ENDBRANCH   6  14
ENDBRANCH   2   7
ENDBRANCH   1   3
BRANCH   1  15
ATOM     15  O   UNL     1      -8.254   1.191  -1.157  0.00  0.00    -0.483 OA
BRANCH  15  16
ATOM     16  C   UNL     1      -9.447   0.581  -1.382  0.00  0.00    +0.121 A 
ATOM     17  C   UNL     1      -9.496  -0.794  -1.572  0.00  0.00    +0.046 A 
ATOM     18  C   UNL     1     -10.706  -1.417  -1.795  0.00  0.00    +0.012 A 
ATOM     19  C   UNL     1     -11.878  -0.664  -1.841  0.00  0.00    -0.018 A 
ATOM     20  C   UNL     1     -11.824   0.716  -1.656  0.00  0.00    +0.012 A 
ATOM     21  C   UNL     1     -10.612   1.333  -1.428  0.00  0.00    +0.046 A 
BRANCH  19  22
ATOM     22  C   UNL     1     -13.181  -1.331  -2.087  0.00  0.00    -0.018 A 
ATOM     23  C   UNL     1     -14.354  -0.580  -2.129  0.00  0.00    +0.008 A 
ATOM     24  C   UNL     1     -15.562  -1.204  -2.363  0.00  0.00    +0.001 A 
ATOM     25  C   UNL     1     -15.611  -2.575  -2.546  0.00  0.00    +0.000 A 
ATOM     26  C   UNL     1     -14.450  -3.326  -2.501  0.00  0.00    +0.001 A 
ATOM     27  C   UNL     1     -13.236  -2.711  -2.273  0.00  0.00    +0.008 A 
ENDBRANCH  19  22
ENDBRANCH  15  16
ENDBRANCH   1  15
TORSDOF 6
