REMARK  Name = ZINC09666044
REMARK  9 active torsions:
REMARK  status: ('A' for Active; 'I' for Inactive)
REMARK    1  A    between atoms: C_1  and  C_2
REMARK    2  A    between atoms: C_2  and  C_3
REMARK    3  A    between atoms: C_6  and  N_9
REMARK    4  A    between atoms: C_10  and  C_27
REMARK    5  A    between atoms: C_13  and  S_14
REMARK    6  A    between atoms: S_14  and  C_15
REMARK    7  A    between atoms: C_15  and  C_16
REMARK    8  A    between atoms: N_18  and  C_19
REMARK    9  A    between atoms: C_24  and  C_25
REMARK                            x       y       z     vdW  Elec       q    Type
REMARK                         _______ _______ _______ _____ _____    ______ ____
ROOT
ATOM      1  N   UNL     1      -1.452  -2.286   0.131  0.00  0.00    -0.270 N 
ATOM      2  C   UNL     1      -1.579  -0.915   0.087  0.00  0.00    +0.169 A 
ATOM      3  N   UNL     1      -2.854  -0.651  -0.083  0.00  0.00    -0.128 NA
ATOM      4  N   UNL     1      -3.525  -1.745  -0.144  0.00  0.00    -0.122 NA
ATOM      5  C   UNL     1      -2.720  -2.778  -0.015  0.00  0.00    +0.197 A 
ENDROOT
BRANCH   1   9
ATOM      6  C   UNL     1       2.060  -4.479   0.615  0.00  0.00    -0.047 A 
ATOM      7  C   UNL     1       1.104  -4.478   1.614  0.00  0.00    +0.005 A 
ATOM      8  C   UNL     1      -0.061  -3.753   1.456  0.00  0.00    +0.026 A 
ATOM      9  C   UNL     1      -0.271  -3.024   0.294  0.00  0.00    +0.051 A 
ATOM     10  C   UNL     1       0.688  -3.031  -0.710  0.00  0.00    +0.026 A 
ATOM     11  C   UNL     1       1.854  -3.753  -0.544  0.00  0.00    +0.005 A 
BRANCH   6  13
ATOM     12  C   UNL     1       3.126  -6.687   0.244  0.00  0.00    +0.009 C 
ATOM     13  C   UNL     1       3.329  -5.272   0.790  0.00  0.00    +0.032 C 
ENDBRANCH   6  13
ENDBRANCH   1   9
BRANCH   2  14
ATOM     14  C   UNL     1      -0.486   0.072   0.205  0.00  0.00    +0.022 A 
ATOM     15  C   UNL     1       0.758  -0.291   0.736  0.00  0.00    +0.031 A 
ATOM     16  C   UNL     1       1.750   0.663   0.826  0.00  0.00    +0.111 A 
ATOM     17  N   UNL     1       1.539   1.901   0.421  0.00  0.00    -0.263 NA
ATOM     18  C   UNL     1       0.383   2.285  -0.085  0.00  0.00    +0.111 A 
ATOM     19  C   UNL     1      -0.665   1.397  -0.212  0.00  0.00    +0.031 A 
ENDBRANCH   2  14
BRANCH   5  20
ATOM     20  S   UNL     1      -3.187  -4.476  -0.035  0.00  0.00    -0.076 S 
BRANCH  20  21
ATOM     21  C   UNL     1      -4.973  -4.309  -0.271  0.00  0.00    +0.173 C 
BRANCH  21  22
ATOM     22  C   UNL     1      -5.604  -5.676  -0.320  0.00  0.00    +0.227 C 
ATOM     23  O   UNL     1      -4.914  -6.667  -0.207  0.00  0.00    -0.275 OA
ATOM     24  N   UNL     1      -6.936  -5.799  -0.489  0.00  0.00    -0.285 N 
ATOM     25  H   UNL     1      -7.479  -5.011  -0.647  0.00  0.00    +0.155 HD
BRANCH  24  26
ATOM     26  C   UNL     1      -7.534  -7.062  -0.437  0.00  0.00    +0.038 A 
ATOM     27  C   UNL     1      -6.848  -8.177  -0.900  0.00  0.00    +0.023 A 
ATOM     28  C   UNL     1      -7.441  -9.423  -0.847  0.00  0.00    +0.003 A 
ATOM     29  C   UNL     1      -8.717  -9.562  -0.334  0.00  0.00    +0.020 A 
ATOM     30  C   UNL     1      -9.404  -8.454   0.129  0.00  0.00    +0.046 A 
ATOM     31  C   UNL     1      -8.814  -7.205   0.083  0.00  0.00    -0.011 A 
ATOM     32  C   UNL     1      -9.559  -5.998   0.593  0.00  0.00    +0.047 C 
ATOM     33 CL   UNL     1     -11.006  -8.633   0.773  0.00  0.00    -0.083 Cl
ENDBRANCH  24  26
ENDBRANCH  21  22
ENDBRANCH  20  21
ENDBRANCH   5  20
TORSDOF 7
