REMARK  Name = ZINC06232578
REMARK  7 active torsions:
REMARK  status: ('A' for Active; 'I' for Inactive)
REMARK    1  A    between atoms: C_1  and  C_2
REMARK    2  A    between atoms: C_2  and  C_28
REMARK    3  A    between atoms: C_6  and  C_16
REMARK    4  A    between atoms: C_11  and  O_15
REMARK    5  A    between atoms: C_22  and  S_24
REMARK    6  A    between atoms: S_24  and  C_25
REMARK    7  A    between atoms: C_25  and  C_26
REMARK                            x       y       z     vdW  Elec       q    Type
REMARK                         _______ _______ _______ _____ _____    ______ ____
ROOT
ATOM      1  C   UNL     1       6.821  -4.006  -0.933  0.00  0.00    +0.034 C 
ATOM      2  C   UNL     1       5.312  -3.912  -0.633  0.00  0.00    +0.040 C 
ATOM      3  C   UNL     1       5.030  -2.543  -0.035  0.00  0.00    +0.096 C 
ATOM      4  C   UNL     1       3.643  -2.008  -0.376  0.00  0.00    +0.180 C 
ATOM      5  C   UNL     1       2.570  -2.716   0.454  0.00  0.00    +0.082 C 
ATOM      6  C   UNL     1       1.194  -2.199   0.012  0.00  0.00    +0.065 C 
ATOM      7  C   UNL     1       1.203  -0.693  -0.001  0.00  0.00    +0.003 A 
ATOM      8  C   UNL     1       0.002  -0.004   0.002  0.00  0.00    +0.011 A 
ATOM      9  C   UNL     1      -0.017   1.379   0.010  0.00  0.00    +0.046 A 
ATOM     10  C   UNL     1       1.179   2.087   0.002  0.00  0.00    +0.120 A 
ATOM     11  C   UNL     1       2.381   1.401  -0.016  0.00  0.00    +0.091 A 
ATOM     12  C   UNL     1       2.396   0.010  -0.024  0.00  0.00    +0.131 A 
ATOM     13  O   UNL     1       3.600  -0.613  -0.052  0.00  0.00    -0.468 OA
ATOM     14  N   UNL     1       3.369  -2.182  -1.803  0.00  0.00    -0.288 N 
ATOM     15  C   UNL     1       3.752  -3.349  -2.417  0.00  0.00    +0.131 C 
ATOM     16  N   UNL     1       4.596  -4.155  -1.874  0.00  0.00    -0.363 N 
ATOM     17  C   UNL     1       4.972  -5.009   0.382  0.00  0.00    +0.034 C 
ATOM     18  H   UNL     1       2.863  -1.384  -2.367  0.00  0.00    +0.152 HD
ATOM     19  H   UNL     1       4.826  -5.118  -2.354  0.00  0.00    +0.162 HD
ENDROOT
BRANCH   6  20
ATOM     20  C   UNL     1       0.157  -2.703   0.983  0.00  0.00    -0.003 A 
ATOM     21  C   UNL     1      -0.927  -3.482   0.747  0.00  0.00    +0.012 A 
ATOM     22  C   UNL     1      -1.748  -3.827   1.804  0.00  0.00    +0.008 A 
ATOM     23  C   UNL     1      -1.451  -3.368   3.044  0.00  0.00    +0.045 A 
ATOM     24  S   UNL     1       0.033  -2.422   2.742  0.00  0.00    -0.101 S 
ENDBRANCH   6  20
BRANCH  10  25
ATOM     25  O   UNL     1       1.167   3.445   0.018  0.00  0.00    -0.507 OA
ATOM     26  H   UNL     1       2.115   4.004   0.012  0.00  0.00    +0.292 HD
ENDBRANCH  10  25
BRANCH  15  27
ATOM     27  S   UNL     1       3.067  -3.753  -3.989  0.00  0.00    -0.089 S 
BRANCH  27  28
ATOM     28  C   UNL     1       3.897  -5.332  -4.297  0.00  0.00    +0.103 C 
BRANCH  28  29
ATOM     29  C   UNL     1       3.451  -5.883  -5.627  0.00  0.00    -0.023 C 
ATOM     30  C   UNL     1       4.313  -6.008  -6.606  0.00  0.00    +0.005 C 
ENDBRANCH  28  29
ENDBRANCH  27  28
ENDBRANCH  15  27
TORSDOF 5
