REMARK  Name = ZINC12532529
REMARK  10 active torsions:
REMARK  status: ('A' for Active; 'I' for Inactive)
REMARK    1  A    between atoms: C_1  and  C_2
REMARK    2  A    between atoms: C_5  and  N_9
REMARK    3  A    between atoms: C_6  and  C_8
REMARK    4  A    between atoms: N_9  and  S_10
REMARK    5  A    between atoms: S_10  and  C_13
REMARK    6  A    between atoms: C_16  and  N_22
REMARK    7  A    between atoms: C_17  and  N_19
REMARK    8  A    between atoms: N_22  and  N_23
REMARK    9  A    between atoms: C_24  and  C_25
REMARK   10  A    between atoms: C_24  and  C_26
REMARK                            x       y       z     vdW  Elec       q    Type
REMARK                         _______ _______ _______ _____ _____    ______ ____
ROOT
ATOM      1  C   UNL     1       1.414   2.988   1.218  0.00  0.00    +0.111 A 
ATOM      2  C   UNL     1       0.937   4.286   1.268  0.00  0.00    +0.031 A 
ATOM      3  C   UNL     1       1.083   5.033   2.420  0.00  0.00    +0.029 A 
ATOM      4  C   UNL     1       1.719   4.483   3.527  0.00  0.00    +0.079 A 
ATOM      5  C   UNL     1       2.202   3.181   3.471  0.00  0.00    +0.150 A 
ATOM      6  C   UNL     1       2.048   2.438   2.317  0.00  0.00    +0.063 A 
ENDROOT
BRANCH   1   7
ATOM      7  S   UNL     1       1.220   2.037  -0.252  0.00  0.00    +0.072 S 
ATOM      8  O   UNL     1       2.239   1.046  -0.232  0.00  0.00    -0.150 OA
ATOM      9  O   UNL     1       1.080   2.964  -1.320  0.00  0.00    -0.150 OA
BRANCH   7  10
ATOM     10  N   UNL     1      -0.223   1.234  -0.129  0.00  0.00    -0.216 N 
ATOM     11  H   UNL     1      -0.241   0.264  -0.149  0.00  0.00    +0.174 HD
BRANCH  10  16
ATOM     12  C   UNL     1      -5.059   4.152   0.378  0.00  0.00    +0.044 C 
ATOM     13  C   UNL     1      -3.773   3.377   0.244  0.00  0.00    -0.050 A 
ATOM     14  C   UNL     1      -2.749   3.870  -0.544  0.00  0.00    +0.005 A 
ATOM     15  C   UNL     1      -1.570   3.162  -0.670  0.00  0.00    +0.025 A 
ATOM     16  C   UNL     1      -1.413   1.953  -0.004  0.00  0.00    +0.051 A 
ATOM     17  C   UNL     1      -2.446   1.458   0.783  0.00  0.00    -0.028 A 
ATOM     18  C   UNL     1      -3.620   2.174   0.909  0.00  0.00    +0.008 A 
ATOM     19  C   UNL     1      -2.282   0.144   1.503  0.00  0.00    +0.046 C 
ENDBRANCH  10  16
ENDBRANCH   7  10
ENDBRANCH   1   7
BRANCH   5  20
ATOM     20  N   UNL     1       2.881   2.591   4.647  0.00  0.00    +0.058 N 
ATOM     21  O   UNL     1       3.396   1.491   4.565  0.00  0.00    -0.126 OA
ATOM     22  O   UNL     1       2.923   3.206   5.698  0.00  0.00    -0.126 OA
ENDBRANCH   5  20
BRANCH   4  23
ATOM     23  N   UNL     1       1.873   5.237   4.691  0.00  0.00    -0.235 N 
ATOM     24  H   UNL     1       2.244   4.827   5.488  0.00  0.00    +0.174 HD
BRANCH  23  25
ATOM     25  N   UNL     1       1.490   6.584   4.709  0.00  0.00    -0.187 NA
ATOM     26  C   UNL     1       1.633   7.285   5.792  0.00  0.00    +0.063 C 
ATOM     27  C   UNL     1       2.210   6.650   7.030  0.00  0.00    +0.068 C 
BRANCH  26  28
ATOM     28  C   UNL     1       1.230   8.703   5.811  0.00  0.00    +0.001 A 
ATOM     29  C   UNL     1       1.383   9.460   6.975  0.00  0.00    +0.013 A 
ATOM     30  C   UNL     1       1.006  10.786   6.990  0.00  0.00    +0.050 A 
ATOM     31  C   UNL     1       0.474  11.374   5.851  0.00  0.00    +0.166 A 
ATOM     32  C   UNL     1       0.319  10.625   4.686  0.00  0.00    +0.167 A 
ATOM     33  C   UNL     1       0.700   9.296   4.662  0.00  0.00    +0.059 A 
ATOM     34  O   UNL     1      -0.219  11.427   3.720  0.00  0.00    -0.453 OA
ATOM     35  C   UNL     1      -0.011  12.775   4.181  0.00  0.00    +0.466 C 
ATOM     36  O   UNL     1       0.033  12.644   5.614  0.00  0.00    -0.453 OA
ENDBRANCH  26  28
ENDBRANCH  23  25
ENDBRANCH   4  23
TORSDOF 7
