REMARK  Name = ZINC14544890
REMARK  6 active torsions:
REMARK  status: ('A' for Active; 'I' for Inactive)
REMARK    1  A    between atoms: C_1  and  C_2
REMARK    2  A    between atoms: C_2  and  C_3
REMARK    3  A    between atoms: C_3  and  N_4
REMARK    4  A    between atoms: N_4  and  S_5
REMARK    5  A    between atoms: S_5  and  C_8
REMARK    6  A    between atoms: C_21  and  C_24
REMARK                            x       y       z     vdW  Elec       q    Type
REMARK                         _______ _______ _______ _____ _____    ______ ____
ROOT
ATOM      1  C   UNL     1      -3.188   9.386  -1.474  0.00  0.00    +0.106 A 
ATOM      2  C   UNL     1      -3.099   9.549  -0.103  0.00  0.00    +0.030 A 
ATOM      3  C   UNL     1      -2.069   8.946   0.591  0.00  0.00    +0.025 A 
ATOM      4  C   UNL     1      -1.128   8.180  -0.087  0.00  0.00    +0.031 A 
ATOM      5  C   UNL     1      -1.212   8.017  -1.458  0.00  0.00    -0.018 A 
ATOM      6  C   UNL     1      -2.252   8.627  -2.147  0.00  0.00    +0.034 A 
ATOM      7  C   UNL     1      -0.221   7.205  -2.248  0.00  0.00    +0.049 C 
ATOM      8  C   UNL     1       0.427   8.121  -3.277  0.00  0.00    -0.023 C 
ATOM      9  C   UNL     1       1.575   8.569  -2.833  0.00  0.00    -0.030 C 
ATOM     10  C   UNL     1       1.861   8.014  -1.448  0.00  0.00    +0.033 C 
ATOM     11  C   UNL     1       0.975   6.747  -1.394  0.00  0.00    +0.029 C 
ATOM     12  C   UNL     1       0.571   6.426   0.033  0.00  0.00    +0.107 C 
ATOM     13  N   UNL     1      -0.084   7.596   0.631  0.00  0.00    -0.336 N 
ATOM     14  H   UNL     1       0.188   7.933   1.499  0.00  0.00    +0.147 HD
ENDROOT
BRANCH  12  15
ATOM     15  C   UNL     1      -0.384   5.261   0.035  0.00  0.00    -0.002 A 
ATOM     16  C   UNL     1      -1.724   5.326   0.048  0.00  0.00    +0.089 A 
ATOM     17  N   UNL     1      -2.254   4.064   0.045  0.00  0.00    -0.360 N 
ATOM     18  H   UNL     1      -3.201   3.858   0.053  0.00  0.00    +0.165 HD
ATOM     19  C   UNL     1      -1.240   3.132   0.031  0.00  0.00    +0.047 A 
ATOM     20  C   UNL     1      -0.025   3.840   0.023  0.00  0.00    +0.005 A 
ATOM     21  C   UNL     1       1.186   3.146   0.008  0.00  0.00    +0.010 A 
ATOM     22  C   UNL     1       1.184   1.779   0.000  0.00  0.00    +0.001 A 
ATOM     23  C   UNL     1      -0.013   1.076   0.008  0.00  0.00    +0.002 A 
ATOM     24  C   UNL     1      -1.219   1.742   0.017  0.00  0.00    +0.026 A 
ENDBRANCH  12  15
BRANCH   1  25
ATOM     25  S   UNL     1      -4.501  10.152  -2.365  0.00  0.00    +0.058 S 
ATOM     26  O   UNL     1      -4.933  11.257  -1.582  0.00  0.00    -0.153 OA
ATOM     27  O   UNL     1      -4.052  10.298  -3.705  0.00  0.00    -0.153 OA
BRANCH  25  28
ATOM     28  N   UNL     1      -5.760   9.077  -2.401  0.00  0.00    -0.190 NA
ATOM     29  H   UNL     1      -6.053   8.702  -3.246  0.00  0.00    +0.148 HD
BRANCH  28  30
ATOM     30  C   UNL     1      -6.431   8.693  -1.157  0.00  0.00    +0.105 C 
BRANCH  30  32
ATOM     31  C   UNL     1      -8.461   7.606  -0.185  0.00  0.00    +0.005 C 
ATOM     32  C   UNL     1      -7.760   8.008  -1.484  0.00  0.00    +0.013 C 
ENDBRANCH  30  32
ENDBRANCH  28  30
ENDBRANCH  25  28
ENDBRANCH   1  25
TORSDOF 5
