REMARK  Name = ZINC66149241
REMARK  9 active torsions:
REMARK  status: ('A' for Active; 'I' for Inactive)
REMARK    1  A    between atoms: C_1  and  N_2
REMARK    2  A    between atoms: N_2  and  C_3
REMARK    3  A    between atoms: N_2  and  C_4
REMARK    4  A    between atoms: C_4  and  C_6
REMARK    5  A    between atoms: C_4  and  C_24
REMARK    6  A    between atoms: C_6  and  N_7
REMARK    7  A    between atoms: N_10  and  C_11
REMARK    8  A    between atoms: N_10  and  C_12
REMARK    9  A    between atoms: N_15  and  C_18
REMARK                            x       y       z     vdW  Elec       q    Type
REMARK                         _______ _______ _______ _____ _____    ______ ____
ROOT
ATOM      1  N   UNL     1      -0.871  -2.413   1.123  0.00  0.00    -0.301 N 
ATOM      2  C   UNL     1      -0.781  -3.741   1.332  0.00  0.00    +0.302 C 
ATOM      3  O   UNL     1      -1.309  -4.516   0.559  0.00  0.00    -0.253 OA
ATOM      4  N   UNL     1      -0.104  -4.210   2.400  0.00  0.00    -0.286 N 
ATOM      5  C   UNL     1       0.532  -3.277   3.332  0.00  0.00    +0.134 C 
ATOM      6  H   UNL     1      -0.450  -1.794   1.740  0.00  0.00    +0.150 HD
ENDROOT
BRANCH   4   7
ATOM      7  C   UNL     1      -0.006  -5.654   2.627  0.00  0.00    +0.074 C 
ATOM      8  C   UNL     1      -0.621  -6.001   3.986  0.00  0.00    +0.004 C 
ATOM      9  C   UNL     1      -0.443  -7.498   4.253  0.00  0.00    -0.077 C 
ATOM     10  N   UNL     1       0.986  -7.831   4.261  0.00  0.00    +0.382 N 
ATOM     11  C   UNL     1       1.567  -7.568   2.939  0.00  0.00    -0.077 C 
ATOM     12  C   UNL     1       1.467  -6.074   2.622  0.00  0.00    +0.004 C 
ATOM     13  H   UNL     1       1.458  -7.267   4.952  0.00  0.00    -0.081 HD
BRANCH  10  14
ATOM     14  C   UNL     1       1.155  -9.252   4.594  0.00  0.00    -0.064 C 
ATOM     15  C   UNL     1       0.568  -9.526   5.982  0.00  0.00    +0.013 C 
ATOM     16  C   UNL     1       0.818 -10.990   6.354  0.00  0.00    +0.158 C 
ATOM     17  O   UNL     1       2.221 -11.257   6.313  0.00  0.00    -0.380 OA
ATOM     18  C   UNL     1       2.815 -11.064   5.028  0.00  0.00    +0.158 C 
ATOM     19  C   UNL     1       2.646  -9.603   4.604  0.00  0.00    +0.013 C 
ENDBRANCH  10  14
ENDBRANCH   4   7
BRANCH   1  20
ATOM     20  C   UNL     1      -1.607  -1.903  -0.037  0.00  0.00    +0.091 C 
BRANCH  20  21
ATOM     21  C   UNL     1      -1.399  -0.391  -0.148  0.00  0.00    -0.049 C 
BRANCH  21  22
ATOM     22  C   UNL     1      -2.353   0.179  -1.200  0.00  0.00    -0.023 C 
ATOM     23  C   UNL     1      -2.068   1.670  -1.392  0.00  0.00    +0.002 C 
ATOM     24  C   UNL     1      -3.021   2.240  -2.445  0.00  0.00    +0.000 C 
ATOM     25  C   UNL     1      -4.466   2.053  -1.978  0.00  0.00    +0.000 C 
ATOM     26  C   UNL     1      -4.751   0.562  -1.786  0.00  0.00    +0.000 C 
ATOM     27  C   UNL     1      -3.798  -0.008  -0.734  0.00  0.00    +0.002 C 
ENDBRANCH  21  22
BRANCH  21  29
ATOM     28  C   UNL     1       0.904  -0.657   0.470  0.00  0.00    -0.096 C 
ATOM     29  N   UNL     1      -0.012  -0.114  -0.543  0.00  0.00    +0.379 N 
ATOM     30  C   UNL     1       0.263  -0.747  -1.840  0.00  0.00    -0.096 C 
ATOM     31  H   UNL     1       0.124   0.882  -0.620  0.00  0.00    -0.082 HD
ENDBRANCH  21  29
ENDBRANCH  20  21
ENDBRANCH   1  20
TORSDOF 6
