REMARK  Name = ZINC39359454
REMARK  8 active torsions:
REMARK  status: ('A' for Active; 'I' for Inactive)
REMARK    1  A    between atoms: C_1  and  O_2
REMARK    2  A    between atoms: O_2  and  C_3
REMARK    3  A    between atoms: C_6  and  C_11
REMARK    4  A    between atoms: C_8  and  O_9
REMARK    5  A    between atoms: O_9  and  C_10
REMARK    6  A    between atoms: C_16  and  C_25
REMARK    7  A    between atoms: C_28  and  O_31
REMARK    8  A    between atoms: O_31  and  C_32
REMARK                            x       y       z     vdW  Elec       q    Type
REMARK                         _______ _______ _______ _____ _____    ______ ____
ROOT
ATOM      1  C   UNL     1       2.507  -2.501  -4.386  0.00  0.00    +0.032 C 
ATOM      2  C   UNL     1       3.972  -2.066  -4.458  0.00  0.00    +0.059 C 
ATOM      3  C   UNL     1       4.636  -2.705  -5.657  0.00  0.00    +0.017 C 
ATOM      4  C   UNL     1       3.926  -2.977  -6.773  0.00  0.00    +0.024 C 
ATOM      5  C   UNL     1       4.557  -3.616  -7.994  0.00  0.00    +0.092 C 
ATOM      6  C   UNL     1       6.045  -3.575  -7.857  0.00  0.00    +0.071 C 
ATOM      7  C   UNL     1       6.684  -3.275  -6.689  0.00  0.00    +0.152 C 
ATOM      8  N   UNL     1       5.976  -2.984  -5.548  0.00  0.00    -0.301 N 
ATOM      9  N   UNL     1       8.029  -3.336  -6.939  0.00  0.00    -0.141 NA
ATOM     10  N   UNL     1       8.268  -3.634  -8.116  0.00  0.00    -0.074 NA
ATOM     11  C   UNL     1       7.122  -3.814  -8.815  0.00  0.00    +0.285 C 
ATOM     12  O   UNL     1       7.014  -4.110  -9.986  0.00  0.00    -0.267 OA
ATOM     13  C   UNL     1       2.551  -2.679  -6.849  0.00  0.00    +0.162 C 
ATOM     14  O   UNL     1       1.948  -2.913  -7.878  0.00  0.00    -0.292 OA
ATOM     15  C   UNL     1       1.814  -2.077  -5.686  0.00  0.00    +0.088 C 
ATOM     16  H   UNL     1       6.415  -2.974  -4.683  0.00  0.00    +0.153 HD
ENDROOT
BRANCH   1  20
ATOM     17  C   UNL     1       0.606  -0.608  -1.056  0.00  0.00    +0.161 A 
ATOM     18  C   UNL     1       1.173   0.159  -2.062  0.00  0.00    +0.049 A 
ATOM     19  C   UNL     1       1.787  -0.456  -3.137  0.00  0.00    +0.008 A 
ATOM     20  C   UNL     1       1.837  -1.836  -3.212  0.00  0.00    -0.040 A 
ATOM     21  C   UNL     1       1.273  -2.606  -2.212  0.00  0.00    +0.053 A 
ATOM     22  C   UNL     1       0.662  -1.996  -1.129  0.00  0.00    +0.162 A 
BRANCH  17  24
ATOM     23  C   UNL     1      -0.017   1.425   0.010  0.00  0.00    +0.277 C 
ATOM     24  O   UNL     1       0.002  -0.004   0.002  0.00  0.00    -0.491 OA
ENDBRANCH  17  24
BRANCH  22  25
ATOM     25  O   UNL     1       0.112  -2.753  -0.142  0.00  0.00    -0.491 OA
ATOM     26  C   UNL     1       0.206  -4.171  -0.283  0.00  0.00    +0.277 C 
ENDBRANCH  22  25
ENDBRANCH   1  20
BRANCH   5  27
ATOM     27  C   UNL     1       4.100  -5.048  -8.105  0.00  0.00    -0.035 A 
ATOM     28  C   UNL     1       4.365  -5.939  -7.081  0.00  0.00    +0.008 A 
ATOM     29  C   UNL     1       3.948  -7.252  -7.181  0.00  0.00    +0.046 A 
ATOM     30  C   UNL     1       3.262  -7.676  -8.310  0.00  0.00    +0.130 A 
ATOM     31  C   UNL     1       2.997  -6.781  -9.336  0.00  0.00    +0.046 A 
ATOM     32  C   UNL     1       3.412  -5.467  -9.229  0.00  0.00    +0.008 A 
BRANCH  30  33
ATOM     33  O   UNL     1       2.851  -8.968  -8.411  0.00  0.00    -0.406 OA
BRANCH  33  34
ATOM     34  C   UNL     1       2.150  -9.334  -9.602  0.00  0.00    +0.575 C 
ATOM     35  F   UNL     1       2.971  -9.113 -10.713  0.00  0.00    -0.133 F 
ATOM     36  F   UNL     1       1.803 -10.688  -9.540  0.00  0.00    -0.133 F 
ATOM     37  F   UNL     1       0.991  -8.560  -9.717  0.00  0.00    -0.133 F 
ENDBRANCH  33  34
ENDBRANCH  30  33
ENDBRANCH   5  27
TORSDOF 6
