REMARK  Name = ZINC37301422
REMARK  4 active torsions:
REMARK  status: ('A' for Active; 'I' for Inactive)
REMARK    1  A    between atoms: C_1  and  O_2
REMARK    2  A    between atoms: O_2  and  C_3
REMARK    3  A    between atoms: C_4  and  N_9
REMARK    4  A    between atoms: N_9  and  C_10
REMARK                            x       y       z     vdW  Elec       q    Type
REMARK                         _______ _______ _______ _____ _____    ______ ____
ROOT
ATOM      1  C   UNL     1       0.170  -4.243   0.132  0.00  0.00    +0.103 C 
ATOM      2  C   UNL     1       0.109  -4.790  -1.283  0.00  0.00    +0.038 C 
ATOM      3  C   UNL     1       0.230  -6.320  -1.236  0.00  0.00    +0.076 C 
ATOM      4  S   UNL     1      -1.334  -6.959  -0.567  0.00  0.00    -0.125 S 
ATOM      5  C   UNL     1      -1.645  -5.905   0.815  0.00  0.00    +0.013 A 
ATOM      6  C   UNL     1      -0.936  -4.737   1.017  0.00  0.00    -0.013 A 
ATOM      7  C   UNL     1      -1.250  -3.948   2.121  0.00  0.00    +0.026 A 
ATOM      8  C   UNL     1      -2.242  -4.322   3.002  0.00  0.00    +0.041 A 
ATOM      9  C   UNL     1      -2.944  -5.497   2.798  0.00  0.00    +0.021 A 
ATOM     10  C   UNL     1      -2.643  -6.283   1.712  0.00  0.00    +0.016 A 
ATOM     11 CL   UNL     1      -2.611  -3.318   4.370  0.00  0.00    -0.084 Cl
ENDROOT
BRANCH   1  12
ATOM     12  N   UNL     1       0.103  -2.781   0.072  0.00  0.00    -0.333 N 
ATOM     13  H   UNL     1      -0.344  -2.346  -0.671  0.00  0.00    +0.147 HD
BRANCH  12  15
ATOM     14  C   UNL     1       0.625  -0.618   1.040  0.00  0.00    +0.236 A 
ATOM     15  C   UNL     1       0.683  -2.011   1.087  0.00  0.00    +0.090 A 
ATOM     16  C   UNL     1       1.324  -2.623   2.157  0.00  0.00    +0.030 A 
ATOM     17  C   UNL     1       1.884  -1.819   3.139  0.00  0.00    +0.022 A 
ATOM     18  C   UNL     1       1.788  -0.446   3.026  0.00  0.00    +0.115 A 
ATOM     19  N   UNL     1       1.177   0.109   1.996  0.00  0.00    -0.220 NA
BRANCH  14  21
ATOM     20  C   UNL     1      -0.017   1.425   0.010  0.00  0.00    +0.279 C 
ATOM     21  O   UNL     1       0.002  -0.004   0.002  0.00  0.00    -0.478 OA
ENDBRANCH  14  21
ENDBRANCH  12  15
ENDBRANCH   1  12
TORSDOF 3
