REMARK  Name = ZINC12692083
REMARK  8 active torsions:
REMARK  status: ('A' for Active; 'I' for Inactive)
REMARK    1  A    between atoms: C_1  and  C_2
REMARK    2  A    between atoms: C_13  and  S_15
REMARK    3  A    between atoms: S_15  and  C_16
REMARK    4  A    between atoms: C_16  and  C_18
REMARK    5  A    between atoms: C_16  and  C_19
REMARK    6  A    between atoms: N_21  and  C_22
REMARK    7  A    between atoms: C_22  and  C_24
REMARK    8  A    between atoms: C_22  and  C_25
REMARK                            x       y       z     vdW  Elec       q    Type
REMARK                         _______ _______ _______ _____ _____    ______ ____
ROOT
ATOM      1  S   UNL     1      -1.072   3.770   0.611  0.00  0.00    -0.093 S 
ENDROOT
BRANCH   1  14
ATOM      2  C   UNL     1      -6.072   2.949  -0.072  0.00  0.00    +0.088 C 
ATOM      3  C   UNL     1      -4.995   3.918   0.342  0.00  0.00    +0.128 A 
ATOM      4  N   UNL     1      -5.334   5.134   0.726  0.00  0.00    -0.225 NA
ATOM      5  C   UNL     1      -4.408   5.998   1.093  0.00  0.00    +0.113 A 
ATOM      6  C   UNL     1      -3.041   5.659   1.089  0.00  0.00    +0.043 A 
ATOM      7  C   UNL     1      -2.121   6.714   1.518  0.00  0.00    -0.025 A 
ATOM      8  C   UNL     1      -2.667   7.895   1.873  0.00  0.00    -0.004 A 
ATOM      9  S   UNL     1      -4.414   7.679   1.660  0.00  0.00    -0.073 S 
ATOM     10  C   UNL     1      -1.949   9.122   2.346  0.00  0.00    +0.043 C 
ATOM     11  C   UNL     1      -0.514   8.728   2.724  0.00  0.00    +0.005 C 
ATOM     12  C   UNL     1       0.074   7.875   1.596  0.00  0.00    +0.005 C 
ATOM     13  C   UNL     1      -0.610   6.508   1.569  0.00  0.00    +0.037 C 
ATOM     14  C   UNL     1      -2.741   4.334   0.666  0.00  0.00    +0.110 A 
ATOM     15  N   UNL     1      -3.732   3.532   0.309  0.00  0.00    -0.225 NA
ENDBRANCH   1  14
BRANCH   1  16
ATOM     16  C   UNL     1      -1.331   2.079   0.020  0.00  0.00    +0.135 C 
ATOM     17  C   UNL     1      -1.905   2.117  -1.398  0.00  0.00    +0.029 C 
BRANCH  16  18
ATOM     18  C   UNL     1      -0.016   1.344   0.009  0.00  0.00    +0.227 C 
ATOM     19  O   UNL     1       1.026   1.964   0.003  0.00  0.00    -0.275 OA
ATOM     20  N   UNL     1       0.002  -0.004   0.002  0.00  0.00    -0.308 N 
ATOM     21  H   UNL     1      -0.831  -0.500   0.007  0.00  0.00    +0.149 HD
BRANCH  20  22
ATOM     22  C   UNL     1       1.281  -0.719  -0.014  0.00  0.00    +0.100 C 
ATOM     23  C   UNL     1       1.773  -0.851  -1.456  0.00  0.00    +0.033 C 
BRANCH  22  24
ATOM     24  C   UNL     1       1.096  -2.091   0.581  0.00  0.00    -0.027 A 
ATOM     25  C   UNL     1      -0.045  -2.819   0.299  0.00  0.00    +0.008 A 
ATOM     26  C   UNL     1      -0.213  -4.080   0.840  0.00  0.00    +0.038 A 
ATOM     27  C   UNL     1       0.757  -4.609   1.673  0.00  0.00    +0.123 A 
ATOM     28  C   UNL     1       1.897  -3.878   1.959  0.00  0.00    +0.038 A 
ATOM     29  C   UNL     1       2.066  -2.620   1.412  0.00  0.00    +0.008 A 
ATOM     30  F   UNL     1       0.591  -5.839   2.207  0.00  0.00    -0.205 F 
ENDBRANCH  22  24
ENDBRANCH  20  22
ENDBRANCH  16  18
ENDBRANCH   1  16
TORSDOF 5
