REMARK  Name = ZINC02057925
REMARK  5 active torsions:
REMARK  status: ('A' for Active; 'I' for Inactive)
REMARK    1  A    between atoms: C_4  and  C_7
REMARK    2  A    between atoms: C_9  and  C_30
REMARK    3  A    between atoms: C_14  and  C_16
REMARK    4  A    between atoms: N_18  and  C_19
REMARK    5  A    between atoms: C_20  and  C_28
REMARK                            x       y       z     vdW  Elec       q    Type
REMARK                         _______ _______ _______ _____ _____    ______ ____
ROOT
ATOM      1  C   UNL     1      -3.839  12.529  -5.173  0.00  0.00    +0.075 A 
ATOM      2  C   UNL     1      -3.668  12.976  -3.848  0.00  0.00    +0.056 A 
ATOM      3  C   UNL     1      -3.289  12.082  -2.887  0.00  0.00    +0.077 A 
ATOM      4  N   UNL     1      -3.085  10.768  -3.241  0.00  0.00    -0.213 N 
ATOM      5  C   UNL     1      -3.263  10.376  -4.544  0.00  0.00    +0.157 A 
ATOM      6  N   UNL     1      -3.634  11.260  -5.479  0.00  0.00    -0.228 NA
ATOM      7  C   UNL     1      -2.985   9.018  -4.604  0.00  0.00    +0.083 A 
ATOM      8  C   UNL     1      -2.645   8.599  -3.313  0.00  0.00    +0.150 A 
ATOM      9  N   UNL     1      -2.702   9.643  -2.501  0.00  0.00    -0.160 NA
ENDROOT
BRANCH   1  13
ATOM     10  C   UNL     1      -5.016  15.273  -8.199  0.00  0.00    +0.000 A 
ATOM     11  C   UNL     1      -4.802  13.944  -8.519  0.00  0.00    +0.001 A 
ATOM     12  C   UNL     1      -4.419  13.049  -7.542  0.00  0.00    +0.010 A 
ATOM     13  C   UNL     1      -4.249  13.486  -6.228  0.00  0.00    +0.000 A 
ATOM     14  C   UNL     1      -4.472  14.825  -5.910  0.00  0.00    +0.010 A 
ATOM     15  C   UNL     1      -4.849  15.712  -6.898  0.00  0.00    +0.001 A 
ENDBRANCH   1  13
BRANCH   3  16
ATOM     16  C   UNL     1      -3.102  12.520  -1.488  0.00  0.00    +0.001 A 
ATOM     17  C   UNL     1      -2.620  11.624  -0.531  0.00  0.00    +0.010 A 
ATOM     18  C   UNL     1      -2.443  12.041   0.772  0.00  0.00    +0.001 A 
ATOM     19  C   UNL     1      -2.751  13.340   1.134  0.00  0.00    +0.000 A 
ATOM     20  C   UNL     1      -3.234  14.231   0.192  0.00  0.00    +0.001 A 
ATOM     21  C   UNL     1      -3.411  13.829  -1.116  0.00  0.00    +0.010 A 
ENDBRANCH   3  16
BRANCH   8  22
ATOM     22  C   UNL     1      -2.278   7.221  -2.922  0.00  0.00    +0.269 C 
ATOM     23  O   UNL     1      -2.260   6.337  -3.757  0.00  0.00    -0.268 OA
ATOM     24  N   UNL     1      -1.965   6.945  -1.641  0.00  0.00    -0.274 N 
ATOM     25  H   UNL     1      -1.980   7.651  -0.975  0.00  0.00    +0.156 HD
BRANCH  24  26
ATOM     26  C   UNL     1      -1.621   5.653  -1.274  0.00  0.00    +0.090 A 
ATOM     27  C   UNL     1      -1.271   5.177  -0.019  0.00  0.00    +0.084 A 
ATOM     28  C   UNL     1      -0.951   3.765   0.100  0.00  0.00    -0.018 A 
ATOM     29  C   UNL     1      -1.032   3.059  -1.049  0.00  0.00    -0.004 A 
ATOM     30  S   UNL     1      -1.524   4.240  -2.273  0.00  0.00    -0.077 S 
ATOM     31  C   UNL     1      -0.761   1.597  -1.232  0.00  0.00    +0.043 C 
ATOM     32  C   UNL     1      -0.013   1.086   0.008  0.00  0.00    +0.005 C 
ATOM     33  C   UNL     1      -0.735   1.583   1.264  0.00  0.00    +0.005 C 
ATOM     34  C   UNL     1      -0.551   3.094   1.407  0.00  0.00    +0.037 C 
BRANCH  27  35
ATOM     35  C   UNL     1      -1.225   6.047   1.118  0.00  0.00    +0.102 C 
ATOM     36  N   UNL     1      -1.190   6.737   2.020  0.00  0.00    -0.191 NA
ENDBRANCH  27  35
ENDBRANCH  24  26
ENDBRANCH   8  22
TORSDOF 5
