REMARK  Name = ZINC08883164
REMARK  7 active torsions:
REMARK  status: ('A' for Active; 'I' for Inactive)
REMARK    1  A    between atoms: C_1  and  O_2
REMARK    2  A    between atoms: O_2  and  C_3
REMARK    3  A    between atoms: C_5  and  C_13
REMARK    4  A    between atoms: C_14  and  C_15
REMARK    5  A    between atoms: C_21  and  S_23
REMARK    6  A    between atoms: S_23  and  C_24
REMARK    7  A    between atoms: C_24  and  C_25
REMARK                            x       y       z     vdW  Elec       q    Type
REMARK                         _______ _______ _______ _____ _____    ______ ____
ROOT
ATOM      1  C   UNL     1       1.178  -0.662  -0.012  0.00  0.00    +0.243 C 
ATOM      2  O   UNL     1       2.224  -0.039  -0.018  0.00  0.00    -0.270 OA
ATOM      3  N   UNL     1       0.002  -0.004   0.002  0.00  0.00    -0.260 N 
ATOM      4  C   UNL     1      -0.017   1.387   0.010  0.00  0.00    +0.189 A 
ATOM      5  N   UNL     1       0.985   2.251   0.005  0.00  0.00    -0.125 NA
ATOM      6  N   UNL     1       0.793   3.498   0.013  0.00  0.00    -0.133 NA
ATOM      7  C   UNL     1      -0.425   4.019   0.028  0.00  0.00    +0.160 A 
ATOM      8  S   UNL     1      -1.404   2.519   0.021  0.00  0.00    -0.024 S 
ATOM      9  H   UNL     1      -0.831  -0.500   0.007  0.00  0.00    +0.157 HD
ENDROOT
BRANCH   1  11
ATOM     10  C   UNL     1       2.376  -2.783  -0.035  0.00  0.00    +0.013 C 
ATOM     11  C   UNL     1       1.198  -2.124  -0.020  0.00  0.00    +0.068 C 
BRANCH  10  14
ATOM     12  C   UNL     1       1.220  -6.352  -0.042  0.00  0.00    +0.166 A 
ATOM     13  C   UNL     1       1.196  -4.971  -0.036  0.00  0.00    +0.057 A 
ATOM     14  C   UNL     1       2.396  -4.253  -0.043  0.00  0.00    -0.018 A 
ATOM     15  C   UNL     1       3.616  -4.938  -0.063  0.00  0.00    +0.057 A 
ATOM     16  C   UNL     1       3.633  -6.321  -0.065  0.00  0.00    +0.166 A 
ATOM     17  C   UNL     1       2.437  -7.032  -0.056  0.00  0.00    +0.204 A 
ATOM     18  O   UNL     1       2.437  -8.393  -0.059  0.00  0.00    -0.482 OA
ATOM     19  C   UNL     1       3.655  -9.037  -0.449  0.00  0.00    +0.270 C 
ATOM     20  C   UNL     1       4.816  -8.354   0.287  0.00  0.00    +0.270 C 
ATOM     21  O   UNL     1       4.829  -6.971  -0.084  0.00  0.00    -0.485 OA
BRANCH  12  23
ATOM     22  C   UNL     1      -1.157  -6.291  -0.021  0.00  0.00    +0.277 C 
ATOM     23  O   UNL     1       0.053  -7.051  -0.035  0.00  0.00    -0.491 OA
ENDBRANCH  12  23
ENDBRANCH  10  14
ENDBRANCH   1  11
BRANCH   7  24
ATOM     24  S   UNL     1      -0.936   5.705   0.041  0.00  0.00    -0.092 S 
BRANCH  24  25
ATOM     25  C   UNL     1       0.621   6.635   0.031  0.00  0.00    +0.114 C 
BRANCH  25  26
ATOM     26  C   UNL     1       0.323   8.113   0.041  0.00  0.00    -0.002 A 
ATOM     27  C   UNL     1       0.181   8.797  -1.151  0.00  0.00    +0.007 A 
ATOM     28  C   UNL     1      -0.098  10.151  -1.142  0.00  0.00    +0.000 A 
ATOM     29  C   UNL     1      -0.223  10.824   0.059  0.00  0.00    +0.003 A 
ATOM     30  C   UNL     1      -0.076  10.143   1.252  0.00  0.00    +0.038 A 
ATOM     31  C   UNL     1       0.198   8.786   1.244  0.00  0.00    +0.127 A 
ATOM     32  F   UNL     1       0.342   8.118   2.410  0.00  0.00    -0.205 F 
ENDBRANCH  25  26
ENDBRANCH  24  25
ENDBRANCH   7  24
TORSDOF 6
