REMARK  Name = ZINC09332444
REMARK  8 active torsions:
REMARK  status: ('A' for Active; 'I' for Inactive)
REMARK    1  A    between atoms: C_1  and  C_2
REMARK    2  A    between atoms: C_4  and  C_33
REMARK    3  A    between atoms: C_6  and  N_8
REMARK    4  A    between atoms: C_11  and  C_17
REMARK    5  A    between atoms: C_12  and  O_16
REMARK    6  A    between atoms: C_14  and  O_15
REMARK    7  A    between atoms: C_23  and  O_29
REMARK    8  A    between atoms: O_29  and  C_30
REMARK                            x       y       z     vdW  Elec       q    Type
REMARK                         _______ _______ _______ _____ _____    ______ ____
ROOT
ATOM      1  N   UNL     1       2.368   0.080  -0.020  0.00  0.00    -0.231 N 
ATOM      2  C   UNL     1       1.342  -0.474   0.660  0.00  0.00    +0.267 A 
ATOM      3  O   UNL     1       1.492  -1.524   1.264  0.00  0.00    -0.267 OA
ATOM      4  C   UNL     1       0.102   0.177   0.659  0.00  0.00    +0.071 A 
ATOM      5  C   UNL     1      -0.024   1.366  -0.039  0.00  0.00    +0.224 A 
ATOM      6  N   UNL     1       1.028   1.866  -0.695  0.00  0.00    -0.161 NA
ATOM      7  C   UNL     1       2.189   1.251  -0.691  0.00  0.00    +0.306 A 
ENDROOT
BRANCH   4   8
ATOM      8  C   UNL     1      -1.072  -0.404   1.404  0.00  0.00    +0.018 C 
ATOM      9  C   UNL     1      -1.463  -1.724   0.782  0.00  0.00    +0.011 A 
ATOM     10  C   UNL     1      -1.766  -2.822   1.513  0.00  0.00    -0.022 A 
ATOM     11  C   UNL     1      -2.087  -3.880   0.582  0.00  0.00    +0.006 A 
ATOM     12  C   UNL     1      -2.466  -5.216   0.755  0.00  0.00    +0.056 A 
ATOM     13  C   UNL     1      -2.701  -5.953  -0.396  0.00  0.00    +0.121 A 
ATOM     14  C   UNL     1      -2.567  -5.397  -1.662  0.00  0.00    +0.047 A 
ATOM     15  C   UNL     1      -2.192  -4.079  -1.853  0.00  0.00    +0.030 A 
ATOM     16  C   UNL     1      -1.950  -3.316  -0.713  0.00  0.00    +0.047 A 
ATOM     17  N   UNL     1      -1.572  -2.011  -0.551  0.00  0.00    -0.359 N 
ATOM     18  H   UNL     1      -1.405  -1.385  -1.272  0.00  0.00    +0.166 HD
ATOM     19  C   UNL     1      -1.749  -2.848   3.021  0.00  0.00    +0.018 C 
ATOM     20  C   UNL     1      -1.738  -1.397   3.520  0.00  0.00    -0.076 C 
ATOM     21  N   UNL     1      -0.688  -0.633   2.814  0.00  0.00    +0.388 N 
ATOM     22  H   UNL     1      -0.558   0.273   3.280  0.00  0.00    -0.084 HD
ATOM     23  H   UNL     1       0.192  -1.162   2.844  0.00  0.00    -0.084 HD
BRANCH  13  24
ATOM     24  O   UNL     1      -3.073  -7.256  -0.281  0.00  0.00    -0.495 OA
ATOM     25  C   UNL     1      -3.303  -7.974  -1.495  0.00  0.00    +0.277 C 
ENDBRANCH  13  24
ENDBRANCH   4   8
BRANCH   1  31
ATOM     26  C   UNL     1       5.480  -3.098  -2.118  0.00  0.00    +0.044 C 
ATOM     27  C   UNL     1       5.153  -2.096  -1.041  0.00  0.00    -0.048 A 
ATOM     28  C   UNL     1       6.088  -1.799  -0.067  0.00  0.00    +0.006 A 
ATOM     29  C   UNL     1       5.792  -0.880   0.923  0.00  0.00    -0.048 A 
ATOM     30  C   UNL     1       4.560  -0.255   0.941  0.00  0.00    +0.029 A 
ATOM     31  C   UNL     1       3.619  -0.551  -0.036  0.00  0.00    +0.055 A 
ATOM     32  C   UNL     1       3.917  -1.479  -1.025  0.00  0.00    +0.029 A 
ATOM     33  C   UNL     1       6.814  -0.558   1.983  0.00  0.00    +0.044 C 
ENDBRANCH   1  31
BRANCH   7  34
ATOM     34  O   UNL     1       3.225   1.790  -1.365  0.00  0.00    -0.479 OA
ATOM     35  H   UNL     1       3.061   2.622  -1.829  0.00  0.00    +0.295 HD
ENDBRANCH   7  34
BRANCH   5  36
ATOM     36  O   UNL     1      -1.211   2.016  -0.064  0.00  0.00    -0.492 OA
ATOM     37  H   UNL     1      -1.200   2.835  -0.577  0.00  0.00    +0.294 HD
ENDBRANCH   5  36
TORSDOF 5
