REMARK  Name = ZINC09315346
REMARK  2 active torsions:
REMARK  status: ('A' for Active; 'I' for Inactive)
REMARK    1  A    between atoms: C_15  and  C_18
REMARK    2  A    between atoms: C_23  and  N_26
REMARK                            x       y       z     vdW  Elec       q    Type
REMARK                         _______ _______ _______ _____ _____    ______ ____
ROOT
ATOM      1  C   UNL     1       1.266   2.548  -3.108  0.00  0.00    +0.219 C 
ATOM      2  O   UNL     1       2.197   3.232  -2.740  0.00  0.00    -0.275 OA
ATOM      3  N   UNL     1       0.628   1.750  -2.229  0.00  0.00    -0.301 N 
ATOM      4  C   UNL     1       1.121   1.608  -0.852  0.00  0.00    +0.110 C 
ATOM      5  C   UNL     1      -0.026   1.916   0.116  0.00  0.00    +0.044 C 
ATOM      6  C   UNL     1      -1.224   1.023  -0.218  0.00  0.00    +0.095 C 
ATOM      7  C   UNL     1      -1.701   1.319  -1.642  0.00  0.00    +0.044 C 
ATOM      8  C   UNL     1      -0.573   1.004  -2.630  0.00  0.00    +0.110 C 
ENDROOT
BRANCH   1  23
ATOM      9  C   UNL     1       2.801   3.369 -10.894  0.00  0.00    +0.001 A 
ATOM     10  C   UNL     1       2.792   4.476 -11.724  0.00  0.00    +0.002 A 
ATOM     11  C   UNL     1       2.106   5.617 -11.333  0.00  0.00    +0.030 A 
ATOM     12  C   UNL     1       1.449   5.633 -10.137  0.00  0.00    +0.123 A 
ATOM     13  C   UNL     1       1.445   4.529  -9.273  0.00  0.00    +0.043 A 
ATOM     14  C   UNL     1       2.140   3.382  -9.687  0.00  0.00    +0.013 A 
ATOM     15  C   UNL     1       0.667   4.785  -8.050  0.00  0.00    +0.152 C 
ATOM     16  N   UNL     1       0.101   5.938  -7.890  0.00  0.00    -0.113 NA
ATOM     17  S   UNL     1       0.476   6.826  -9.259  0.00  0.00    +0.101 S 
ATOM     18  O   UNL     1      -0.726   7.026  -9.988  0.00  0.00    -0.146 OA
ATOM     19  O   UNL     1       1.339   7.884  -8.865  0.00  0.00    -0.146 OA
ATOM     20  N   UNL     1       0.547   3.809  -7.085  0.00  0.00    -0.313 N 
ATOM     21  C   UNL     1      -0.628   3.768  -6.204  0.00  0.00    +0.107 C 
ATOM     22  C   UNL     1      -0.153   3.751  -4.748  0.00  0.00    +0.032 C 
ATOM     23  C   UNL     1       0.823   2.589  -4.548  0.00  0.00    +0.078 C 
ATOM     24  C   UNL     1       2.042   2.784  -5.452  0.00  0.00    +0.032 C 
ATOM     25  C   UNL     1       1.592   2.790  -6.916  0.00  0.00    +0.107 C 
ENDBRANCH   1  23
BRANCH   6  26
ATOM     26  N   UNL     1      -2.311   1.292   0.726  0.00  0.00    -0.289 N 
ATOM     27  C   UNL     1      -2.888   0.364   1.591  0.00  0.00    +0.070 A 
ATOM     28  C   UNL     1      -2.660  -0.983   1.831  0.00  0.00    +0.028 A 
ATOM     29  C   UNL     1      -3.415  -1.650   2.775  0.00  0.00    +0.002 A 
ATOM     30  C   UNL     1      -4.397  -0.980   3.485  0.00  0.00    +0.002 A 
ATOM     31  C   UNL     1      -4.630   0.362   3.253  0.00  0.00    +0.028 A 
ATOM     32  C   UNL     1      -3.878   1.040   2.306  0.00  0.00    +0.067 A 
ATOM     33  N   UNL     1      -3.873   2.357   1.854  0.00  0.00    -0.306 N 
ATOM     34  H   UNL     1      -4.454   3.067   2.168  0.00  0.00    +0.170 HD
ATOM     35  C   UNL     1      -2.919   2.478   0.911  0.00  0.00    +0.328 A 
ATOM     36  O   UNL     1      -2.650   3.504   0.315  0.00  0.00    -0.247 OA
ENDBRANCH   6  26
TORSDOF 2
