REMARK  Name = ZINC12988551
REMARK  6 active torsions:
REMARK  status: ('A' for Active; 'I' for Inactive)
REMARK    1  A    between atoms: C_1  and  C_2
REMARK    2  A    between atoms: N_4  and  C_5
REMARK    3  A    between atoms: C_5  and  C_6
REMARK    4  A    between atoms: C_6  and  C_7
REMARK    5  A    between atoms: C_10  and  C_13
REMARK    6  A    between atoms: C_19  and  C_21
REMARK                            x       y       z     vdW  Elec       q    Type
REMARK                         _______ _______ _______ _____ _____    ______ ____
ROOT
ATOM      1  C   UNL     1      -0.076   5.754   0.033  0.00  0.00    +0.080 A 
ATOM      2  C   UNL     1      -1.266   6.428   0.048  0.00  0.00    +0.076 A 
ATOM      3  S   UNL     1      -0.688   8.120   0.052  0.00  0.00    -0.060 S 
ATOM      4  C   UNL     1       1.063   7.758   0.033  0.00  0.00    +0.165 A 
ATOM      5  N   UNL     1       1.058   6.438   0.032  0.00  0.00    -0.225 NA
ATOM      6  N   UNL     1       2.142   8.633   0.027  0.00  0.00    -0.262 N 
ATOM      7  C   UNL     1       1.930   9.964   0.037  0.00  0.00    +0.260 C 
ATOM      8  O   UNL     1       0.797  10.398   0.051  0.00  0.00    -0.271 OA
ATOM      9  H   UNL     1       3.048   8.287   0.017  0.00  0.00    +0.157 HD
ENDROOT
BRANCH   7  10
ATOM     10  C   UNL     1       3.100  10.914   0.031  0.00  0.00    +0.266 C 
ATOM     11  C   UNL     1       3.867  10.770  -1.284  0.00  0.00    +0.090 C 
ATOM     12  C   UNL     1       4.884  11.873  -1.419  0.00  0.00    -0.029 A 
ATOM     13  C   UNL     1       5.962  11.714  -2.268  0.00  0.00    +0.004 A 
ATOM     14  C   UNL     1       6.897  12.726  -2.399  0.00  0.00    +0.000 A 
ATOM     15  C   UNL     1       6.762  13.903  -1.684  0.00  0.00    +0.001 A 
ATOM     16  C   UNL     1       5.690  14.075  -0.831  0.00  0.00    +0.015 A 
ATOM     17  C   UNL     1       4.747  13.057  -0.695  0.00  0.00    +0.062 A 
ATOM     18  C   UNL     1       3.595  13.221   0.222  0.00  0.00    +0.340 C 
ATOM     19  O   UNL     1       3.530  14.154   0.996  0.00  0.00    -0.245 OA
ATOM     20  O   UNL     1       2.616  12.283   0.159  0.00  0.00    -0.448 OA
ENDBRANCH   7  10
BRANCH   1  24
ATOM     21  C   UNL     1      -0.018   1.503   0.010  0.00  0.00    -0.046 A 
ATOM     22  C   UNL     1      -1.227   2.175   0.020  0.00  0.00    +0.004 A 
ATOM     23  C   UNL     1      -1.252   3.555   0.033  0.00  0.00    +0.010 A 
ATOM     24  C   UNL     1      -0.056   4.271   0.025  0.00  0.00    +0.001 A 
ATOM     25  C   UNL     1       1.159   3.588   0.010  0.00  0.00    +0.010 A 
ATOM     26  C   UNL     1       1.172   2.208   0.003  0.00  0.00    +0.004 A 
BRANCH  21  27
ATOM     27  C   UNL     1       0.002  -0.004   0.002  0.00  0.00    +0.054 C 
BRANCH  27  28
ATOM     28  C   UNL     1       0.023  -0.522   1.442  0.00  0.00    +0.109 C 
BRANCH  28  32
ATOM     29  C   UNL     1       0.083  -4.173   2.589  0.00  0.00    +0.109 C 
ATOM     30  C   UNL     1       0.063  -2.667   2.597  0.00  0.00    +0.210 C 
ATOM     31  O   UNL     1       0.065  -2.066   3.651  0.00  0.00    -0.276 OA
ATOM     32  N   UNL     1       0.043  -1.987   1.434  0.00  0.00    -0.315 N 
ATOM     33  H   UNL     1       0.041  -2.467   0.591  0.00  0.00    +0.149 HD
ENDBRANCH  28  32
ENDBRANCH  27  28
ENDBRANCH  21  27
ENDBRANCH   1  24
TORSDOF 5
