REMARK  Name = ZINC60272493
REMARK  7 active torsions:
REMARK  status: ('A' for Active; 'I' for Inactive)
REMARK    1  A    between atoms: C_1  and  C_2
REMARK    2  A    between atoms: C_2  and  C_3
REMARK    3  A    between atoms: C_2  and  C_4
REMARK    4  A    between atoms: C_4  and  C_5
REMARK    5  A    between atoms: C_5  and  C_7
REMARK    6  A    between atoms: C_5  and  N_17
REMARK    7  A    between atoms: C_18  and  C_20
REMARK                            x       y       z     vdW  Elec       q    Type
REMARK                         _______ _______ _______ _____ _____    ______ ____
ROOT
ATOM      1  C   UNL     1       0.065  -0.009   2.387  0.00  0.00    +0.139 C 
ENDROOT
BRANCH   1   2
ATOM      2  C   UNL     1       0.850  -0.422   3.605  0.00  0.00    +0.129 A 
ATOM      3  N   UNL     1       1.285   0.425   4.576  0.00  0.00    -0.340 N 
ATOM      4  H   UNL     1       1.146   1.385   4.606  0.00  0.00    +0.167 HD
ATOM      5  C   UNL     1       1.960  -0.333   5.511  0.00  0.00    +0.066 A 
ATOM      6  C   UNL     1       2.614  -0.043   6.701  0.00  0.00    +0.028 A 
ATOM      7  C   UNL     1       3.205  -1.060   7.421  0.00  0.00    +0.002 A 
ATOM      8  C   UNL     1       3.149  -2.369   6.964  0.00  0.00    +0.002 A 
ATOM      9  C   UNL     1       2.510  -2.673   5.795  0.00  0.00    +0.030 A 
ATOM     10  C   UNL     1       1.904  -1.659   5.049  0.00  0.00    +0.089 A 
ATOM     11  N   UNL     1       1.207  -1.642   3.884  0.00  0.00    -0.231 NA
ENDBRANCH   1   2
BRANCH   1  12
ATOM     12  N   UNL     1      -0.047   1.451   2.350  0.00  0.00    -0.302 N 
ATOM     13  C   UNL     1      -1.023   2.034   1.627  0.00  0.00    +0.255 C 
ATOM     14  O   UNL     1      -1.864   1.351   1.081  0.00  0.00    -0.272 OA
ATOM     15  H   UNL     1       0.582   1.998   2.845  0.00  0.00    +0.150 HD
BRANCH  13  16
ATOM     16  C   UNL     1      -1.071   3.534   1.496  0.00  0.00    +0.269 C 
ATOM     17  C   UNL     1       0.166   4.022   0.723  0.00  0.00    +0.128 C 
ATOM     18  S   UNL     1       0.135   5.842   0.765  0.00  0.00    -0.117 S 
ATOM     19  C   UNL     1      -1.563   6.206   0.443  0.00  0.00    +0.050 A 
ATOM     20  C   UNL     1      -1.925   7.508   0.119  0.00  0.00    +0.018 A 
ATOM     21  C   UNL     1      -3.248   7.819  -0.129  0.00  0.00    +0.001 A 
ATOM     22  C   UNL     1      -4.212   6.831  -0.052  0.00  0.00    +0.004 A 
ATOM     23  C   UNL     1      -3.857   5.536   0.266  0.00  0.00    +0.047 A 
ATOM     24  C   UNL     1      -2.526   5.206   0.512  0.00  0.00    +0.135 A 
ATOM     25  O   UNL     1      -2.242   3.912   0.788  0.00  0.00    -0.478 OA
ENDBRANCH  13  16
ENDBRANCH   1  12
BRANCH   1  26
ATOM     26  C   UNL     1       0.782  -0.499   1.127  0.00  0.00    +0.033 C 
BRANCH  26  28
ATOM     27  C   UNL     1      -0.696  -2.503   0.928  0.00  0.00    +0.007 C 
ATOM     28  C   UNL     1       0.750  -2.028   1.083  0.00  0.00    -0.015 C 
ATOM     29  C   UNL     1       1.579  -2.521  -0.104  0.00  0.00    +0.007 C 
ENDBRANCH  26  28
ENDBRANCH   1  26
TORSDOF 5
