REMARK  Name = ZINC39737515
REMARK  5 active torsions:
REMARK  status: ('A' for Active; 'I' for Inactive)
REMARK    1  A    between atoms: C_4  and  N_7
REMARK    2  A    between atoms: C_8  and  C_23
REMARK    3  A    between atoms: N_9  and  N_10
REMARK    4  A    between atoms: C_11  and  C_12
REMARK    5  A    between atoms: C_14  and  N_20
REMARK                            x       y       z     vdW  Elec       q    Type
REMARK                         _______ _______ _______ _____ _____    ______ ____
ROOT
ATOM      1  N   UNL     1       3.575  -0.775  -0.483  0.00  0.00    -0.298 N 
ATOM      2  C   UNL     1       3.589  -2.095  -0.245  0.00  0.00    +0.143 C 
ATOM      3  N   UNL     1       2.424  -2.755  -0.001  0.00  0.00    -0.262 N 
ATOM      4  H   UNL     1       2.856  -0.384  -1.004  0.00  0.00    +0.154 HD
ATOM      5  H   UNL     1       2.440  -3.695   0.239  0.00  0.00    +0.190 HD
ENDROOT
BRANCH   2   6
ATOM      6  C   UNL     1       4.864  -2.829  -0.247  0.00  0.00    +0.104 A 
ATOM      7  C   UNL     1       4.841  -4.233  -0.170  0.00  0.00    +0.032 A 
ATOM      8  C   UNL     1       6.005  -4.943  -0.170  0.00  0.00    +0.012 A 
ATOM      9  C   UNL     1       7.216  -4.230  -0.248  0.00  0.00    +0.000 A 
ATOM     10  C   UNL     1       8.460  -4.875  -0.254  0.00  0.00    +0.010 A 
ATOM     11  C   UNL     1       9.601  -4.132  -0.331  0.00  0.00    +0.001 A 
ATOM     12  C   UNL     1       9.562  -2.741  -0.405  0.00  0.00    +0.002 A 
ATOM     13  C   UNL     1       8.387  -2.057  -0.403  0.00  0.00    +0.028 A 
ATOM     14  C   UNL     1       7.171  -2.766  -0.325  0.00  0.00    +0.072 A 
ATOM     15  N   UNL     1       5.997  -2.146  -0.326  0.00  0.00    -0.244 NA
ENDBRANCH   2   6
BRANCH   1  19
ATOM     16  C   UNL     1       6.611   1.639   1.008  0.00  0.00    +0.000 A 
ATOM     17  C   UNL     1       5.951   1.999  -0.154  0.00  0.00    +0.002 A 
ATOM     18  C   UNL     1       4.942   1.201  -0.653  0.00  0.00    +0.023 A 
ATOM     19  C   UNL     1       4.588   0.030   0.014  0.00  0.00    +0.032 A 
ATOM     20  C   UNL     1       5.256  -0.329   1.184  0.00  0.00    +0.023 A 
ATOM     21  C   UNL     1       6.264   0.476   1.675  0.00  0.00    +0.002 A 
ENDBRANCH   1  19
BRANCH   3  22
ATOM     22  N   UNL     1       1.298  -2.131  -0.090  0.00  0.00    -0.180 NA
ATOM     23  C   UNL     1       0.152  -2.756   0.248  0.00  0.00    +0.144 C 
BRANCH  23  24
ATOM     24  C   UNL     1      -1.075  -2.120   0.052  0.00  0.00    +0.045 A 
ATOM     25  C   UNL     1      -2.286  -2.752   0.431  0.00  0.00    +0.046 A 
ATOM     26  C   UNL     1      -3.471  -2.117   0.232  0.00  0.00    +0.128 A 
ATOM     27  C   UNL     1      -3.525  -0.848  -0.341  0.00  0.00    +0.051 A 
ATOM     28  C   UNL     1      -2.378  -0.185  -0.730  0.00  0.00    +0.067 A 
ATOM     29  C   UNL     1      -1.136  -0.779  -0.546  0.00  0.00    +0.202 A 
ATOM     30  O   UNL     1      -0.005  -0.139  -0.917  0.00  0.00    -0.286 OA
ATOM     31 BR   UNL     1      -2.498   1.535  -1.506  0.00  0.00    -0.046 Br
BRANCH  26  32
ATOM     32  N   UNL     1      -4.729  -2.787   0.632  0.00  0.00    +0.056 N 
ATOM     33  O   UNL     1      -4.692  -3.986   1.175  0.00  0.00    -0.126 OA
ATOM     34  O   UNL     1      -5.884  -2.183   0.446  0.00  0.00    -0.126 OA
ENDBRANCH  26  32
ENDBRANCH  23  24
ENDBRANCH   3  22
TORSDOF 5
