REMARK  Name = ZINC10104620
REMARK  5 active torsions:
REMARK  status: ('A' for Active; 'I' for Inactive)
REMARK    1  A    between atoms: C_1  and  C_2
REMARK    2  A    between atoms: C_2  and  C_3
REMARK    3  A    between atoms: C_6  and  N_9
REMARK    4  A    between atoms: C_10  and  C_25
REMARK    5  A    between atoms: N_23  and  C_24
REMARK                            x       y       z     vdW  Elec       q    Type
REMARK                         _______ _______ _______ _____ _____    ______ ____
ROOT
ATOM      1  N   UNL     1      -1.392  -2.148  -0.001  0.00  0.00    -0.278 N 
ATOM      2  C   UNL     1      -1.272  -0.773   0.161  0.00  0.00    +0.074 A 
ATOM      3  C   UNL     1      -2.506  -0.242   0.119  0.00  0.00    +0.121 A 
ATOM      4  N   UNL     1      -3.413  -1.268  -0.062  0.00  0.00    -0.277 N 
ATOM      5  C   UNL     1      -2.727  -2.439  -0.132  0.00  0.00    +0.223 A 
ATOM      6  N   UNL     1      -3.583  -3.435  -0.306  0.00  0.00    -0.193 NA
ATOM      7  C   UNL     1      -4.826  -2.963  -0.354  0.00  0.00    +0.170 A 
ATOM      8  C   UNL     1      -4.758  -1.579  -0.201  0.00  0.00    +0.157 A 
ATOM      9  C   UNL     1      -5.945  -0.829  -0.216  0.00  0.00    +0.280 A 
ATOM     10  O   UNL     1      -5.910   0.382  -0.085  0.00  0.00    -0.265 OA
ATOM     11  N   UNL     1      -7.125  -1.463  -0.378  0.00  0.00    -0.273 N 
ATOM     12  H   UNL     1      -7.972  -0.931  -0.389  0.00  0.00    +0.173 HD
ATOM     13  C   UNL     1      -7.181  -2.798  -0.525  0.00  0.00    +0.331 A 
ATOM     14  O   UNL     1      -8.263  -3.333  -0.669  0.00  0.00    -0.246 OA
ATOM     15  N   UNL     1      -6.069  -3.556  -0.516  0.00  0.00    -0.280 N 
ATOM     16  C   UNL     1      -6.172  -5.009  -0.679  0.00  0.00    +0.155 C 
ENDROOT
BRANCH   2  17
ATOM     17  C   UNL     1      -0.009  -0.025   0.340  0.00  0.00    +0.000 A 
ATOM     18  C   UNL     1       1.141  -0.685   0.775  0.00  0.00    +0.011 A 
ATOM     19  C   UNL     1       2.316   0.018   0.941  0.00  0.00    +0.020 A 
ATOM     20  C   UNL     1       2.357   1.377   0.676  0.00  0.00    +0.041 A 
ATOM     21  C   UNL     1       1.219   2.037   0.244  0.00  0.00    +0.020 A 
ATOM     22  C   UNL     1       0.038   1.344   0.075  0.00  0.00    +0.011 A 
ATOM     23 CL   UNL     1       3.839   2.255   0.887  0.00  0.00    -0.084 Cl
ENDBRANCH   2  17
BRANCH   1  27
ATOM     24  C   UNL     1       1.740  -4.896  -0.069  0.00  0.00    -0.047 A 
ATOM     25  C   UNL     1       0.840  -4.901   0.981  0.00  0.00    +0.005 A 
ATOM     26  C   UNL     1      -0.199  -3.992   1.006  0.00  0.00    +0.026 A 
ATOM     27  C   UNL     1      -0.340  -3.071  -0.024  0.00  0.00    +0.050 A 
ATOM     28  C   UNL     1       0.563  -3.072  -1.080  0.00  0.00    +0.026 A 
ATOM     29  C   UNL     1       1.603  -3.981  -1.096  0.00  0.00    +0.005 A 
BRANCH  24  31
ATOM     30  C   UNL     1       2.423  -7.158  -0.821  0.00  0.00    +0.009 C 
ATOM     31  C   UNL     1       2.873  -5.889  -0.093  0.00  0.00    +0.032 C 
ENDBRANCH  24  31
ENDBRANCH   1  27
TORSDOF 3
