REMARK  Name = ZINC61888025
REMARK  5 active torsions:
REMARK  status: ('A' for Active; 'I' for Inactive)
REMARK    1  A    between atoms: C_4  and  S_7
REMARK    2  A    between atoms: S_7  and  N_10
REMARK    3  A    between atoms: N_10  and  C_11
REMARK    4  A    between atoms: C_16  and  C_18
REMARK    5  A    between atoms: N_19  and  O_20
REMARK                            x       y       z     vdW  Elec       q    Type
REMARK                         _______ _______ _______ _____ _____    ______ ____
ROOT
ATOM      1  C   UNL     1       4.002  -2.061   1.165  0.00  0.00    +0.087 C 
ATOM      2  C   UNL     1       4.626  -0.684   0.881  0.00  0.00    +0.021 C 
ATOM      3  C   UNL     1       6.154  -0.890   0.850  0.00  0.00    +0.002 C 
ATOM      4  C   UNL     1       6.381  -2.171   1.691  0.00  0.00    +0.013 C 
ATOM      5  C   UNL     1       5.172  -3.057   1.298  0.00  0.00    +0.074 C 
ENDROOT
BRANCH   5   6
ATOM      6  C   UNL     1       4.884  -4.068   2.379  0.00  0.00    +0.136 C 
ATOM      7  N   UNL     1       5.268  -5.293   2.237  0.00  0.00    -0.076 NA
ATOM      8  N   UNL     1       4.212  -3.685   3.519  0.00  0.00    -0.344 N 
ATOM      9  H   UNL     1       3.924  -2.765   3.626  0.00  0.00    +0.144 HD
ATOM     10  H   UNL     1       4.027  -4.335   4.214  0.00  0.00    +0.144 HD
BRANCH   7  11
ATOM     11  O   UNL     1       6.056  -5.663   1.120  0.00  0.00    -0.408 OA
ATOM     12  H   UNL     1       6.294  -6.600   1.099  0.00  0.00    +0.328 HD
ENDBRANCH   7  11
ENDBRANCH   5   6
BRANCH   1  13
ATOM     13  N   UNL     1       3.130  -2.456   0.056  0.00  0.00    -0.186 NA
ATOM     14  H   UNL     1       3.510  -2.868  -0.736  0.00  0.00    +0.148 HD
BRANCH  13  15
ATOM     15  S   UNL     1       1.497  -2.199   0.154  0.00  0.00    +0.066 S 
ATOM     16  O   UNL     1       1.081  -2.702   1.416  0.00  0.00    -0.153 OA
ATOM     17  O   UNL     1       0.940  -2.657  -1.070  0.00  0.00    -0.153 OA
BRANCH  15  21
ATOM     18  C   UNL     1       0.128   1.620   0.300  0.00  0.00    +0.025 A 
ATOM     19  C   UNL     1       1.332   2.240   0.242  0.00  0.00    +0.048 A 
ATOM     20  S   UNL     1       2.457   0.856   0.154  0.00  0.00    -0.076 S 
ATOM     21  C   UNL     1       1.246  -0.455   0.200  0.00  0.00    +0.156 A 
ATOM     22  C   UNL     1       0.084   0.238   0.278  0.00  0.00    +0.051 A 
ATOM     23 BR   UNL     1      -1.573  -0.670   0.357  0.00  0.00    -0.048 Br
ENDBRANCH  15  21
ENDBRANCH  13  15
ENDBRANCH   1  13
TORSDOF 5
