REMARK  Name = ZINC36892918
REMARK  7 active torsions:
REMARK  status: ('A' for Active; 'I' for Inactive)
REMARK    1  A    between atoms: C_1  and  C_2
REMARK    2  A    between atoms: C_7  and  C_9
REMARK    3  A    between atoms: C_7  and  C_10
REMARK    4  A    between atoms: N_13  and  C_17
REMARK    5  A    between atoms: C_17  and  C_18
REMARK    6  A    between atoms: N_20  and  N_21
REMARK    7  A    between atoms: C_22  and  C_24
REMARK                            x       y       z     vdW  Elec       q    Type
REMARK                         _______ _______ _______ _____ _____    ______ ____
ROOT
ATOM      1  C   UNL     1      -1.431  -5.488  -2.763  0.00  0.00    +0.247 C 
ATOM      2  O   UNL     1      -1.057  -5.765  -1.643  0.00  0.00    -0.273 OA
ATOM      3  N   UNL     1      -1.311  -6.390  -3.757  0.00  0.00    -0.233 N 
ATOM      4  H   UNL     1      -1.611  -6.169  -4.652  0.00  0.00    +0.173 HD
ENDROOT
BRANCH   3   5
ATOM      5  N   UNL     1      -0.753  -7.649  -3.496  0.00  0.00    -0.234 N 
ATOM      6  C   UNL     1      -0.633  -8.552  -4.490  0.00  0.00    +0.235 C 
ATOM      7  O   UNL     1      -1.008  -8.274  -5.609  0.00  0.00    -0.274 OA
ATOM      8  H   UNL     1      -0.454  -7.871  -2.601  0.00  0.00    +0.173 HD
BRANCH   6   9
ATOM      9  C   UNL     1      -0.033  -9.905  -4.209  0.00  0.00    +0.049 C 
ATOM     10  C   UNL     1      -0.874 -10.627  -3.154  0.00  0.00    +0.019 C 
ATOM     11  C   UNL     1      -0.265 -12.001  -2.869  0.00  0.00    -0.009 C 
ATOM     12  C   UNL     1      -0.245 -12.827  -4.158  0.00  0.00    +0.007 C 
ATOM     13  C   UNL     1       0.596 -12.105  -5.213  0.00  0.00    -0.009 C 
ATOM     14  C   UNL     1      -0.013 -10.731  -5.497  0.00  0.00    +0.019 C 
ATOM     15  C   UNL     1       2.025 -11.932  -4.696  0.00  0.00    +0.007 C 
ATOM     16  C   UNL     1       2.005 -11.107  -3.408  0.00  0.00    -0.009 C 
ATOM     17  C   UNL     1       1.165 -11.829  -2.352  0.00  0.00    +0.007 C 
ATOM     18  C   UNL     1       1.396  -9.732  -3.692  0.00  0.00    +0.019 C 
ENDBRANCH   6   9
ENDBRANCH   3   5
BRANCH   1  19
ATOM     19  C   UNL     1      -2.031  -4.134  -3.043  0.00  0.00    +0.215 C 
BRANCH  19  31
ATOM     20  C   UNL     1      -0.019   1.528   0.010  0.00  0.00    +0.007 C 
ATOM     21  C   UNL     1       0.002  -0.004   0.002  0.00  0.00    -0.011 C 
ATOM     22  C   UNL     1      -1.435  -0.529   0.021  0.00  0.00    +0.038 C 
ATOM     23  C   UNL     1      -1.427  -2.050  -0.036  0.00  0.00    +0.113 C 
ATOM     24  C   UNL     1      -0.575  -2.676   1.049  0.00  0.00    +0.041 C 
ATOM     25  C   UNL     1       0.782  -2.031   1.270  0.00  0.00    -0.032 C 
ATOM     26  C   UNL     1       0.719  -0.508   1.253  0.00  0.00    +0.009 C 
ATOM     27  C   UNL     1       1.296  -2.464   2.661  0.00  0.00    +0.011 C 
ATOM     28  C   UNL     1       1.795  -2.526   0.234  0.00  0.00    +0.011 C 
ATOM     29  C   UNL     1      -1.044  -2.534  -1.413  0.00  0.00    +0.247 C 
ATOM     30  O   UNL     1      -0.058  -2.253  -2.060  0.00  0.00    -0.273 OA
ATOM     31  N   UNL     1      -2.050  -3.344  -1.810  0.00  0.00    -0.215 N 
ATOM     32  C   UNL     1      -3.063  -3.331  -0.937  0.00  0.00    +0.310 C 
ATOM     33  O   UNL     1      -4.088  -3.969  -1.082  0.00  0.00    -0.252 OA
ATOM     34  N   UNL     1      -2.817  -2.537   0.119  0.00  0.00    -0.285 N 
ATOM     35  H   UNL     1      -3.418  -2.318   0.845  0.00  0.00    +0.151 HD
ENDBRANCH  19  31
ENDBRANCH   1  19
TORSDOF 4
