REMARK  Name = ZINC00464615
REMARK  6 active torsions:
REMARK  status: ('A' for Active; 'I' for Inactive)
REMARK    1  A    between atoms: C_1  and  C_2
REMARK    2  A    between atoms: C_2  and  C_4
REMARK    3  A    between atoms: C_2  and  O_8
REMARK    4  A    between atoms: C_4  and  O_6
REMARK    5  A    between atoms: O_6  and  C_7
REMARK    6  A    between atoms: O_8  and  C_9
REMARK                            x       y       z     vdW  Elec       q    Type
REMARK                         _______ _______ _______ _____ _____    ______ ____
ROOT
ATOM      1  C   UNL     1       2.045  -0.563   1.073  0.00  0.00    +0.125 A 
ATOM      2  C   UNL     1       2.688  -0.182  -0.103  0.00  0.00    +0.046 A 
ATOM      3  C   UNL     1       4.047  -0.261  -0.205  0.00  0.00    +0.015 A 
ATOM      4  C   UNL     1       4.798  -0.728   0.879  0.00  0.00    +0.021 A 
ATOM      5  C   UNL     1       4.155  -1.116   2.067  0.00  0.00    +0.143 A 
ATOM      6  C   UNL     1       2.775  -1.024   2.157  0.00  0.00    +0.092 A 
ATOM      7  O   UNL     1       4.889  -1.567   3.107  0.00  0.00    -0.422 OA
ATOM      8  C   UNL     1       6.221  -1.675   3.022  0.00  0.00    +0.341 A 
ATOM      9  O   UNL     1       6.839  -2.111   3.976  0.00  0.00    -0.245 OA
ATOM     10  C   UNL     1       6.936  -1.299   1.856  0.00  0.00    +0.041 A 
ATOM     11  C   UNL     1       6.264  -0.815   0.794  0.00  0.00    -0.027 A 
ATOM     12  C   UNL     1       6.925  -0.335  -0.472  0.00  0.00    +0.036 C 
ATOM     13  C   UNL     1       8.231  -1.083  -0.739  0.00  0.00    +0.005 C 
ATOM     14  C   UNL     1       9.377  -0.302  -0.091  0.00  0.00    +0.001 C 
ATOM     15  C   UNL     1       9.140  -0.205   1.414  0.00  0.00    +0.005 C 
ATOM     16  C   UNL     1       8.430  -1.484   1.861  0.00  0.00    +0.042 C 
ENDROOT
BRANCH   1  17
ATOM     17  O   UNL     1       0.693  -0.477   1.160  0.00  0.00    -0.478 OA
BRANCH  17  19
ATOM     18  C   UNL     1      -0.095  -2.275   2.569  0.00  0.00    +0.064 C 
ATOM     19  C   UNL     1       0.104  -0.765   2.430  0.00  0.00    +0.278 C 
BRANCH  19  20
ATOM     20  C   UNL     1      -1.229  -0.070   2.534  0.00  0.00    +0.348 C 
ATOM     21  O   UNL     1      -1.675   0.528   1.583  0.00  0.00    -0.247 OA
BRANCH  20  22
ATOM     22  O   UNL     1      -1.921  -0.114   3.683  0.00  0.00    -0.465 OA
ATOM     23  C   UNL     1      -3.177   0.567   3.712  0.00  0.00    +0.280 C 
ENDBRANCH  20  22
ENDBRANCH  19  20
ENDBRANCH  17  19
ENDBRANCH   1  17
TORSDOF 4
