REMARK  Name = ZINC35374907
REMARK  6 active torsions:
REMARK  status: ('A' for Active; 'I' for Inactive)
REMARK    1  A    between atoms: C_1  and  C_2
REMARK    2  A    between atoms: C_2  and  C_3
REMARK    3  A    between atoms: C_3  and  C_5
REMARK    4  A    between atoms: C_3  and  N_6
REMARK    5  A    between atoms: C_11  and  C_29
REMARK    6  A    between atoms: C_29  and  C_30
REMARK                            x       y       z     vdW  Elec       q    Type
REMARK                         _______ _______ _______ _____ _____    ______ ____
ROOT
ATOM      1  N   UNL     1      -0.055  -0.114  -2.441  0.00  0.00    -0.239 N 
ATOM      2  C   UNL     1      -1.315  -0.515  -2.643  0.00  0.00    +0.227 C 
ATOM      3  O   UNL     1      -1.953  -1.224  -1.894  0.00  0.00    -0.275 OA
ATOM      4  C   UNL     1      -1.820   0.053  -3.950  0.00  0.00    +0.107 C 
ATOM      5  C   UNL     1      -2.010  -1.097  -4.963  0.00  0.00    +0.076 C 
ATOM      6  N   UNL     1      -1.393  -0.601  -6.222  0.00  0.00    -0.295 NA
ATOM      7  C   UNL     1      -0.194   0.131  -5.772  0.00  0.00    +0.136 C 
ATOM      8  C   UNL     1      -0.608   0.871  -4.476  0.00  0.00    +0.122 C 
ATOM      9  C   UNL     1       0.440   0.671  -3.405  0.00  0.00    +0.228 C 
ATOM     10  O   UNL     1       1.555   1.145  -3.418  0.00  0.00    -0.275 OA
ATOM     11  C   UNL     1       0.963  -0.800  -5.541  0.00  0.00    +0.006 A 
ATOM     12  C   UNL     1       1.156  -1.884  -4.714  0.00  0.00    +0.046 A 
ATOM     13  C   UNL     1       2.365  -2.561  -4.730  0.00  0.00    +0.124 A 
ATOM     14  C   UNL     1       3.377  -2.142  -5.578  0.00  0.00    +0.040 A 
ATOM     15  C   UNL     1       3.186  -1.056  -6.406  0.00  0.00    +0.026 A 
ATOM     16  C   UNL     1       1.973  -0.371  -6.396  0.00  0.00    +0.039 A 
ATOM     17  N   UNL     1       1.546   0.740  -7.130  0.00  0.00    -0.283 N 
ATOM     18  C   UNL     1       0.285   1.097  -6.821  0.00  0.00    +0.243 C 
ATOM     19  O   UNL     1      -0.344   2.019  -7.296  0.00  0.00    -0.273 OA
ATOM     20  F   UNL     1       2.557  -3.624  -3.920  0.00  0.00    -0.205 F 
ATOM     21  H   UNL     1      -1.143  -1.367  -6.828  0.00  0.00    +0.124 HD
ATOM     22  H   UNL     1       2.094   1.200  -7.785  0.00  0.00    +0.155 HD
ENDROOT
BRANCH   1  23
ATOM     23  C   UNL     1       0.718  -0.497  -1.257  0.00  0.00    +0.081 C 
ATOM     24  C   UNL     1       0.849  -2.021  -1.205  0.00  0.00    +0.028 C 
BRANCH  23  26
ATOM     25  C   UNL     1      -0.019   1.526   0.010  0.00  0.00    +0.006 C 
ATOM     26  C   UNL     1       0.002  -0.004   0.002  0.00  0.00    +0.019 C 
ENDBRANCH  23  26
ENDBRANCH   1  23
BRANCH   5  27
ATOM     27  C   UNL     1      -3.498  -1.381  -5.172  0.00  0.00    +0.115 C 
BRANCH  27  28
ATOM     28  C   UNL     1      -3.659  -2.583  -6.067  0.00  0.00    +0.212 C 
ATOM     29  O   UNL     1      -2.679  -3.156  -6.494  0.00  0.00    -0.276 OA
ATOM     30  N   UNL     1      -4.891  -3.022  -6.391  0.00  0.00    -0.329 N 
ATOM     31  H   UNL     1      -5.675  -2.564  -6.049  0.00  0.00    +0.145 HD
ATOM     32  H   UNL     1      -4.995  -3.796  -6.967  0.00  0.00    +0.145 HD
ENDBRANCH  27  28
ENDBRANCH   5  27
TORSDOF 4
