REMARK  Name = ZINC00111977
REMARK  8 active torsions:
REMARK  status: ('A' for Active; 'I' for Inactive)
REMARK    1  A    between atoms: C_1  and  C_2
REMARK    2  A    between atoms: C_2  and  O_3
REMARK    3  A    between atoms: O_3  and  C_4
REMARK    4  A    between atoms: C_7  and  C_10
REMARK    5  A    between atoms: C_15  and  C_24
REMARK    6  A    between atoms: C_17  and  C_23
REMARK    7  A    between atoms: C_19  and  O_21
REMARK    8  A    between atoms: O_21  and  C_22
REMARK                            x       y       z     vdW  Elec       q    Type
REMARK                         _______ _______ _______ _____ _____    ______ ____
ROOT
ATOM      1  C   UNL     1      -0.185   5.057   0.240  0.00  0.00    -0.011 A 
ATOM      2  C   UNL     1      -0.730   6.063   1.018  0.00  0.00    +0.060 A 
ATOM      3  C   UNL     1      -1.440   5.966   2.228  0.00  0.00    +0.191 A 
ATOM      4  O   UNL     1      -1.822   7.015   2.724  0.00  0.00    -0.287 OA
ATOM      5  C   UNL     1      -1.771   4.733   2.958  0.00  0.00    +0.073 A 
ATOM      6  C   UNL     1      -2.454   4.643   4.122  0.00  0.00    +0.114 A 
ATOM      7  O   UNL     1      -2.549   3.349   4.463  0.00  0.00    -0.464 OA
ATOM      8  C   UNL     1      -1.948   2.561   3.561  0.00  0.00    +0.113 A 
ATOM      9  C   UNL     1      -1.436   3.343   2.578  0.00  0.00    +0.068 A 
ATOM     10  C   UNL     1      -0.693   2.891   1.400  0.00  0.00    +0.132 A 
ATOM     11  C   UNL     1      -0.166   3.664   0.403  0.00  0.00    +0.055 A 
ATOM     12  C   UNL     1      -1.861   1.057   3.625  0.00  0.00    +0.087 C 
ATOM     13  C   UNL     1      -3.015   5.802   4.905  0.00  0.00    +0.087 C 
ENDROOT
BRANCH   1  17
ATOM     14  C   UNL     1       1.785   6.433  -3.266  0.00  0.00    +0.121 A 
ATOM     15  C   UNL     1       0.636   7.074  -2.820  0.00  0.00    +0.046 A 
ATOM     16  C   UNL     1      -0.005   6.631  -1.683  0.00  0.00    +0.012 A 
ATOM     17  C   UNL     1       0.501   5.536  -0.981  0.00  0.00    -0.017 A 
ATOM     18  C   UNL     1       1.658   4.897  -1.429  0.00  0.00    +0.012 A 
ATOM     19  C   UNL     1       2.292   5.343  -2.569  0.00  0.00    +0.046 A 
BRANCH  14  20
ATOM     20  O   UNL     1       2.415   6.874  -4.385  0.00  0.00    -0.492 OA
BRANCH  20  22
ATOM     21  C   UNL     1       4.157   6.804  -6.059  0.00  0.00    +0.048 C 
ATOM     22  C   UNL     1       3.591   6.169  -4.788  0.00  0.00    +0.225 C 
ENDBRANCH  20  22
ENDBRANCH  14  20
ENDBRANCH   1  17
BRANCH  10  23
ATOM     23  O   UNL     1      -0.511   1.555   1.283  0.00  0.00    -0.494 OA
ATOM     24  C   UNL     1       0.208   1.096   0.136  0.00  0.00    +0.277 C 
ENDBRANCH  10  23
TORSDOF 4
