REMARK  Name = ZINC39864753
REMARK  5 active torsions:
REMARK  status: ('A' for Active; 'I' for Inactive)
REMARK    1  A    between atoms: C_1  and  C_2
REMARK    2  A    between atoms: C_2  and  C_16
REMARK    3  A    between atoms: N_6  and  C_15
REMARK    4  A    between atoms: N_8  and  C_9
REMARK    5  A    between atoms: C_19  and  O_22
REMARK                            x       y       z     vdW  Elec       q    Type
REMARK                         _______ _______ _______ _____ _____    ______ ____
ROOT
ATOM      1  C   UNL     1       0.227   1.338  -0.157  0.00  0.00    +0.045 C 
ATOM      2  C   UNL     1       0.235  -0.166  -0.066  0.00  0.00    -0.024 C 
ATOM      3  C   UNL     1       0.051  -0.775   1.134  0.00  0.00    +0.081 C 
ATOM      4  C   UNL     1      -0.178  -0.176   2.462  0.00  0.00    +0.259 C 
ATOM      5  O   UNL     1      -0.227   1.031   2.616  0.00  0.00    -0.269 OA
ATOM      6  N   UNL     1      -0.328  -1.009   3.478  0.00  0.00    -0.249 N 
ATOM      7  C   UNL     1      -0.269  -2.371   3.284  0.00  0.00    +0.170 C 
ATOM      8  N   UNL     1      -0.396  -3.331   4.176  0.00  0.00    -0.199 NA
ATOM      9  S   UNL     1       0.013  -2.518   1.527  0.00  0.00    -0.048 S 
ATOM     10  C   UNL     1      -0.558  -0.478   4.824  0.00  0.00    +0.140 C 
ENDROOT
BRANCH   2  11
ATOM     11  C   UNL     1       0.441  -0.973  -1.275  0.00  0.00    -0.021 A 
ATOM     12  C   UNL     1       1.583  -1.775  -1.398  0.00  0.00    +0.012 A 
ATOM     13  C   UNL     1       1.771  -2.531  -2.534  0.00  0.00    +0.046 A 
ATOM     14  C   UNL     1       0.831  -2.498  -3.557  0.00  0.00    +0.117 A 
ATOM     15  C   UNL     1      -0.304  -1.704  -3.440  0.00  0.00    +0.046 A 
ATOM     16  C   UNL     1      -0.505  -0.948  -2.307  0.00  0.00    +0.012 A 
BRANCH  14  17
ATOM     17  O   UNL     1       1.022  -3.244  -4.675  0.00  0.00    -0.507 OA
ATOM     18  H   UNL     1       0.645  -4.133  -4.623  0.00  0.00    +0.292 HD
ENDBRANCH  14  17
ENDBRANCH   2  11
BRANCH   8  19
ATOM     19  C   UNL     1      -0.528  -3.023   5.492  0.00  0.00    +0.195 A 
ATOM     20  N   UNL     1      -1.632  -2.816   6.204  0.00  0.00    -0.230 NA
ATOM     21  C   UNL     1      -1.569  -2.523   7.485  0.00  0.00    +0.121 A 
ATOM     22  C   UNL     1      -0.363  -2.429   8.099  0.00  0.00    +0.068 A 
ATOM     23  S   UNL     1       0.735  -2.793   6.736  0.00  0.00    -0.056 S 
ENDBRANCH   8  19
TORSDOF 3
