REMARK  Name = ZINC01084729
REMARK  8 active torsions:
REMARK  status: ('A' for Active; 'I' for Inactive)
REMARK    1  A    between atoms: C_1  and  C_2
REMARK    2  A    between atoms: C_2  and  C_3
REMARK    3  A    between atoms: C_2  and  C_4
REMARK    4  A    between atoms: C_7  and  O_10
REMARK    5  A    between atoms: O_10  and  C_11
REMARK    6  A    between atoms: C_11  and  C_12
REMARK    7  A    between atoms: N_14  and  N_15
REMARK    8  A    between atoms: C_16  and  C_17
REMARK                            x       y       z     vdW  Elec       q    Type
REMARK                         _______ _______ _______ _____ _____    ______ ____
ROOT
ATOM      1  C   UNL     1       2.211   5.600   0.010  0.00  0.00    +0.270 C 
ATOM      2  O   UNL     1       1.084   6.051   0.023  0.00  0.00    -0.270 OA
ATOM      3  N   UNL     1       3.270   6.433   0.004  0.00  0.00    -0.204 N 
ATOM      4  H   UNL     1       4.171   6.073  -0.006  0.00  0.00    +0.177 HD
ENDROOT
BRANCH   3   5
ATOM      5  N   UNL     1       3.070   7.820   0.013  0.00  0.00    -0.188 NA
ATOM      6  C   UNL     1       4.092   8.624   0.008  0.00  0.00    +0.141 C 
BRANCH   6   7
ATOM      7  C   UNL     1       3.882  10.079   0.017  0.00  0.00    +0.038 A 
ATOM      8  C   UNL     1       4.926  11.120   0.013  0.00  0.00    +0.010 A 
ATOM      9  C   UNL     1       6.319  11.092  -0.000  0.00  0.00    +0.011 A 
ATOM     10  C   UNL     1       7.025  12.274  -0.002  0.00  0.00    +0.001 A 
ATOM     11  C   UNL     1       6.356  13.490   0.009  0.00  0.00    +0.002 A 
ATOM     12  C   UNL     1       4.979  13.533   0.022  0.00  0.00    +0.026 A 
ATOM     13  C   UNL     1       4.247  12.350   0.024  0.00  0.00    +0.048 A 
ATOM     14  N   UNL     1       2.895  12.077   0.035  0.00  0.00    -0.345 N 
ATOM     15  H   UNL     1       2.194  12.747   0.044  0.00  0.00    +0.167 HD
ATOM     16  C   UNL     1       2.685  10.730   0.025  0.00  0.00    +0.116 A 
ATOM     17 CL   UNL     1       1.129   9.961   0.027  0.00  0.00    -0.063 Cl
ENDBRANCH   6   7
ENDBRANCH   3   5
BRANCH   1  18
ATOM     18  C   UNL     1       2.426   4.108   0.001  0.00  0.00    +0.326 C 
BRANCH  18  19
ATOM     19  O   UNL     1       1.160   3.445   0.009  0.00  0.00    -0.483 OA
BRANCH  19  23
ATOM     20  C   UNL     1       1.208  -0.680  -0.013  0.00  0.00    -0.045 A 
ATOM     21  C   UNL     1       0.002  -0.004   0.002  0.00  0.00    +0.007 A 
ATOM     22  C   UNL     1      -0.017   1.377   0.010  0.00  0.00    +0.046 A 
ATOM     23  C   UNL     1       1.176   2.086   0.002  0.00  0.00    +0.121 A 
ATOM     24  C   UNL     1       2.385   1.405  -0.013  0.00  0.00    +0.046 A 
ATOM     25  C   UNL     1       2.398   0.024  -0.021  0.00  0.00    +0.007 A 
BRANCH  20  27
ATOM     26  C   UNL     1       1.940  -2.682  -1.280  0.00  0.00    +0.012 C 
ATOM     27  C   UNL     1       1.226  -2.187  -0.021  0.00  0.00    +0.013 C 
ATOM     28  C   UNL     1       1.965  -2.695   1.219  0.00  0.00    +0.012 C 
ENDBRANCH  20  27
ENDBRANCH  19  23
ENDBRANCH  18  19
ENDBRANCH   1  18
TORSDOF 6
