REMARK  Name = ZINC14460652
REMARK  8 active torsions:
REMARK  status: ('A' for Active; 'I' for Inactive)
REMARK    1  A    between atoms: C_1  and  C_2
REMARK    2  A    between atoms: C_2  and  C_3
REMARK    3  A    between atoms: C_3  and  N_4
REMARK    4  A    between atoms: N_4  and  C_5
REMARK    5  A    between atoms: C_5  and  C_6
REMARK    6  A    between atoms: C_6  and  C_7
REMARK    7  A    between atoms: C_8  and  C_10
REMARK    8  A    between atoms: C_23  and  C_26
REMARK                            x       y       z     vdW  Elec       q    Type
REMARK                         _______ _______ _______ _____ _____    ______ ____
ROOT
ATOM      1  C   UNL     1       3.787   4.562  -1.759  0.00  0.00    +0.037 A 
ATOM      2  C   UNL     1       2.615   5.322  -1.822  0.00  0.00    +0.015 A 
ATOM      3  C   UNL     1       1.452   4.740  -2.267  0.00  0.00    +0.024 A 
ATOM      4  C   UNL     1       1.440   3.402  -2.653  0.00  0.00    +0.031 A 
ATOM      5  C   UNL     1       2.599   2.637  -2.595  0.00  0.00    -0.019 A 
ATOM      6  C   UNL     1       3.770   3.222  -2.147  0.00  0.00    +0.019 A 
ATOM      7  C   UNL     1       2.628   1.197  -2.999  0.00  0.00    +0.049 C 
ATOM      8  C   UNL     1       3.295   1.014  -4.341  0.00  0.00    -0.023 C 
ATOM      9  C   UNL     1       2.700   0.062  -5.018  0.00  0.00    -0.030 C 
ATOM     10  C   UNL     1       1.556  -0.525  -4.215  0.00  0.00    +0.033 C 
ATOM     11  C   UNL     1       1.220   0.599  -3.191  0.00  0.00    +0.029 C 
ATOM     12  C   UNL     1       0.317   1.609  -3.903  0.00  0.00    +0.105 C 
ATOM     13  N   UNL     1       0.249   2.835  -3.101  0.00  0.00    -0.336 N 
ATOM     14  H   UNL     1      -0.606   3.242  -2.888  0.00  0.00    +0.147 HD
ENDROOT
BRANCH  12  15
ATOM     15  C   UNL     1       0.888   1.927  -5.261  0.00  0.00    -0.026 A 
ATOM     16  C   UNL     1       1.927   2.832  -5.380  0.00  0.00    +0.005 A 
ATOM     17  C   UNL     1       2.454   3.120  -6.625  0.00  0.00    +0.002 A 
ATOM     18  C   UNL     1       1.937   2.510  -7.753  0.00  0.00    +0.020 A 
ATOM     19  C   UNL     1       0.894   1.609  -7.635  0.00  0.00    +0.041 A 
ATOM     20  C   UNL     1       0.370   1.317  -6.388  0.00  0.00    +0.025 A 
ATOM     21 CL   UNL     1       0.244   0.843  -9.051  0.00  0.00    -0.084 Cl
ENDBRANCH  12  15
BRANCH   1  23
ATOM     22  N   UNL     1       5.259   6.493  -1.469  0.00  0.00    -0.298 N 
ATOM     23  C   UNL     1       5.041   5.176  -1.283  0.00  0.00    +0.247 C 
ATOM     24  O   UNL     1       5.877   4.495  -0.722  0.00  0.00    -0.270 OA
BRANCH  22  25
ATOM     25  C   UNL     1       6.559   7.075  -1.128  0.00  0.00    +0.108 C 
BRANCH  25  27
ATOM     26  C   UNL     1       8.882   7.498  -1.944  0.00  0.00    +0.005 C 
ATOM     27  C   UNL     1       7.524   6.890  -2.301  0.00  0.00    +0.016 C 
ENDBRANCH  25  27
ENDBRANCH  22  25
BRANCH  22  28
ATOM     28  C   UNL     1       4.196   7.342  -2.013  0.00  0.00    +0.108 C 
BRANCH  28  29
ATOM     29  C   UNL     1       3.501   8.085  -0.870  0.00  0.00    +0.016 C 
ATOM     30  C   UNL     1       2.391   8.971  -1.438  0.00  0.00    +0.005 C 
ENDBRANCH  28  29
ENDBRANCH  22  28
ENDBRANCH   1  23
TORSDOF 6
