REMARK  Name = ZINC09434888
REMARK  5 active torsions:
REMARK  status: ('A' for Active; 'I' for Inactive)
REMARK    1  A    between atoms: C_4  and  C_7
REMARK    2  A    between atoms: C_12  and  C_30
REMARK    3  A    between atoms: C_18  and  C_22
REMARK    4  A    between atoms: C_22  and  C_24
REMARK    5  A    between atoms: C_33  and  N_36
REMARK                            x       y       z     vdW  Elec       q    Type
REMARK                         _______ _______ _______ _____ _____    ______ ____
ROOT
ATOM      1  C   UNL     1      10.098   0.355  -2.213  0.00  0.00    +0.032 C 
ATOM      2  C   UNL     1       8.680   0.194  -1.668  0.00  0.00    +0.059 C 
ATOM      3  C   UNL     1       8.113   1.554  -1.294  0.00  0.00    +0.017 C 
ATOM      4  C   UNL     1       8.454   2.648  -1.994  0.00  0.00    +0.036 C 
ATOM      5  C   UNL     1       7.938   4.048  -1.757  0.00  0.00    +0.136 C 
ATOM      6  N   UNL     1       7.211   4.217  -0.517  0.00  0.00    -0.331 N 
ATOM      7  C   UNL     1       6.010   3.562  -0.293  0.00  0.00    +0.049 A 
ATOM      8  C   UNL     1       4.816   4.263  -0.169  0.00  0.00    +0.025 A 
ATOM      9  C   UNL     1       3.634   3.574  -0.011  0.00  0.00    +0.013 A 
ATOM     10  C   UNL     1       3.633   2.175   0.037  0.00  0.00    +0.024 A 
ATOM     11  C   UNL     1       4.840   1.471  -0.073  0.00  0.00    +0.036 A 
ATOM     12  C   UNL     1       6.018   2.173  -0.221  0.00  0.00    +0.053 A 
ATOM     13  N   UNL     1       7.256   1.541  -0.241  0.00  0.00    -0.316 N 
ATOM     14  C   UNL     1       9.378   2.552  -3.061  0.00  0.00    +0.163 C 
ATOM     15  O   UNL     1       9.658   3.557  -3.685  0.00  0.00    -0.292 OA
ATOM     16  C   UNL     1      10.023   1.256  -3.451  0.00  0.00    +0.088 C 
ATOM     17  H   UNL     1       7.571   4.799   0.171  0.00  0.00    +0.147 HD
ATOM     18  H   UNL     1       7.527   1.056   0.554  0.00  0.00    +0.152 HD
ENDROOT
BRANCH   1  22
ATOM     19  C   UNL     1      11.674  -3.465  -3.297  0.00  0.00    +0.000 A 
ATOM     20  C   UNL     1      12.311  -2.701  -2.336  0.00  0.00    +0.000 A 
ATOM     21  C   UNL     1      11.801  -1.465  -1.986  0.00  0.00    +0.004 A 
ATOM     22  C   UNL     1      10.654  -0.993  -2.595  0.00  0.00    -0.044 A 
ATOM     23  C   UNL     1      10.014  -1.758  -3.552  0.00  0.00    +0.004 A 
ATOM     24  C   UNL     1      10.527  -2.992  -3.906  0.00  0.00    +0.000 A 
ENDBRANCH   1  22
BRANCH   5  25
ATOM     25  C   UNL     1       7.029   4.421  -2.899  0.00  0.00    -0.023 A 
ATOM     26  C   UNL     1       5.837   3.745  -3.083  0.00  0.00    +0.008 A 
ATOM     27  C   UNL     1       5.001   4.091  -4.128  0.00  0.00    +0.033 A 
ATOM     28  C   UNL     1       5.360   5.107  -4.994  0.00  0.00    +0.126 A 
ATOM     29  C   UNL     1       6.554   5.780  -4.812  0.00  0.00    +0.033 A 
ATOM     30  C   UNL     1       7.389   5.437  -3.765  0.00  0.00    +0.008 A 
BRANCH  28  31
ATOM     31  N   UNL     1       4.466   5.475  -6.115  0.00  0.00    +0.056 N 
ATOM     32  O   UNL     1       4.783   6.370  -6.877  0.00  0.00    -0.126 OA
ATOM     33  O   UNL     1       3.414   4.882  -6.274  0.00  0.00    -0.126 OA
ENDBRANCH  28  31
ENDBRANCH   5  25
BRANCH  10  34
ATOM     34  C   UNL     1       2.364   1.443   0.195  0.00  0.00    +0.193 C 
ATOM     35  O   UNL     1       2.217   0.359  -0.337  0.00  0.00    -0.287 OA
BRANCH  34  36
ATOM     36  C   UNL     1       1.271   2.025   1.001  0.00  0.00    +0.022 A 
ATOM     37  C   UNL     1       0.016   1.412   1.029  0.00  0.00    +0.012 A 
ATOM     38  C   UNL     1      -1.001   1.964   1.778  0.00  0.00    +0.001 A 
ATOM     39  C   UNL     1      -0.778   3.117   2.511  0.00  0.00    +0.000 A 
ATOM     40  C   UNL     1       0.462   3.730   2.488  0.00  0.00    +0.001 A 
ATOM     41  C   UNL     1       1.487   3.191   1.738  0.00  0.00    +0.012 A 
ENDBRANCH  34  36
ENDBRANCH  10  34
TORSDOF 5
