REMARK  Name = ZINC39520940
REMARK  4 active torsions:
REMARK  status: ('A' for Active; 'I' for Inactive)
REMARK    1  A    between atoms: C_4  and  C_7
REMARK    2  A    between atoms: C_7  and  C_8
REMARK    3  A    between atoms: N_20  and  C_21
REMARK    4  A    between atoms: C_21  and  C_22
REMARK                            x       y       z     vdW  Elec       q    Type
REMARK                         _______ _______ _______ _____ _____    ______ ____
ROOT
ATOM      1  C   UNL     1       4.122  -0.545   1.310  0.00  0.00    -0.008 C 
ATOM      2  C   UNL     1       3.184  -1.640   1.817  0.00  0.00    +0.004 C 
ATOM      3  C   UNL     1       3.708  -2.135   3.166  0.00  0.00    -0.001 C 
ATOM      4  C   UNL     1       5.087  -2.748   2.989  0.00  0.00    -0.012 C 
ATOM      5  C   UNL     1       6.101  -1.864   2.292  0.00  0.00    -0.063 C 
ATOM      6  C   UNL     1       5.522  -1.094   1.107  0.00  0.00    -0.008 C 
ATOM      7  C   UNL     1       7.145  -2.830   1.661  0.00  0.00    -0.012 C 
ATOM      8  C   UNL     1       7.751  -3.668   2.783  0.00  0.00    -0.002 C 
ATOM      9  C   UNL     1       8.515  -2.745   3.729  0.00  0.00    -0.005 C 
ATOM     10  C   UNL     1       7.649  -1.593   4.208  0.00  0.00    -0.002 C 
ATOM     11  N   UNL     1       6.830  -0.971   3.180  0.00  0.00    +0.394 N 
ATOM     12  I   UNL     1       6.442  -2.203   5.893  0.00  0.00    -0.103 I 
ATOM     13  H   UNL     1       7.478  -0.429   2.580  0.00  0.00    -0.079 HD
ENDROOT
BRANCH   1  14
ATOM     14  C   UNL     1       3.585  -0.021  -0.032  0.00  0.00    +0.038 C 
BRANCH  14  18
ATOM     15  C   UNL     1      -0.238   1.788   0.571  0.00  0.00    +0.000 A 
ATOM     16  C   UNL     1       0.911   2.549   0.674  0.00  0.00    +0.000 A 
ATOM     17  C   UNL     1       2.148   1.964   0.479  0.00  0.00    +0.003 A 
ATOM     18  C   UNL     1       2.237   0.617   0.182  0.00  0.00    -0.047 A 
ATOM     19  C   UNL     1       1.088  -0.145   0.080  0.00  0.00    +0.003 A 
ATOM     20  C   UNL     1      -0.149   0.441   0.274  0.00  0.00    +0.000 A 
ENDBRANCH  14  18
ENDBRANCH   1  14
BRANCH  11  21
ATOM     21  C   UNL     1       5.959   0.026   3.819  0.00  0.00    -0.041 C 
BRANCH  21  22
ATOM     22  C   UNL     1       6.804   1.036   4.551  0.00  0.00    -0.064 A 
ATOM     23  C   UNL     1       7.018   0.904   5.910  0.00  0.00    +0.002 A 
ATOM     24  C   UNL     1       7.793   1.831   6.582  0.00  0.00    +0.000 A 
ATOM     25  C   UNL     1       8.355   2.890   5.894  0.00  0.00    +0.000 A 
ATOM     26  C   UNL     1       8.142   3.022   4.534  0.00  0.00    +0.000 A 
ATOM     27  C   UNL     1       7.370   2.093   3.862  0.00  0.00    +0.002 A 
ENDBRANCH  21  22
ENDBRANCH  11  21
TORSDOF 4
