REMARK  Name = ZINC20734919
REMARK  9 active torsions:
REMARK  status: ('A' for Active; 'I' for Inactive)
REMARK    1  A    between atoms: C_1  and  C_2
REMARK    2  A    between atoms: C_2  and  C_3
REMARK    3  A    between atoms: C_3  and  C_5
REMARK    4  A    between atoms: C_3  and  C_6
REMARK    5  A    between atoms: C_6  and  C_8
REMARK    6  A    between atoms: C_6  and  N_12
REMARK    7  A    between atoms: C_8  and  O_10
REMARK    8  A    between atoms: O_10  and  C_11
REMARK    9  A    between atoms: C_24  and  C_26
REMARK                            x       y       z     vdW  Elec       q    Type
REMARK                         _______ _______ _______ _____ _____    ______ ____
ROOT
ATOM      1  N   UNL     1       0.112  -2.156  -3.205  0.00  0.00    -0.286 N 
ATOM      2  C   UNL     1       0.889  -1.135  -3.619  0.00  0.00    +0.304 C 
ATOM      3  O   UNL     1       0.755  -0.031  -3.127  0.00  0.00    -0.253 OA
ATOM      4  N   UNL     1       1.813  -1.337  -4.579  0.00  0.00    -0.273 N 
ATOM      5  C   UNL     1       2.750  -0.270  -4.959  0.00  0.00    +0.116 C 
ATOM      6  C   UNL     1       4.179  -0.709  -4.611  0.00  0.00    +0.074 C 
ATOM      7  C   UNL     1       4.373  -2.132  -5.064  0.00  0.00    +0.040 A 
ATOM      8  C   UNL     1       3.373  -2.992  -5.355  0.00  0.00    +0.062 A 
ATOM      9  N   UNL     1       3.919  -4.156  -5.715  0.00  0.00    -0.348 N 
ATOM     10  C   UNL     1       5.221  -4.053  -5.662  0.00  0.00    +0.171 A 
ATOM     11  N   UNL     1       5.543  -2.801  -5.260  0.00  0.00    -0.349 N 
ATOM     12  H   UNL     1       6.437  -2.448  -5.135  0.00  0.00    +0.166 HD
ATOM     13  C   UNL     1       1.913  -2.636  -5.269  0.00  0.00    +0.156 C 
ATOM     14  H   UNL     1       0.267  -3.051  -3.545  0.00  0.00    +0.151 HD
ATOM     15  H   UNL     1       3.428  -4.951  -5.974  0.00  0.00    +0.167 HD
ENDROOT
BRANCH  13  16
ATOM     16  C   UNL     1       1.334  -2.525  -6.657  0.00  0.00    -0.021 A 
ATOM     17  C   UNL     1       1.915  -1.678  -7.582  0.00  0.00    +0.007 A 
ATOM     18  C   UNL     1       1.385  -1.576  -8.854  0.00  0.00    +0.015 A 
ATOM     19  C   UNL     1       0.273  -2.322  -9.202  0.00  0.00    +0.018 A 
ATOM     20  C   UNL     1      -0.307  -3.170  -8.276  0.00  0.00    +0.015 A 
ATOM     21  C   UNL     1       0.226  -3.275  -7.005  0.00  0.00    +0.007 A 
ATOM     22 BR   UNL     1      -0.453  -2.183 -10.943  0.00  0.00    -0.050 Br
ENDBRANCH  13  16
BRANCH   1  23
ATOM     23  C   UNL     1      -0.965  -1.913  -2.243  0.00  0.00    +0.186 C 
BRANCH  23  24
ATOM     24  C   UNL     1      -2.220  -1.454  -2.987  0.00  0.00    +0.017 C 
ATOM     25  C   UNL     1      -2.563  -2.466  -4.083  0.00  0.00    +0.010 C 
BRANCH  24  27
ATOM     26  C   UNL     1      -1.777   0.960  -2.518  0.00  0.00    +0.004 C 
ATOM     27  C   UNL     1      -1.965  -0.084  -3.620  0.00  0.00    +0.002 C 
ENDBRANCH  24  27
ENDBRANCH  23  24
BRANCH  23  28
ATOM     28  C   UNL     1      -1.264  -3.185  -1.492  0.00  0.00    +0.328 C 
ATOM     29  O   UNL     1      -0.940  -4.252  -1.958  0.00  0.00    -0.249 OA
BRANCH  28  30
ATOM     30  O   UNL     1      -1.890  -3.133  -0.306  0.00  0.00    -0.467 OA
ATOM     31  C   UNL     1      -2.046  -4.366   0.400  0.00  0.00    +0.280 C 
ENDBRANCH  28  30
ENDBRANCH  23  28
ENDBRANCH   1  23
TORSDOF 6
