REMARK  Name = ZINC48314547
REMARK  5 active torsions:
REMARK  status: ('A' for Active; 'I' for Inactive)
REMARK    1  A    between atoms: C_1  and  C_2
REMARK    2  A    between atoms: N_7  and  C_8
REMARK    3  A    between atoms: C_8  and  C_9
REMARK    4  A    between atoms: C_9  and  N_10
REMARK    5  A    between atoms: C_14  and  C_16
REMARK                            x       y       z     vdW  Elec       q    Type
REMARK                         _______ _______ _______ _____ _____    ______ ____
ROOT
ATOM      1  N   UNL     1      -1.411   0.866   4.223  0.00  0.00    +0.385 N 
ATOM      2  C   UNL     1      -0.862   2.229   4.065  0.00  0.00    -0.078 C 
ATOM      3  C   UNL     1      -2.104   3.140   3.897  0.00  0.00    -0.020 C 
ATOM      4  C   UNL     1      -3.113   2.475   4.870  0.00  0.00    -0.013 C 
ATOM      5  C   UNL     1      -2.791   0.972   4.731  0.00  0.00    -0.037 C 
ATOM      6  H   UNL     1      -0.846   0.348   4.879  0.00  0.00    -0.081 HD
ENDROOT
BRANCH   5   7
ATOM      7  C   UNL     1      -2.895   0.299   6.076  0.00  0.00    -0.054 A 
ATOM      8  C   UNL     1      -4.004  -0.461   6.396  0.00  0.00    +0.009 A 
ATOM      9  C   UNL     1      -4.066  -1.053   7.614  0.00  0.00    +0.045 A 
ATOM     10  S   UNL     1      -2.525  -0.538   8.354  0.00  0.00    -0.105 S 
ATOM     11  C   UNL     1      -1.900   0.426   6.987  0.00  0.00    +0.047 A 
ENDBRANCH   5   7
BRANCH   1  12
ATOM     12  C   UNL     1      -1.415   0.181   2.923  0.00  0.00    -0.056 C 
BRANCH  12  13
ATOM     13  C   UNL     1       0.026  -0.038   2.458  0.00  0.00    +0.107 C 
BRANCH  13  20
ATOM     14  C   UNL     1      -0.018   1.503   0.010  0.00  0.00    +0.064 C 
ATOM     15  C   UNL     1       0.002  -0.004   0.002  0.00  0.00    +0.026 A 
ATOM     16  C   UNL     1       0.006  -0.694  -1.142  0.00  0.00    +0.071 A 
ATOM     17  S   UNL     1       0.032  -2.377  -0.554  0.00  0.00    -0.035 S 
ATOM     18  C   UNL     1       0.035  -2.069   1.099  0.00  0.00    +0.291 A 
ATOM     19  O   UNL     1       0.050  -2.869   2.018  0.00  0.00    -0.259 OA
ATOM     20  N   UNL     1       0.023  -0.721   1.162  0.00  0.00    -0.308 N 
ENDBRANCH  13  20
ENDBRANCH  12  13
ENDBRANCH   1  12
TORSDOF 4
