REMARK  Name = ZINC01134668
REMARK  5 active torsions:
REMARK  status: ('A' for Active; 'I' for Inactive)
REMARK    1  A    between atoms: C_4  and  C_7
REMARK    2  A    between atoms: C_8  and  C_9
REMARK    3  A    between atoms: C_8  and  C_15
REMARK    4  A    between atoms: N_17  and  C_18
REMARK    5  A    between atoms: C_20  and  N_25
REMARK                            x       y       z     vdW  Elec       q    Type
REMARK                         _______ _______ _______ _____ _____    ______ ____
ROOT
ATOM      1  C   UNL     1       3.685  -0.689  -0.155  0.00  0.00    +0.021 C 
ATOM      2  C   UNL     1       3.715  -2.043  -0.026  0.00  0.00    +0.045 C 
ENDROOT
BRANCH   1   6
ATOM      3  C   UNL     1       0.005   1.392   0.155  0.00  0.00    +0.000 A 
ATOM      4  C   UNL     1       0.302   0.382   1.054  0.00  0.00    +0.001 A 
ATOM      5  C   UNL     1       1.497  -0.300   0.960  0.00  0.00    +0.008 A 
ATOM      6  C   UNL     1       2.410   0.031  -0.048  0.00  0.00    -0.024 A 
ATOM      7  C   UNL     1       2.101   1.054  -0.953  0.00  0.00    +0.008 A 
ATOM      8  C   UNL     1       0.902   1.726  -0.845  0.00  0.00    +0.001 A 
ENDBRANCH   1   6
BRANCH   2   9
ATOM      9  C   UNL     1       5.012  -2.748   0.091  0.00  0.00    -0.013 A 
ATOM     10  C   UNL     1       5.915  -2.733  -0.972  0.00  0.00    +0.008 A 
ATOM     11  C   UNL     1       7.122  -3.392  -0.857  0.00  0.00    +0.001 A 
ATOM     12  C   UNL     1       7.437  -4.065   0.310  0.00  0.00    +0.000 A 
ATOM     13  C   UNL     1       6.546  -4.083   1.367  0.00  0.00    +0.001 A 
ATOM     14  C   UNL     1       5.338  -3.424   1.267  0.00  0.00    +0.008 A 
ENDBRANCH   2   9
BRANCH   2  15
ATOM     15  C   UNL     1       2.457  -2.807  -0.002  0.00  0.00    +0.249 C 
ATOM     16  O   UNL     1       1.400  -2.246  -0.220  0.00  0.00    -0.270 OA
ATOM     17  N   UNL     1       2.477  -4.129   0.262  0.00  0.00    -0.279 N 
ATOM     18  H   UNL     1       3.324  -4.589   0.373  0.00  0.00    +0.155 HD
BRANCH  17  19
ATOM     19  C   UNL     1       1.275  -4.837   0.375  0.00  0.00    +0.071 A 
ATOM     20  C   UNL     1       0.168  -4.453  -0.369  0.00  0.00    +0.059 A 
ATOM     21  C   UNL     1      -1.016  -5.155  -0.256  0.00  0.00    +0.128 A 
ATOM     22  C   UNL     1      -1.101  -6.239   0.598  0.00  0.00    +0.035 A 
ATOM     23  C   UNL     1      -0.002  -6.626   1.341  0.00  0.00    +0.042 A 
ATOM     24  C   UNL     1       1.189  -5.932   1.229  0.00  0.00    +0.145 A 
ATOM     25  F   UNL     1       2.266  -6.312   1.951  0.00  0.00    -0.204 F 
BRANCH  21  26
ATOM     26  N   UNL     1      -2.197  -4.745  -1.050  0.00  0.00    +0.056 N 
ATOM     27  O   UNL     1      -2.124  -3.797  -1.796  0.00  0.00    -0.126 OA
ATOM     28  O   UNL     1      -3.234  -5.359  -0.951  0.00  0.00    -0.126 OA
ENDBRANCH  21  26
ENDBRANCH  17  19
ENDBRANCH   2  15
TORSDOF 5
