REMARK  Name = ZINC35973779
REMARK  15 active torsions:
REMARK  status: ('A' for Active; 'I' for Inactive)
REMARK    1  A    between atoms: C_1  and  C_2
REMARK    2  A    between atoms: C_2  and  C_3
REMARK    3  A    between atoms: C_3  and  C_5
REMARK    4  A    between atoms: C_3  and  O_6
REMARK    5  A    between atoms: O_6  and  C_7
REMARK    6  A    between atoms: C_7  and  C_9
REMARK    7  A    between atoms: C_10  and  C_40
REMARK    8  A    between atoms: C_14  and  C_16
REMARK    9  A    between atoms: C_19  and  O_25
REMARK   10  A    between atoms: C_20  and  O_22
REMARK   11  A    between atoms: O_22  and  C_23
REMARK   12  A    between atoms: C_23  and  C_24
REMARK   13  A    between atoms: C_29  and  C_32
REMARK   14  A    between atoms: C_35  and  O_38
REMARK   15  A    between atoms: O_38  and  C_39
REMARK                            x       y       z     vdW  Elec       q    Type
REMARK                         _______ _______ _______ _____ _____    ______ ____
ROOT
ATOM      1  C   UNL     1      -4.138   0.626  -2.254  0.00  0.00    +0.065 C 
ATOM      2  C   UNL     1      -5.476   0.502  -2.254  0.00  0.00    +0.016 C 
ATOM      3  N   UNL     1      -6.185   0.647  -3.414  0.00  0.00    -0.321 N 
ATOM      4  C   UNL     1      -5.638   1.296  -4.489  0.00  0.00    +0.016 C 
ATOM      5  C   UNL     1      -4.301   1.452  -4.587  0.00  0.00    +0.024 C 
ATOM      6  C   UNL     1      -3.383   0.922  -3.516  0.00  0.00    +0.092 C 
ATOM      7  C   UNL     1      -3.726   2.112  -5.687  0.00  0.00    +0.162 C 
ATOM      8  O   UNL     1      -2.520   2.250  -5.736  0.00  0.00    -0.292 OA
ATOM      9  C   UNL     1      -4.577   2.651  -6.804  0.00  0.00    +0.088 C 
ATOM     10  C   UNL     1      -5.853   1.808  -6.909  0.00  0.00    +0.032 C 
ATOM     11  C   UNL     1      -6.563   1.831  -5.554  0.00  0.00    +0.059 C 
ATOM     12  C   UNL     1      -6.200   0.201  -0.967  0.00  0.00    +0.061 C 
ATOM     13  H   UNL     1      -7.083   0.287  -3.477  0.00  0.00    +0.152 HD
ENDROOT
BRANCH   6  14
ATOM     14  C   UNL     1      -2.732  -0.343  -4.012  0.00  0.00    -0.032 A 
ATOM     15  C   UNL     1      -3.510  -1.438  -4.337  0.00  0.00    +0.008 A 
ATOM     16  C   UNL     1      -2.918  -2.601  -4.791  0.00  0.00    +0.049 A 
ATOM     17  C   UNL     1      -1.540  -2.671  -4.923  0.00  0.00    +0.158 A 
ATOM     18  C   UNL     1      -0.756  -1.569  -4.596  0.00  0.00    +0.162 A 
ATOM     19  C   UNL     1      -1.357  -0.405  -4.146  0.00  0.00    +0.054 A 
BRANCH  17  20
ATOM     20  O   UNL     1      -0.956  -3.815  -5.370  0.00  0.00    -0.503 OA
ATOM     21  H   UNL     1      -0.851  -3.854  -6.330  0.00  0.00    +0.292 HD
ENDBRANCH  17  20
BRANCH  18  22
ATOM     22  O   UNL     1       0.596  -1.633  -4.724  0.00  0.00    -0.489 OA
BRANCH  22  23
ATOM     23  C   UNL     1       1.337  -0.463  -4.370  0.00  0.00    +0.226 C 
ATOM     24  C   UNL     1       2.830  -0.723  -4.578  0.00  0.00    +0.048 C 
ENDBRANCH  22  23
ENDBRANCH  18  22
ENDBRANCH   6  14
BRANCH  10  25
ATOM     25  C   UNL     1      -6.755   2.387  -7.968  0.00  0.00    -0.043 A 
ATOM     26  C   UNL     1      -7.218   3.684  -7.848  0.00  0.00    +0.007 A 
ATOM     27  C   UNL     1      -8.046   4.216  -8.817  0.00  0.00    +0.046 A 
ATOM     28  C   UNL     1      -8.413   3.448  -9.912  0.00  0.00    +0.120 A 
ATOM     29  C   UNL     1      -7.948   2.147 -10.031  0.00  0.00    +0.046 A 
ATOM     30  C   UNL     1      -7.116   1.621  -9.062  0.00  0.00    +0.007 A 
BRANCH  28  31
ATOM     31  O   UNL     1      -9.228   3.970 -10.866  0.00  0.00    -0.495 OA
ATOM     32  C   UNL     1      -9.565   3.121 -11.966  0.00  0.00    +0.277 C 
ENDBRANCH  28  31
ENDBRANCH  10  25
BRANCH   1  33
ATOM     33  C   UNL     1      -3.428   0.481  -1.039  0.00  0.00    +0.338 C 
ATOM     34  O   UNL     1      -4.034   0.367   0.010  0.00  0.00    -0.245 OA
BRANCH  33  35
ATOM     35  O   UNL     1      -2.079   0.468  -1.044  0.00  0.00    -0.458 OA
BRANCH  35  36
ATOM     36  C   UNL     1      -1.427   0.317   0.219  0.00  0.00    +0.173 C 
ATOM     37  C   UNL     1      -1.209  -1.170   0.507  0.00  0.00    +0.052 C 
BRANCH  36  39
ATOM     38  C   UNL     1      -0.300   2.538   0.021  0.00  0.00    +0.007 C 
ATOM     39  C   UNL     1      -0.075   1.033   0.184  0.00  0.00    +0.041 C 
ENDBRANCH  36  39
ENDBRANCH  35  36
ENDBRANCH  33  35
ENDBRANCH   1  33
TORSDOF 10
