REMARK  Name = ZINC44453233
REMARK  7 active torsions:
REMARK  status: ('A' for Active; 'I' for Inactive)
REMARK    1  A    between atoms: C_1  and  C_2
REMARK    2  A    between atoms: N_4  and  N_5
REMARK    3  A    between atoms: C_6  and  C_8
REMARK    4  A    between atoms: C_12  and  N_13
REMARK    5  A    between atoms: C_14  and  C_16
REMARK    6  A    between atoms: C_19  and  S_22
REMARK    7  A    between atoms: S_22  and  N_25
REMARK                            x       y       z     vdW  Elec       q    Type
REMARK                         _______ _______ _______ _____ _____    ______ ____
ROOT
ATOM      1  C   UNL     1      -7.168  -4.909   0.044  0.00  0.00    +0.037 A 
ATOM      2  C   UNL     1      -7.425  -3.537   0.048  0.00  0.00    +0.015 A 
ATOM      3  C   UNL     1      -8.728  -3.082   0.063  0.00  0.00    +0.029 A 
ATOM      4  C   UNL     1      -9.778  -3.983   0.073  0.00  0.00    +0.109 A 
ATOM      5  C   UNL     1      -9.530  -5.344   0.070  0.00  0.00    +0.029 A 
ATOM      6  C   UNL     1      -8.232  -5.812   0.049  0.00  0.00    +0.015 A 
ENDROOT
BRANCH   1   8
ATOM      7  N   UNL     1      -4.750  -4.528   0.023  0.00  0.00    -0.275 N 
ATOM      8  C   UNL     1      -5.775  -5.403   0.028  0.00  0.00    +0.249 C 
ATOM      9  O   UNL     1      -5.554  -6.598   0.019  0.00  0.00    -0.270 OA
ATOM     10  H   UNL     1      -4.926  -3.574   0.030  0.00  0.00    +0.156 HD
BRANCH   7  15
ATOM     11  C   UNL     1      -2.274  -4.245   0.001  0.00  0.00    +0.067 A 
ATOM     12  C   UNL     1      -1.034  -4.987  -0.008  0.00  0.00    +0.022 A 
ATOM     13  C   UNL     1      -1.153  -6.327  -0.015  0.00  0.00    +0.048 A 
ATOM     14  S   UNL     1      -2.914  -6.583  -0.009  0.00  0.00    -0.081 S 
ATOM     15  C   UNL     1      -3.444  -4.991   0.008  0.00  0.00    +0.084 A 
BRANCH  11  17
ATOM     16  N   UNL     1      -1.138  -2.088   0.003  0.00  0.00    -0.230 N 
ATOM     17  C   UNL     1      -2.295  -2.779   0.010  0.00  0.00    +0.262 C 
ATOM     18  O   UNL     1      -3.358  -2.185   0.023  0.00  0.00    -0.269 OA
ATOM     19  H   UNL     1      -0.291  -2.561  -0.008  0.00  0.00    +0.173 HD
BRANCH  16  23
ATOM     20  C   UNL     1      -0.021   1.510   0.012  0.00  0.00    +0.110 C 
ATOM     21  C   UNL     1       0.000   0.003   0.003  0.00  0.00    +0.226 C 
ATOM     22  O   UNL     1       1.059  -0.588  -0.010  0.00  0.00    -0.275 OA
ATOM     23  N   UNL     1      -1.157  -0.687   0.011  0.00  0.00    -0.234 N 
ATOM     24  H   UNL     1      -2.004  -0.214   0.021  0.00  0.00    +0.173 HD
ENDBRANCH  16  23
ENDBRANCH  11  17
ENDBRANCH   7  15
ENDBRANCH   1   8
BRANCH   4  25
ATOM     25  S   UNL     1     -11.438  -3.394   0.092  0.00  0.00    +0.075 S 
ATOM     26  O   UNL     1     -12.231  -4.433   0.650  0.00  0.00    -0.150 OA
ATOM     27  O   UNL     1     -11.399  -2.085   0.643  0.00  0.00    -0.150 OA
BRANCH  25  28
ATOM     28  N   UNL     1     -11.917  -3.229  -1.485  0.00  0.00    -0.203 N 
ATOM     29  C   UNL     1     -11.804  -1.933  -2.168  0.00  0.00    +0.132 C 
ATOM     30  C   UNL     1     -13.110  -1.692  -2.936  0.00  0.00    +0.025 C 
ATOM     31  C   UNL     1     -13.259  -2.774  -4.006  0.00  0.00    +0.038 C 
ATOM     32  C   UNL     1     -13.088  -4.142  -3.399  0.00  0.00    -0.025 A 
ATOM     33  C   UNL     1     -12.430  -4.323  -2.191  0.00  0.00    +0.054 A 
ATOM     34  C   UNL     1     -12.279  -5.600  -1.663  0.00  0.00    +0.025 A 
ATOM     35  C   UNL     1     -12.781  -6.692  -2.343  0.00  0.00    +0.002 A 
ATOM     36  C   UNL     1     -13.434  -6.514  -3.548  0.00  0.00    +0.000 A 
ATOM     37  C   UNL     1     -13.595  -5.241  -4.072  0.00  0.00    +0.005 A 
ENDBRANCH  25  28
ENDBRANCH   4  25
TORSDOF 6
