REMARK  Name = ZINC36484586
REMARK  7 active torsions:
REMARK  status: ('A' for Active; 'I' for Inactive)
REMARK    1  A    between atoms: C_4  and  C_7
REMARK    2  A    between atoms: C_8  and  C_9
REMARK    3  A    between atoms: N_11  and  C_12
REMARK    4  A    between atoms: N_11  and  C_19
REMARK    5  A    between atoms: C_19  and  C_21
REMARK    6  A    between atoms: C_19  and  C_30
REMARK    7  A    between atoms: N_32  and  C_33
REMARK                            x       y       z     vdW  Elec       q    Type
REMARK                         _______ _______ _______ _____ _____    ______ ____
ROOT
ATOM      1  C   UNL     1       8.469  -1.757  -0.033  0.00  0.00    +0.198 C 
ENDROOT
BRANCH   1   2
ATOM      2  C   UNL     1       9.260  -1.228  -1.202  0.00  0.00    -0.014 A 
ATOM      3  C   UNL     1       9.036   0.057  -1.661  0.00  0.00    +0.010 A 
ATOM      4  C   UNL     1       9.759   0.546  -2.732  0.00  0.00    +0.050 A 
ATOM      5  C   UNL     1      10.710  -0.250  -3.350  0.00  0.00    +0.166 A 
ATOM      6  C   UNL     1      10.935  -1.544  -2.888  0.00  0.00    +0.167 A 
ATOM      7  C   UNL     1      10.211  -2.027  -1.810  0.00  0.00    +0.055 A 
ATOM      8  O   UNL     1      11.909  -2.118  -3.653  0.00  0.00    -0.453 OA
ATOM      9  C   UNL     1      11.989  -1.310  -4.842  0.00  0.00    +0.466 C 
ATOM     10  O   UNL     1      11.543  -0.013  -4.405  0.00  0.00    -0.453 OA
ENDBRANCH   1   2
BRANCH   1  11
ATOM     11  C   UNL     1       8.770  -0.932   1.191  0.00  0.00    +0.239 C 
ATOM     12  O   UNL     1       7.876  -0.336   1.755  0.00  0.00    -0.273 OA
ATOM     13  N   UNL     1      10.031  -0.855   1.659  0.00  0.00    -0.311 N 
ATOM     14  H   UNL     1      10.746  -1.331   1.208  0.00  0.00    +0.149 HD
BRANCH  13  15
ATOM     15  C   UNL     1      10.323  -0.052   2.850  0.00  0.00    +0.073 C 
ATOM     16  C   UNL     1      10.542   1.406   2.441  0.00  0.00    +0.022 C 
ATOM     17  C   UNL     1      10.847   2.244   3.684  0.00  0.00    +0.002 C 
ATOM     18  C   UNL     1      12.109   1.710   4.362  0.00  0.00    +0.000 C 
ATOM     19  C   UNL     1      11.890   0.252   4.771  0.00  0.00    +0.002 C 
ATOM     20  C   UNL     1      11.586  -0.587   3.528  0.00  0.00    +0.022 C 
ENDBRANCH  13  15
ENDBRANCH   1  11
BRANCH   1  23
ATOM     21  C   UNL     1       6.138  -2.194   0.524  0.00  0.00    +0.297 C 
ATOM     22  O   UNL     1       6.516  -2.796   1.512  0.00  0.00    -0.260 OA
ATOM     23  N   UNL     1       7.038  -1.679  -0.336  0.00  0.00    -0.245 N 
BRANCH  23  24
ATOM     24  C   UNL     1       6.606  -1.070  -1.518  0.00  0.00    +0.040 A 
ATOM     25  C   UNL     1       6.856  -1.673  -2.744  0.00  0.00    +0.023 A 
ATOM     26  C   UNL     1       6.429  -1.070  -3.910  0.00  0.00    +0.003 A 
ATOM     27  C   UNL     1       5.751   0.135  -3.859  0.00  0.00    +0.020 A 
ATOM     28  C   UNL     1       5.500   0.739  -2.639  0.00  0.00    +0.043 A 
ATOM     29  C   UNL     1       5.921   0.137  -1.469  0.00  0.00    +0.043 A 
ATOM     30 CL   UNL     1       4.649   2.251  -2.580  0.00  0.00    -0.083 Cl
ENDBRANCH  23  24
BRANCH  21  32
ATOM     31  C   UNL     1       3.588  -1.901   0.073  0.00  0.00    -0.057 C 
ATOM     32  C   UNL     1       4.737  -2.033   0.277  0.00  0.00    -0.002 C 
BRANCH  31  36
ATOM     33  C   UNL     1      -0.523  -1.430  -0.654  0.00  0.00    +0.000 A 
ATOM     34  C   UNL     1       0.398  -0.899  -1.540  0.00  0.00    +0.001 A 
ATOM     35  C   UNL     1       1.749  -1.049  -1.308  0.00  0.00    +0.017 A 
ATOM     36  C   UNL     1       2.187  -1.740  -0.174  0.00  0.00    +0.025 A 
ATOM     37  C   UNL     1       1.250  -2.274   0.716  0.00  0.00    +0.017 A 
ATOM     38  C   UNL     1      -0.098  -2.115   0.470  0.00  0.00    +0.001 A 
ENDBRANCH  31  36
ENDBRANCH  21  32
ENDBRANCH   1  23
TORSDOF 7
