REMARK  Name = ZINC08327984
REMARK  7 active torsions:
REMARK  status: ('A' for Active; 'I' for Inactive)
REMARK    1  A    between atoms: C_1  and  C_2
REMARK    2  A    between atoms: C_3  and  C_30
REMARK    3  A    between atoms: C_7  and  N_11
REMARK    4  A    between atoms: N_11  and  C_12
REMARK    5  A    between atoms: C_12  and  C_14
REMARK    6  A    between atoms: C_12  and  C_15
REMARK    7  A    between atoms: N_17  and  C_18
REMARK                            x       y       z     vdW  Elec       q    Type
REMARK                         _______ _______ _______ _____ _____    ______ ____
ROOT
ATOM      1  C   UNL     1       4.086   3.742  -1.921  0.00  0.00    +0.237 C 
ATOM      2  O   UNL     1       3.012   4.111  -1.495  0.00  0.00    -0.273 OA
ATOM      3  N   UNL     1       4.252   2.464  -2.314  0.00  0.00    -0.284 N 
ATOM      4  H   UNL     1       5.118   2.163  -2.631  0.00  0.00    +0.155 HD
ENDROOT
BRANCH   3   5
ATOM      5  C   UNL     1       3.174   1.570  -2.265  0.00  0.00    +0.036 A 
ATOM      6  C   UNL     1       3.029   0.604  -3.253  0.00  0.00    +0.025 A 
ATOM      7  C   UNL     1       1.969  -0.280  -3.211  0.00  0.00    +0.029 A 
ATOM      8  C   UNL     1       1.046  -0.203  -2.179  0.00  0.00    +0.067 A 
ATOM      9  C   UNL     1       1.190   0.766  -1.184  0.00  0.00    +0.069 A 
ATOM     10  C   UNL     1       2.255   1.651  -1.230  0.00  0.00    +0.051 A 
ATOM     11  N   UNL     1       0.127   0.596  -0.299  0.00  0.00    -0.306 N 
ATOM     12  H   UNL     1      -0.039   1.126   0.496  0.00  0.00    +0.170 HD
ATOM     13  C   UNL     1      -0.628  -0.430  -0.735  0.00  0.00    +0.325 A 
ATOM     14  O   UNL     1      -1.635  -0.840  -0.188  0.00  0.00    -0.247 OA
ATOM     15  N   UNL     1      -0.101  -0.933  -1.867  0.00  0.00    -0.306 N 
ATOM     16  H   UNL     1      -0.458  -1.676  -2.378  0.00  0.00    +0.170 HD
ENDBRANCH   3   5
BRANCH   1  17
ATOM     17  C   UNL     1       5.234   4.714  -2.012  0.00  0.00    +0.155 C 
ATOM     18  C   UNL     1       5.690   4.831  -3.468  0.00  0.00    +0.038 C 
BRANCH  17  19
ATOM     19  N   UNL     1       4.802   6.028  -1.529  0.00  0.00    -0.317 N 
ATOM     20  H   UNL     1       3.864   6.271  -1.560  0.00  0.00    +0.148 HD
BRANCH  19  27
ATOM     21  C   UNL     1       2.771   7.888  -0.716  0.00  0.00    +0.045 C 
ATOM     22  C   UNL     1       3.971   8.673  -0.253  0.00  0.00    -0.028 A 
ATOM     23  C   UNL     1       3.814   9.867   0.336  0.00  0.00    -0.008 A 
ATOM     24  S   UNL     1       5.484  10.380   0.690  0.00  0.00    -0.074 S 
ATOM     25  C   UNL     1       6.348   8.976   0.037  0.00  0.00    +0.114 A 
ATOM     26  C   UNL     1       5.311   8.144  -0.439  0.00  0.00    +0.051 A 
ATOM     27  C   UNL     1       5.732   6.920  -1.028  0.00  0.00    +0.131 A 
ATOM     28  N   UNL     1       7.025   6.644  -1.085  0.00  0.00    -0.220 NA
ATOM     29  C   UNL     1       7.943   7.473  -0.622  0.00  0.00    +0.224 A 
ATOM     30  N   UNL     1       7.614   8.623  -0.066  0.00  0.00    -0.228 NA
ATOM     31  C   UNL     1       2.531  10.602   0.628  0.00  0.00    +0.052 C 
ENDBRANCH  19  27
ENDBRANCH  17  19
ENDBRANCH   1  17
TORSDOF 4
