REMARK  Name = ZINC05931421
REMARK  8 active torsions:
REMARK  status: ('A' for Active; 'I' for Inactive)
REMARK    1  A    between atoms: C_1  and  C_2
REMARK    2  A    between atoms: C_2  and  C_3
REMARK    3  A    between atoms: C_3  and  C_5
REMARK    4  A    between atoms: C_3  and  S_6
REMARK    5  A    between atoms: S_6  and  C_7
REMARK    6  A    between atoms: C_14  and  C_26
REMARK    7  A    between atoms: C_19  and  C_23
REMARK    8  A    between atoms: C_19  and  C_24
REMARK                            x       y       z     vdW  Elec       q    Type
REMARK                         _______ _______ _______ _____ _____    ______ ____
ROOT
ATOM      1  C   UNL     1       3.102  -0.498  -2.760  0.00  0.00    +0.172 A 
ATOM      2  N   UNL     1       4.414  -0.271  -3.049  0.00  0.00    -0.322 N 
ATOM      3  C   UNL     1       4.927  -0.655  -4.260  0.00  0.00    +0.111 A 
ATOM      4  C   UNL     1       4.114  -1.263  -5.165  0.00  0.00    +0.069 A 
ATOM      5  C   UNL     1       2.762  -1.485  -4.825  0.00  0.00    +0.280 A 
ATOM      6  N   UNL     1       2.307  -1.093  -3.624  0.00  0.00    -0.185 NA
ATOM      7  O   UNL     1       2.011  -2.035  -5.617  0.00  0.00    -0.265 OA
ATOM      8  C   UNL     1       4.634  -1.688  -6.506  0.00  0.00    +0.092 C 
ATOM      9  C   UNL     1       6.141  -1.751  -6.514  0.00  0.00    +0.024 C 
ATOM     10  C   UNL     1       6.766  -2.480  -7.541  0.00  0.00    +0.162 C 
ATOM     11  C   UNL     1       8.264  -2.599  -7.613  0.00  0.00    +0.086 C 
ATOM     12  C   UNL     1       8.840  -2.496  -6.197  0.00  0.00    -0.023 C 
ATOM     13  C   UNL     1       8.376  -1.175  -5.579  0.00  0.00    +0.058 C 
ATOM     14  C   UNL     1       6.867  -1.125  -5.564  0.00  0.00    +0.017 C 
ATOM     15  N   UNL     1       6.251  -0.431  -4.559  0.00  0.00    -0.304 N 
ATOM     16  C   UNL     1      10.369  -2.524  -6.261  0.00  0.00    +0.011 C 
ATOM     17  C   UNL     1       8.336  -3.666  -5.350  0.00  0.00    +0.011 C 
ATOM     18  O   UNL     1       6.083  -3.024  -8.386  0.00  0.00    -0.292 OA
ATOM     19  H   UNL     1       6.753   0.226  -4.051  0.00  0.00    +0.153 HD
ATOM     20  H   UNL     1       4.986   0.164  -2.396  0.00  0.00    +0.169 HD
ENDROOT
BRANCH   8  21
ATOM     21  C   UNL     1       4.177  -0.702  -7.549  0.00  0.00    -0.032 A 
ATOM     22  C   UNL     1       4.538   0.635  -7.469  0.00  0.00    +0.024 A 
ATOM     23  C   UNL     1       4.100   1.510  -8.444  0.00  0.00    +0.111 A 
ATOM     24  N   UNL     1       3.346   1.088  -9.440  0.00  0.00    -0.263 NA
ATOM     25  C   UNL     1       2.983  -0.175  -9.548  0.00  0.00    +0.111 A 
ATOM     26  C   UNL     1       3.389  -1.109  -8.615  0.00  0.00    +0.024 A 
ENDBRANCH   8  21
BRANCH   1  27
ATOM     27  S   UNL     1       2.460   0.006  -1.198  0.00  0.00    -0.085 S 
BRANCH  27  28
ATOM     28  C   UNL     1       0.718  -0.497  -1.257  0.00  0.00    +0.051 C 
ATOM     29  C   UNL     1       0.630  -2.023  -1.329  0.00  0.00    +0.019 C 
BRANCH  28  31
ATOM     30  C   UNL     1      -0.019   1.526   0.010  0.00  0.00    +0.005 C 
ATOM     31  C   UNL     1       0.002  -0.004   0.002  0.00  0.00    +0.011 C 
ENDBRANCH  28  31
ENDBRANCH  27  28
ENDBRANCH   1  27
TORSDOF 4
