REMARK  Name = ZINC48891401
REMARK  7 active torsions:
REMARK  status: ('A' for Active; 'I' for Inactive)
REMARK    1  A    between atoms: C_1  and  N_2
REMARK    2  A    between atoms: N_2  and  C_3
REMARK    3  A    between atoms: N_2  and  C_11
REMARK    4  A    between atoms: C_3  and  C_4
REMARK    5  A    between atoms: C_11  and  C_13
REMARK    6  A    between atoms: C_11  and  C_15
REMARK    7  A    between atoms: C_13  and  N_14
REMARK                            x       y       z     vdW  Elec       q    Type
REMARK                         _______ _______ _______ _____ _____    ______ ____
ROOT
ATOM      1  C   UNL     1       1.009  -0.371   1.034  0.00  0.00    -0.019 C 
ENDROOT
BRANCH   1   2
ATOM      2  C   UNL     1       0.272   0.220   2.208  0.00  0.00    +0.091 A 
ATOM      3  C   UNL     1       0.839   0.765   3.300  0.00  0.00    +0.044 A 
ATOM      4  C   UNL     1      -0.215   1.190   4.140  0.00  0.00    +0.057 A 
ATOM      5  C   UNL     1      -1.365   0.879   3.512  0.00  0.00    +0.170 A 
ATOM      6  O   UNL     1      -1.063   0.297   2.339  0.00  0.00    -0.455 OA
ATOM      7 BR   UNL     1      -3.108   1.213   4.165  0.00  0.00    -0.008 Br
ENDBRANCH   1   2
BRANCH   1   9
ATOM      8  C   UNL     1       0.204   1.471  -0.275  0.00  0.00    -0.095 C 
ATOM      9  N   UNL     1       0.330   0.008  -0.212  0.00  0.00    +0.386 N 
ATOM     10  H   UNL     1      -0.587  -0.410  -0.236  0.00  0.00    -0.081 HD
BRANCH   9  11
ATOM     11  C   UNL     1       1.115  -0.465  -1.360  0.00  0.00    -0.042 C 
BRANCH  11  12
ATOM     12  C   UNL     1       0.362  -0.179  -2.634  0.00  0.00    -0.063 A 
ATOM     13  C   UNL     1      -0.522  -1.115  -3.140  0.00  0.00    +0.002 A 
ATOM     14  C   UNL     1      -1.212  -0.853  -4.308  0.00  0.00    +0.001 A 
ATOM     15  C   UNL     1      -1.020   0.344  -4.972  0.00  0.00    +0.015 A 
ATOM     16  C   UNL     1      -0.136   1.280  -4.466  0.00  0.00    +0.018 A 
ATOM     17  C   UNL     1       0.551   1.020  -3.294  0.00  0.00    +0.017 A 
ATOM     18 BR   UNL     1       0.128   2.918  -5.374  0.00  0.00    -0.050 Br
ENDBRANCH  11  12
ENDBRANCH   9  11
ENDBRANCH   1   9
BRANCH   1  19
ATOM     19  C   UNL     1       1.030  -1.896   1.160  0.00  0.00    -0.094 C 
BRANCH  19  20
ATOM     20  N   UNL     1       1.815  -2.279   2.341  0.00  0.00    +0.377 N 
ATOM     21  H   UNL     1       1.907  -3.284   2.372  0.00  0.00    -0.090 HD
ATOM     22  H   UNL     1       2.731  -1.859   2.287  0.00  0.00    -0.090 HD
ATOM     23  H   UNL     1       1.346  -1.959   3.175  0.00  0.00    -0.090 HD
ENDBRANCH  19  20
ENDBRANCH   1  19
TORSDOF 6
