REMARK  Name = ZINC66906223
REMARK  12 active torsions:
REMARK  status: ('A' for Active; 'I' for Inactive)
REMARK    1  A    between atoms: C_1  and  C_2
REMARK    2  A    between atoms: C_2  and  N_3
REMARK    3  A    between atoms: C_4  and  C_6
REMARK    4  A    between atoms: C_6  and  O_7
REMARK    5  A    between atoms: O_7  and  C_8
REMARK    6  A    between atoms: C_11  and  C_16
REMARK    7  A    between atoms: C_13  and  O_14
REMARK    8  A    between atoms: O_14  and  C_15
REMARK    9  A    between atoms: C_16  and  N_17
REMARK   10  A    between atoms: N_17  and  C_18
REMARK   11  A    between atoms: C_18  and  C_19
REMARK   12  A    between atoms: C_19  and  O_29
REMARK                            x       y       z     vdW  Elec       q    Type
REMARK                         _______ _______ _______ _____ _____    ______ ____
ROOT
ATOM      1  C   UNL     1      -7.805  -6.825   0.013  0.00  0.00    -0.047 C 
ENDROOT
BRANCH   1   5
ATOM      2  C   UNL     1      -3.777  -5.389  -0.051  0.00  0.00    +0.163 A 
ATOM      3  C   UNL     1      -4.829  -4.502   0.114  0.00  0.00    +0.049 A 
ATOM      4  C   UNL     1      -6.130  -4.969   0.134  0.00  0.00    +0.005 A 
ATOM      5  C   UNL     1      -6.385  -6.321  -0.009  0.00  0.00    -0.061 A 
ATOM      6  C   UNL     1      -5.339  -7.211  -0.173  0.00  0.00    +0.051 A 
ATOM      7  C   UNL     1      -4.034  -6.748  -0.200  0.00  0.00    +0.162 A 
BRANCH   7   8
ATOM      8  O   UNL     1      -3.005  -7.622  -0.367  0.00  0.00    -0.491 OA
ATOM      9  C   UNL     1      -3.343  -9.002  -0.514  0.00  0.00    +0.277 C 
ENDBRANCH   7   8
BRANCH   2  10
ATOM     10  O   UNL     1      -2.497  -4.931  -0.071  0.00  0.00    -0.479 OA
BRANCH  10  11
ATOM     11  C   UNL     1      -2.309  -3.523   0.089  0.00  0.00    +0.324 C 
BRANCH  11  13
ATOM     12  N   UNL     1      -0.418  -1.929   0.170  0.00  0.00    -0.313 N 
ATOM     13  C   UNL     1      -0.837  -3.204   0.040  0.00  0.00    +0.251 C 
ATOM     14  O   UNL     1      -0.028  -4.095  -0.116  0.00  0.00    -0.272 OA
ATOM     15  H   UNL     1      -1.065  -1.217   0.295  0.00  0.00    +0.149 HD
BRANCH  12  17
ATOM     16  C   UNL     1       1.214  -0.112   0.293  0.00  0.00    +0.024 C 
ATOM     17  C   UNL     1       1.013  -1.619   0.123  0.00  0.00    +0.101 C 
ENDBRANCH  12  17
ENDBRANCH  11  13
ENDBRANCH  10  11
ENDBRANCH   2  10
ENDBRANCH   1   5
BRANCH   1  18
ATOM     18  N   UNL     1      -8.345  -6.828  -1.352  0.00  0.00    +0.384 N 
ATOM     19  H   UNL     1      -8.327  -5.890  -1.724  0.00  0.00    -0.085 HD
ATOM     20  H   UNL     1      -7.784  -7.431  -1.935  0.00  0.00    -0.085 HD
BRANCH  18  21
ATOM     21  C   UNL     1      -9.729  -7.320  -1.330  0.00  0.00    -0.042 C 
BRANCH  21  22
ATOM     22  C   UNL     1     -10.250  -7.443  -2.763  0.00  0.00    +0.076 C 
ATOM     23  C   UNL     1     -10.146  -6.086  -3.456  0.00  0.00    +0.038 C 
ATOM     24  C   UNL     1     -10.868  -6.175  -4.806  0.00  0.00    +0.008 C 
ATOM     25  C   UNL     1     -12.368  -6.286  -4.543  0.00  0.00    +0.035 C 
ATOM     26  C   UNL     1     -12.652  -7.386  -3.553  0.00  0.00    -0.042 A 
ATOM     27  C   UNL     1     -11.680  -7.914  -2.733  0.00  0.00    -0.015 A 
ATOM     28  C   UNL     1     -12.010  -8.923  -1.838  0.00  0.00    +0.006 A 
ATOM     29  C   UNL     1     -13.302  -9.402  -1.766  0.00  0.00    +0.000 A 
ATOM     30  C   UNL     1     -14.277  -8.873  -2.591  0.00  0.00    +0.000 A 
ATOM     31  C   UNL     1     -13.952  -7.870  -3.480  0.00  0.00    +0.004 A 
BRANCH  22  32
ATOM     32  O   UNL     1      -9.455  -8.395  -3.473  0.00  0.00    -0.386 OA
ATOM     33  H   UNL     1      -9.465  -9.282  -3.086  0.00  0.00    +0.211 HD
ENDBRANCH  22  32
ENDBRANCH  21  22
ENDBRANCH  18  21
ENDBRANCH   1  18
TORSDOF 10
