REMARK  Name = ZINC01753123
REMARK  5 active torsions:
REMARK  status: ('A' for Active; 'I' for Inactive)
REMARK    1  A    between atoms: C_4  and  C_7
REMARK    2  A    between atoms: C_7  and  N_8
REMARK    3  A    between atoms: C_18  and  C_20
REMARK    4  A    between atoms: C_25  and  O_26
REMARK    5  A    between atoms: O_26  and  C_27
REMARK                            x       y       z     vdW  Elec       q    Type
REMARK                         _______ _______ _______ _____ _____    ______ ____
ROOT
ATOM      1  N   UNL     1       4.153  -0.953   1.342  0.00  0.00    +0.383 N 
ATOM      2  C   UNL     1       4.424   0.329   2.003  0.00  0.00    -0.073 C 
ATOM      3  C   UNL     1       4.809   0.083   3.463  0.00  0.00    +0.048 C 
ATOM      4  C   UNL     1       6.071  -0.788   3.511  0.00  0.00    +0.177 C 
ATOM      5  C   UNL     1       5.793  -2.096   2.759  0.00  0.00    +0.048 C 
ATOM      6  C   UNL     1       5.371  -1.772   1.325  0.00  0.00    -0.073 C 
ATOM      7  N   UNL     1       6.448  -1.060   4.875  0.00  0.00    -0.177 NA
ATOM      8  C   UNL     1       6.911   0.194   5.544  0.00  0.00    +0.138 C 
ATOM      9  C   UNL     1       6.975  -0.256   6.978  0.00  0.00    +0.023 C 
ATOM     10  C   UNL     1       6.187  -1.347   7.045  0.00  0.00    +0.050 C 
ATOM     11  N   UNL     1       5.622  -1.610   5.780  0.00  0.00    -0.273 N 
ATOM     12  C   UNL     1       8.229   0.471   4.883  0.00  0.00    +0.018 A 
ATOM     13  C   UNL     1       9.349   0.882   5.555  0.00  0.00    +0.024 A 
ATOM     14  C   UNL     1      10.527   1.099   4.856  0.00  0.00    +0.018 A 
ATOM     15  C   UNL     1      10.561   0.899   3.487  0.00  0.00    +0.019 A 
ATOM     16  C   UNL     1       9.430   0.492   2.808  0.00  0.00    +0.047 A 
ATOM     17  C   UNL     1       8.245   0.278   3.497  0.00  0.00    +0.128 A 
ATOM     18  O   UNL     1       7.134  -0.093   2.844  0.00  0.00    -0.469 OA
ATOM     19 BR   UNL     1      12.081   1.668   5.770  0.00  0.00    -0.050 Br
ATOM     20  H   UNL     1       4.800  -2.093   5.600  0.00  0.00    +0.167 HD
ATOM     21  H   UNL     1       3.427  -1.442   1.844  0.00  0.00    -0.081 HD
ENDROOT
BRANCH  10  22
ATOM     22  C   UNL     1       5.950  -2.151   8.265  0.00  0.00    +0.039 A 
ATOM     23  C   UNL     1       5.117  -3.268   8.218  0.00  0.00    +0.013 A 
ATOM     24  C   UNL     1       4.900  -4.013   9.358  0.00  0.00    +0.001 A 
ATOM     25  C   UNL     1       5.506  -3.657  10.550  0.00  0.00    +0.004 A 
ATOM     26  C   UNL     1       6.334  -2.552  10.609  0.00  0.00    +0.046 A 
ATOM     27  C   UNL     1       6.566  -1.797   9.470  0.00  0.00    +0.136 A 
BRANCH  27  28
ATOM     28  O   UNL     1       7.384  -0.714   9.526  0.00  0.00    -0.434 OA
BRANCH  28  29
ATOM     29  C   UNL     1       7.978  -0.413  10.790  0.00  0.00    +0.541 C 
ATOM     30  F   UNL     1       6.972  -0.173  11.732  0.00  0.00    -0.166 F 
ATOM     31  F   UNL     1       8.759  -1.496  11.208  0.00  0.00    -0.166 F 
ENDBRANCH  28  29
ENDBRANCH  27  28
ENDBRANCH  10  22
BRANCH   1  32
ATOM     32  C   UNL     1       3.711  -0.707  -0.038  0.00  0.00    -0.043 C 
BRANCH  32  36
ATOM     33  C   UNL     1      -0.017   1.378   0.010  0.00  0.00    +0.000 A 
ATOM     34  C   UNL     1       1.171   2.086   0.002  0.00  0.00    +0.000 A 
ATOM     35  C   UNL     1       2.377   1.411  -0.013  0.00  0.00    +0.002 A 
ATOM     36  C   UNL     1       2.396   0.029  -0.020  0.00  0.00    -0.064 A 
ATOM     37  C   UNL     1       1.208  -0.679  -0.012  0.00  0.00    +0.002 A 
ATOM     38  C   UNL     1       0.002  -0.004   0.002  0.00  0.00    +0.000 A 
ENDBRANCH  32  36
ENDBRANCH   1  32
TORSDOF 5
