REMARK  Name = ZINC39327115
REMARK  11 active torsions:
REMARK  status: ('A' for Active; 'I' for Inactive)
REMARK    1  A    between atoms: C_1  and  C_2
REMARK    2  A    between atoms: C_2  and  O_3
REMARK    3  A    between atoms: O_3  and  C_4
REMARK    4  A    between atoms: C_4  and  C_6
REMARK    5  A    between atoms: C_7  and  C_36
REMARK    6  A    between atoms: C_9  and  S_21
REMARK    7  A    between atoms: C_10  and  C_19
REMARK    8  A    between atoms: C_11  and  C_13
REMARK    9  A    between atoms: S_21  and  C_22
REMARK   10  A    between atoms: C_22  and  C_23
REMARK   11  A    between atoms: N_25  and  C_26
REMARK                            x       y       z     vdW  Elec       q    Type
REMARK                         _______ _______ _______ _____ _____    ______ ____
ROOT
ATOM      1  C   UNL     1      -2.797  -2.420   0.179  0.00  0.00    +0.066 C 
ATOM      2  C   UNL     1      -2.936  -3.729  -0.087  0.00  0.00    +0.016 C 
ATOM      3  N   UNL     1      -4.174  -4.286  -0.256  0.00  0.00    -0.312 N 
ATOM      4  C   UNL     1      -5.263  -3.486  -0.518  0.00  0.00    +0.080 C 
ATOM      5  C   UNL     1      -5.215  -2.150  -0.265  0.00  0.00    +0.069 C 
ATOM      6  C   UNL     1      -3.985  -1.511   0.318  0.00  0.00    +0.100 C 
ATOM      7  C   UNL     1      -1.710  -4.598  -0.201  0.00  0.00    +0.061 C 
ATOM      8  H   UNL     1      -4.284  -5.248  -0.192  0.00  0.00    +0.152 HD
ENDROOT
BRANCH   6   9
ATOM      9  C   UNL     1      -4.217  -1.218   1.778  0.00  0.00    -0.035 A 
ATOM     10  C   UNL     1      -4.472  -2.252   2.658  0.00  0.00    +0.004 A 
ATOM     11  C   UNL     1      -4.685  -1.983   3.998  0.00  0.00    +0.000 A 
ATOM     12  C   UNL     1      -4.642  -0.679   4.456  0.00  0.00    +0.000 A 
ATOM     13  C   UNL     1      -4.386   0.355   3.575  0.00  0.00    +0.000 A 
ATOM     14  C   UNL     1      -4.169   0.085   2.237  0.00  0.00    +0.004 A 
ENDBRANCH   6   9
BRANCH   1  15
ATOM     15  C   UNL     1      -1.498  -1.884   0.339  0.00  0.00    +0.338 C 
ATOM     16  O   UNL     1      -1.012  -1.196  -0.539  0.00  0.00    -0.245 OA
BRANCH  15  17
ATOM     17  O   UNL     1      -0.798  -2.136   1.464  0.00  0.00    -0.462 OA
BRANCH  17  19
ATOM     18  C   UNL     1       1.142  -1.955   2.894  0.00  0.00    +0.048 C 
ATOM     19  C   UNL     1       0.508  -1.563   1.558  0.00  0.00    +0.229 C 
ENDBRANCH  17  19
ENDBRANCH  15  17
ENDBRANCH   1  15
BRANCH   5  20
ATOM     20  C   UNL     1      -6.359  -1.339  -0.555  0.00  0.00    +0.098 C 
ATOM     21  N   UNL     1      -7.266  -0.695  -0.785  0.00  0.00    -0.191 NA
ENDBRANCH   5  20
BRANCH   4  22
ATOM     22  S   UNL     1      -6.730  -4.197  -1.185  0.00  0.00    -0.100 S 
BRANCH  22  23
ATOM     23  C   UNL     1      -6.330  -5.958  -1.348  0.00  0.00    +0.171 C 
BRANCH  23  24
ATOM     24  C   UNL     1      -7.516  -6.693  -1.916  0.00  0.00    +0.224 C 
ATOM     25  O   UNL     1      -8.533  -6.088  -2.185  0.00  0.00    -0.275 OA
ATOM     26  N   UNL     1      -7.449  -8.023  -2.126  0.00  0.00    -0.309 N 
ATOM     27  H   UNL     1      -6.636  -8.507  -1.911  0.00  0.00    +0.149 HD
BRANCH  26  28
ATOM     28  C   UNL     1      -8.602  -8.737  -2.678  0.00  0.00    +0.035 C 
ATOM     29  C   UNL     1      -9.801  -8.571  -1.742  0.00  0.00    +0.029 C 
ATOM     30  C   UNL     1     -11.006  -9.317  -2.319  0.00  0.00    -0.008 C 
ATOM     31  C   UNL     1     -10.668 -10.803  -2.456  0.00  0.00    +0.007 C 
ATOM     32  C   UNL     1      -9.469 -10.969  -3.392  0.00  0.00    -0.008 C 
ATOM     33  C   UNL     1      -8.264 -10.223  -2.815  0.00  0.00    +0.029 C 
ATOM     34  C   UNL     1      -9.813 -10.395  -4.768  0.00  0.00    +0.007 C 
ATOM     35  C   UNL     1     -10.151  -8.909  -4.631  0.00  0.00    -0.008 C 
ATOM     36  C   UNL     1     -11.350  -8.743  -3.695  0.00  0.00    +0.007 C 
ATOM     37  C   UNL     1      -8.946  -8.163  -4.054  0.00  0.00    +0.029 C 
ENDBRANCH  26  28
ENDBRANCH  23  24
ENDBRANCH  22  23
ENDBRANCH   4  22
TORSDOF 9
