REMARK  Name = ZINC51184463
REMARK  6 active torsions:
REMARK  status: ('A' for Active; 'I' for Inactive)
REMARK    1  A    between atoms: C_4  and  O_24
REMARK    2  A    between atoms: C_5  and  N_7
REMARK    3  A    between atoms: N_10  and  C_13
REMARK    4  A    between atoms: C_13  and  C_14
REMARK    5  A    between atoms: N_16  and  C_17
REMARK    6  A    between atoms: C_17  and  C_18
REMARK                            x       y       z     vdW  Elec       q    Type
REMARK                         _______ _______ _______ _____ _____    ______ ____
ROOT
ATOM      1  N   UNL     1       1.235  -2.080  -0.021  0.00  0.00    -0.331 N 
ATOM      2  C   UNL     1       1.252  -2.844   1.236  0.00  0.00    +0.086 C 
ATOM      3  C   UNL     1       2.388  -3.870   1.165  0.00  0.00    -0.059 C 
ATOM      4  N   UNL     1       2.228  -4.692  -0.042  0.00  0.00    +0.387 N 
ATOM      5  C   UNL     1       2.376  -3.857  -1.240  0.00  0.00    -0.059 C 
ATOM      6  C   UNL     1       1.234  -2.829  -1.288  0.00  0.00    +0.086 C 
ATOM      7  H   UNL     1       1.312  -5.116  -0.039  0.00  0.00    -0.081 HD
ENDROOT
BRANCH   1  12
ATOM      8  C   UNL     1      -0.017   1.378   0.010  0.00  0.00    +0.002 A 
ATOM      9  C   UNL     1       1.169   2.089   0.002  0.00  0.00    +0.004 A 
ATOM     10  C   UNL     1       2.380   1.421  -0.013  0.00  0.00    +0.047 A 
ATOM     11  C   UNL     1       2.407   0.036  -0.021  0.00  0.00    +0.138 A 
ATOM     12  C   UNL     1       1.213  -0.681  -0.013  0.00  0.00    +0.072 A 
ATOM     13  C   UNL     1       0.002  -0.004   0.002  0.00  0.00    +0.027 A 
BRANCH  11  14
ATOM     14  O   UNL     1       3.598  -0.622  -0.036  0.00  0.00    -0.505 OA
ATOM     15  H   UNL     1       3.950  -0.817   0.843  0.00  0.00    +0.292 HD
ENDBRANCH  11  14
ENDBRANCH   1  12
BRANCH   4  16
ATOM     16  C   UNL     1       3.252  -5.746  -0.053  0.00  0.00    +0.019 C 
BRANCH  16  17
ATOM     17  C   UNL     1       3.014  -6.664  -1.224  0.00  0.00    +0.197 C 
ATOM     18  O   UNL     1       2.084  -6.461  -1.975  0.00  0.00    -0.278 OA
ATOM     19  N   UNL     1       3.836  -7.712  -1.437  0.00  0.00    -0.312 N 
ATOM     20  H   UNL     1       4.580  -7.874  -0.836  0.00  0.00    +0.149 HD
BRANCH  19  21
ATOM     21  C   UNL     1       3.605  -8.604  -2.575  0.00  0.00    +0.146 C 
BRANCH  21  22
ATOM     22  C   UNL     1       4.655  -9.685  -2.587  0.00  0.00    +0.008 A 
ATOM     23  C   UNL     1       4.630 -10.905  -1.998  0.00  0.00    +0.014 A 
ATOM     24  C   UNL     1       5.720 -11.743  -2.144  0.00  0.00    +0.028 A 
ATOM     25  C   UNL     1       6.782 -11.319  -2.873  0.00  0.00    +0.078 A 
ATOM     26  S   UNL     1       6.251  -9.693  -3.386  0.00  0.00    -0.080 S 
ATOM     27 CL   UNL     1       8.269 -12.144  -3.222  0.00  0.00    -0.076 Cl
ENDBRANCH  21  22
ENDBRANCH  19  21
ENDBRANCH  16  17
ENDBRANCH   4  16
TORSDOF 6
