REMARK  Name = ZINC13112850
REMARK  8 active torsions:
REMARK  status: ('A' for Active; 'I' for Inactive)
REMARK    1  A    between atoms: C_4  and  O_7
REMARK    2  A    between atoms: O_7  and  C_8
REMARK    3  A    between atoms: C_8  and  C_9
REMARK    4  A    between atoms: C_17  and  C_18
REMARK    5  A    between atoms: N_20  and  C_21
REMARK    6  A    between atoms: C_21  and  C_22
REMARK    7  A    between atoms: C_22  and  C_24
REMARK    8  A    between atoms: C_22  and  N_58
REMARK                            x       y       z     vdW  Elec       q    Type
REMARK                         _______ _______ _______ _____ _____    ______ ____
ROOT
ATOM      1  C   UNL     1       6.079  -0.706  -0.078  0.00  0.00    +0.048 A 
ATOM      2  C   UNL     1       6.864  -1.118  -1.242  0.00  0.00    +0.027 A 
ATOM      3  C   UNL     1       6.719  -0.954  -2.622  0.00  0.00    +0.012 A 
ATOM      4  C   UNL     1       7.656  -1.476  -3.467  0.00  0.00    +0.001 A 
ATOM      5  C   UNL     1       8.751  -2.166  -2.965  0.00  0.00    +0.004 A 
ATOM      6  C   UNL     1       8.912  -2.339  -1.607  0.00  0.00    +0.047 A 
ATOM      7  C   UNL     1       7.971  -1.817  -0.727  0.00  0.00    +0.136 A 
ATOM      8  O   UNL     1       7.860  -1.824   0.616  0.00  0.00    -0.450 OA
ATOM      9  C   UNL     1       6.750  -1.166   1.010  0.00  0.00    +0.197 A 
ENDROOT
BRANCH   9  10
ATOM     10  C   UNL     1       6.328  -0.978   2.405  0.00  0.00    +0.280 C 
ATOM     11  O   UNL     1       5.304  -0.370   2.654  0.00  0.00    -0.267 OA
ATOM     12  N   UNL     1       7.075  -1.480   3.408  0.00  0.00    -0.310 N 
ATOM     13  H   UNL     1       7.891  -1.965   3.209  0.00  0.00    +0.149 HD
BRANCH  12  14
ATOM     14  C   UNL     1       6.655  -1.293   4.799  0.00  0.00    +0.097 C 
BRANCH  14  15
ATOM     15  C   UNL     1       7.605  -2.054   5.726  0.00  0.00    +0.016 C 
BRANCH  15  20
ATOM     16  C   UNL     1       5.750  -2.558   7.220  0.00  0.00    -0.078 C 
ATOM     17  C   UNL     1       5.622  -2.869   8.733  0.00  0.00    -0.020 C 
ATOM     18  C   UNL     1       7.044  -3.346   9.109  0.00  0.00    -0.020 C 
ATOM     19  C   UNL     1       7.965  -2.760   8.022  0.00  0.00    -0.078 C 
ATOM     20  N   UNL     1       7.102  -1.984   7.131  0.00  0.00    +0.387 N 
ATOM     21  H   UNL     1       7.083  -1.003   7.434  0.00  0.00    -0.081 HD
ENDBRANCH  15  20
BRANCH  15  22
ATOM     22  C   UNL     1       8.980  -1.441   5.648  0.00  0.00    +0.093 A 
ATOM     23  C   UNL     1      10.012  -1.915   4.928  0.00  0.00    +0.043 A 
ATOM     24  C   UNL     1      11.100  -1.038   5.144  0.00  0.00    +0.041 A 
ATOM     25  C   UNL     1      10.667  -0.081   5.984  0.00  0.00    +0.195 A 
ATOM     26  O   UNL     1       9.380  -0.327   6.281  0.00  0.00    -0.469 OA
ENDBRANCH  15  22
ENDBRANCH  14  15
ENDBRANCH  12  14
ENDBRANCH   9  10
BRANCH   1  27
ATOM     27  C   UNL     1       4.791   0.076  -0.085  0.00  0.00    +0.269 C 
BRANCH  27  28
ATOM     28  O   UNL     1       3.686  -0.828  -0.150  0.00  0.00    -0.487 OA
BRANCH  28  32
ATOM     29  C   UNL     1      -0.091   0.833  -0.192  0.00  0.00    +0.000 A 
ATOM     30  C   UNL     1       1.022   1.651  -0.130  0.00  0.00    +0.004 A 
ATOM     31  C   UNL     1       2.288   1.097  -0.116  0.00  0.00    +0.045 A 
ATOM     32  C   UNL     1       2.442  -0.281  -0.164  0.00  0.00    +0.121 A 
ATOM     33  C   UNL     1       1.323  -1.099  -0.227  0.00  0.00    +0.045 A 
ATOM     34  C   UNL     1       0.060  -0.541  -0.241  0.00  0.00    +0.004 A 
ENDBRANCH  28  32
ENDBRANCH  27  28
ENDBRANCH   1  27
TORSDOF 8
