REMARK  Name = ZINC58168024
REMARK  3 active torsions:
REMARK  status: ('A' for Active; 'I' for Inactive)
REMARK    1  A    between atoms: N_9  and  C_12
REMARK    2  A    between atoms: C_12  and  C_13
REMARK    3  A    between atoms: C_16  and  C_18
REMARK                            x       y       z     vdW  Elec       q    Type
REMARK                         _______ _______ _______ _____ _____    ______ ____
ROOT
ATOM      1  C   UNL     1       4.923  -2.774  -0.062  0.00  0.00    +0.206 C 
ENDROOT
BRANCH   1  10
ATOM      2  C   UNL     1      -0.017   1.363   0.009  0.00  0.00    +0.001 A 
ATOM      3  C   UNL     1       1.165   2.092   0.002  0.00  0.00    +0.001 A 
ATOM      4  C   UNL     1       2.386   1.454  -0.013  0.00  0.00    +0.014 A 
ATOM      5  C   UNL     1       2.429   0.060  -0.021  0.00  0.00    +0.050 A 
ATOM      6  C   UNL     1       1.224  -0.679  -0.013  0.00  0.00    +0.007 A 
ATOM      7  C   UNL     1       0.002  -0.004   0.002  0.00  0.00    +0.010 A 
ATOM      8  C   UNL     1       1.300  -2.140  -0.022  0.00  0.00    +0.141 A 
ATOM      9  N   UNL     1       2.458  -2.731  -0.037  0.00  0.00    -0.176 NA
ATOM     10  N   UNL     1       3.663  -2.028  -0.045  0.00  0.00    -0.223 N 
ATOM     11  C   UNL     1       3.698  -0.679  -0.038  0.00  0.00    +0.275 A 
ATOM     12  O   UNL     1       4.762  -0.086  -0.046  0.00  0.00    -0.266 OA
ENDBRANCH   1  10
BRANCH   1  13
ATOM     13  C   UNL     1       5.370  -3.037   1.353  0.00  0.00    +0.101 A 
ATOM     14  C   UNL     1       5.134  -4.155   2.063  0.00  0.00    +0.222 A 
ATOM     15  O   UNL     1       5.700  -3.987   3.275  0.00  0.00    -0.443 OA
ATOM     16  C   UNL     1       6.274  -2.772   3.292  0.00  0.00    +0.227 A 
ATOM     17  N   UNL     1       6.078  -2.201   2.127  0.00  0.00    -0.212 NA
BRANCH  16  18
ATOM     18  C   UNL     1       7.007  -2.180   4.431  0.00  0.00    +0.037 A 
ATOM     19  C   UNL     1       7.553  -0.900   4.323  0.00  0.00    +0.014 A 
ATOM     20  C   UNL     1       8.237  -0.353   5.389  0.00  0.00    +0.021 A 
ATOM     21  C   UNL     1       8.382  -1.071   6.565  0.00  0.00    +0.041 A 
ATOM     22  C   UNL     1       7.842  -2.341   6.677  0.00  0.00    +0.021 A 
ATOM     23  C   UNL     1       7.152  -2.897   5.620  0.00  0.00    +0.014 A 
ATOM     24 CL   UNL     1       9.243  -0.376   7.902  0.00  0.00    -0.084 Cl
ENDBRANCH  16  18
ENDBRANCH   1  13
TORSDOF 3
