REMARK  Name = ZINC42895816
REMARK  11 active torsions:
REMARK  status: ('A' for Active; 'I' for Inactive)
REMARK    1  A    between atoms: C_1  and  C_2
REMARK    2  A    between atoms: C_7  and  C_8
REMARK    3  A    between atoms: C_7  and  C_9
REMARK    4  A    between atoms: C_11  and  N_13
REMARK    5  A    between atoms: N_16  and  C_17
REMARK    6  A    between atoms: C_17  and  C_19
REMARK    7  A    between atoms: C_17  and  C_21
REMARK    8  A    between atoms: C_19  and  O_20
REMARK    9  A    between atoms: C_21  and  C_23
REMARK   10  A    between atoms: C_21  and  O_32
REMARK   11  A    between atoms: C_26  and  N_29
REMARK                            x       y       z     vdW  Elec       q    Type
REMARK                         _______ _______ _______ _____ _____    ______ ____
ROOT
ATOM      1  N   UNK A   0      -0.300  -0.189  -2.374  0.00  0.00    -0.296 N 
ATOM      2  C   UNK A   0       0.320  -0.171  -3.570  0.00  0.00    +0.300 C 
ATOM      3  O   UNK A   0       1.516   0.041  -3.631  0.00  0.00    -0.253 OA
ATOM      4  N   UNK A   1      -0.385  -0.387  -4.698  0.00  0.00    -0.292 N 
ATOM      5  H   UNK A   0      -1.254  -0.358  -2.325  0.00  0.00    +0.151 HD
ATOM      6  H   UNK A   1      -1.339  -0.556  -4.649  0.00  0.00    +0.151 HD
ENDROOT
BRANCH   1  16
ATOM      7  C   UNK A   0       1.566   2.381  -1.591  0.00  0.00    +0.013 C 
ATOM      8  C   UNK A   0       0.520   1.571  -0.824  0.00  0.00    -0.008 C 
ATOM      9  C   UNK A   0      -0.953   2.068  -0.949  0.00  0.00    +0.009 C 
ATOM     10  C   UNK A   0      -1.679   1.447   0.267  0.00  0.00    +0.005 C 
ATOM     11  C   UNK A   0      -0.577   0.633   1.011  0.00  0.00    -0.003 C 
ATOM     12  C   UNK A   0       0.681   1.530   0.737  0.00  0.00    -0.025 C 
ATOM     13  C   UNK A   0       0.543   2.919   1.364  0.00  0.00    +0.012 C 
ATOM     14  C   UNK A   0       1.980   0.843   1.162  0.00  0.00    +0.012 C 
ATOM     15  C   UNK A   0      -0.296  -0.586   0.080  0.00  0.00    +0.027 C 
ATOM     16  C   UNK A   0       0.466   0.046  -1.147  0.00  0.00    +0.081 C 
ENDBRANCH   1  16
BRANCH   4  17
ATOM     17  C   UNK A   1       0.290  -0.368  -5.998  0.00  0.00    +0.133 C 
BRANCH  17  18
ATOM     18  C   UNK A   1       0.889  -1.746  -6.283  0.00  0.00    +0.181 C 
BRANCH  18  19
ATOM     19  O   UNK A   1      -0.162  -2.708  -6.400  0.00  0.00    -0.393 OA
ATOM     20  H   UNK A   1       0.146  -3.606  -6.581  0.00  0.00    +0.209 HD
ENDBRANCH  18  19
ENDBRANCH  17  18
BRANCH  17  21
ATOM     21  C   UNK A   1      -0.721  -0.015  -7.092  0.00  0.00    +0.167 C 
BRANCH  21  22
ATOM     22  C   UNK A   1      -1.270   1.366  -6.842  0.00  0.00    -0.017 A 
ATOM     23  C   UNK A   1      -0.588   2.475  -7.307  0.00  0.00    +0.008 A 
ATOM     24  C   UNK A   1      -1.092   3.742  -7.078  0.00  0.00    +0.033 A 
ATOM     25  C   UNK A   1      -2.277   3.899  -6.385  0.00  0.00    +0.126 A 
ATOM     26  C   UNK A   1      -2.959   2.790  -5.921  0.00  0.00    +0.033 A 
ATOM     27  C   UNK A   1      -2.458   1.523  -6.153  0.00  0.00    +0.008 A 
BRANCH  25  28
ATOM     28  N   UNK A   1      -2.816   5.256  -6.139  0.00  0.00    +0.056 N 
ATOM     29  O   UNK A   1      -2.219   6.226  -6.544  0.00  0.00    -0.126 OA
ATOM     30  O   UNK A   1      -3.853   5.394  -5.532  0.00  0.00    -0.126 OA
ENDBRANCH  25  28
ENDBRANCH  21  22
BRANCH  21  31
ATOM     31  O   UNK A   1      -0.075  -0.048  -8.366  0.00  0.00    -0.385 OA
ATOM     32  H   UNK A   1       0.719   0.501  -8.419  0.00  0.00    +0.210 HD
ENDBRANCH  21  31
ENDBRANCH  17  21
ENDBRANCH   4  17
TORSDOF 8
