REMARK  Name = ZINC12374901
REMARK  4 active torsions:
REMARK  status: ('A' for Active; 'I' for Inactive)
REMARK    1  A    between atoms: C_3  and  C_6
REMARK    2  A    between atoms: C_9  and  C_35
REMARK    3  A    between atoms: C_14  and  C_16
REMARK    4  A    between atoms: N_21  and  C_24
REMARK                            x       y       z     vdW  Elec       q    Type
REMARK                         _______ _______ _______ _____ _____    ______ ____
ROOT
ATOM      1  C   UNL     1       3.662   0.627  -0.063  0.00  0.00    +0.140 C 
ATOM      2  C   UNL     1       4.209   0.352  -1.468  0.00  0.00    +0.066 C 
ATOM      3  C   UNL     1       3.612  -0.949  -2.016  0.00  0.00    +0.215 C 
ATOM      4  N   UNL     1       3.770  -2.003  -1.010  0.00  0.00    -0.238 N 
ATOM      5  C   UNL     1       3.998  -1.759   0.315  0.00  0.00    +0.119 A 
ATOM      6  C   UNL     1       4.094  -2.943   0.950  0.00  0.00    +0.078 A 
ATOM      7  C   UNL     1       3.916  -3.961  -0.016  0.00  0.00    +0.149 A 
ATOM      8  N   UNL     1       3.721  -3.385  -1.189  0.00  0.00    -0.164 NA
ATOM      9  N   UNL     1       4.098  -0.461   0.835  0.00  0.00    -0.319 N 
ATOM     10  H   UNL     1       4.433  -0.286   1.728  0.00  0.00    +0.148 HD
ENDROOT
BRANCH   7  11
ATOM     11  C   UNL     1       3.942  -5.415   0.243  0.00  0.00    +0.267 C 
ATOM     12  O   UNL     1       4.248  -5.831   1.343  0.00  0.00    -0.268 OA
ATOM     13  N   UNL     1       3.627  -6.280  -0.742  0.00  0.00    -0.300 N 
ATOM     14  C   UNL     1       3.345  -5.805  -2.105  0.00  0.00    +0.089 C 
ATOM     15  C   UNL     1       2.021  -6.421  -2.569  0.00  0.00    -0.059 C 
ATOM     16  N   UNL     1       2.091  -7.882  -2.439  0.00  0.00    +0.385 N 
ATOM     17  C   UNL     1       2.224  -8.253  -1.024  0.00  0.00    -0.059 C 
ATOM     18  C   UNL     1       3.563  -7.727  -0.485  0.00  0.00    +0.089 C 
ATOM     19  H   UNL     1       2.888  -8.227  -2.952  0.00  0.00    -0.081 HD
BRANCH  16  20
ATOM     20  C   UNL     1       0.865  -8.480  -2.987  0.00  0.00    -0.065 C 
ATOM     21  C   UNL     1       0.731  -8.104  -4.464  0.00  0.00    -0.009 C 
ATOM     22  C   UNL     1      -0.546  -8.726  -5.034  0.00  0.00    -0.012 C 
ATOM     23  C   UNL     1      -0.475 -10.249  -4.899  0.00  0.00    +0.007 C 
ATOM     24  C   UNL     1      -0.340 -10.624  -3.422  0.00  0.00    -0.012 C 
ATOM     25  C   UNL     1       0.936 -10.002  -2.852  0.00  0.00    -0.009 C 
ATOM     26  C   UNL     1      -1.552 -10.100  -2.650  0.00  0.00    +0.007 C 
ATOM     27  C   UNL     1      -1.623  -8.577  -2.784  0.00  0.00    -0.012 C 
ATOM     28  C   UNL     1      -1.758  -8.202  -4.261  0.00  0.00    +0.007 C 
ATOM     29  C   UNL     1      -0.347  -7.955  -2.214  0.00  0.00    -0.009 C 
ENDBRANCH  16  20
ENDBRANCH   7  11
BRANCH   1  32
ATOM     30  C   UNL     1       0.054   1.373  -0.167  0.00  0.00    +0.041 A 
ATOM     31  C   UNL     1       1.405   1.790  -0.127  0.00  0.00    +0.046 A 
ATOM     32  C   UNL     1       2.156   0.674  -0.106  0.00  0.00    +0.125 A 
ATOM     33  O   UNL     1       1.337  -0.390  -0.132  0.00  0.00    -0.466 OA
ATOM     34  C   UNL     1       0.061   0.028  -0.169  0.00  0.00    +0.195 A 
ENDBRANCH   1  32
BRANCH   3  35
ATOM     35  C   UNL     1       4.345  -1.348  -3.299  0.00  0.00    +0.412 C 
ATOM     36  F   UNL     1       5.702  -1.539  -3.021  0.00  0.00    -0.168 F 
ATOM     37  F   UNL     1       3.799  -2.536  -3.797  0.00  0.00    -0.168 F 
ATOM     38  F   UNL     1       4.202  -0.334  -4.252  0.00  0.00    -0.168 F 
ENDBRANCH   3  35
TORSDOF 4
