REMARK  Name = ZINC09173576
REMARK  7 active torsions:
REMARK  status: ('A' for Active; 'I' for Inactive)
REMARK    1  A    between atoms: C_4  and  C_7
REMARK    2  A    between atoms: C_7  and  N_58
REMARK    3  A    between atoms: C_11  and  C_14
REMARK    4  A    between atoms: C_14  and  N_15
REMARK    5  A    between atoms: C_16  and  C_18
REMARK    6  A    between atoms: C_18  and  S_19
REMARK    7  A    between atoms: S_19  and  C_20
REMARK                            x       y       z     vdW  Elec       q    Type
REMARK                         _______ _______ _______ _____ _____    ______ ____
ROOT
ATOM      1  N   UNL     1      -0.525  -4.375   4.322  0.00  0.00    -0.312 N 
ATOM      2  C   UNL     1      -0.671  -5.684   4.608  0.00  0.00    +0.223 C 
ATOM      3  O   UNL     1      -0.679  -6.503   3.714  0.00  0.00    -0.275 OA
ATOM      4  H   UNL     1      -0.519  -3.720   5.037  0.00  0.00    +0.149 HD
ENDROOT
BRANCH   1   5
ATOM      5  C   UNL     1      -0.375  -3.942   2.930  0.00  0.00    +0.133 C 
BRANCH   5   9
ATOM      6  C   UNL     1       1.281  -0.144   2.054  0.00  0.00    -0.050 C 
ATOM      7  C   UNL     1       1.235  -0.628   3.506  0.00  0.00    +0.142 C 
ATOM      8  O   UNL     1       0.991  -2.037   3.526  0.00  0.00    -0.379 OA
ATOM      9  C   UNL     1      -0.228  -2.420   2.883  0.00  0.00    +0.119 C 
ATOM     10  C   UNL     1      -0.196  -1.954   1.425  0.00  0.00    -0.045 C 
ATOM     11  N   UNL     1       0.002  -0.490   1.399  0.00  0.00    +0.386 N 
ATOM     12  H   UNL     1      -0.767  -0.039   1.909  0.00  0.00    -0.081 HD
BRANCH  11  13
ATOM     13  C   UNL     1       0.002  -0.004   0.002  0.00  0.00    -0.043 C 
BRANCH  13  17
ATOM     14  C   UNL     1      -0.056   4.267   0.025  0.00  0.00    +0.000 A 
ATOM     15  C   UNL     1       1.151   3.592   0.010  0.00  0.00    +0.000 A 
ATOM     16  C   UNL     1       1.169   2.210   0.003  0.00  0.00    +0.002 A 
ATOM     17  C   UNL     1      -0.018   1.503   0.010  0.00  0.00    -0.064 A 
ATOM     18  C   UNL     1      -1.225   2.178   0.020  0.00  0.00    +0.002 A 
ATOM     19  C   UNL     1      -1.244   3.560   0.032  0.00  0.00    +0.000 A 
ENDBRANCH  13  17
ENDBRANCH  11  13
ENDBRANCH   5   9
ENDBRANCH   1   5
BRANCH   2  20
ATOM     20  C   UNL     1      -0.825  -6.130   6.039  0.00  0.00    +0.174 C 
BRANCH  20  21
ATOM     21  S   UNL     1      -1.000  -7.930   6.095  0.00  0.00    -0.057 S 
BRANCH  21  22
ATOM     22  C   UNL     1      -1.158  -8.168   7.834  0.00  0.00    +0.274 C 
ATOM     23  N   UNL     1      -1.133  -7.225   8.731  0.00  0.00    -0.135 NA
ATOM     24  N   UNL     1      -1.294  -7.828   9.988  0.00  0.00    -0.202 N 
ATOM     25  C   UNL     1      -1.403  -9.153   9.774  0.00  0.00    +0.218 C 
ATOM     26  C   UNL     1      -1.573 -10.143  10.759  0.00  0.00    +0.061 C 
ATOM     27  C   UNL     1      -1.658  -9.961  12.150  0.00  0.00    +0.125 C 
ATOM     28  N   UNL     1      -1.820 -11.124  12.736  0.00  0.00    -0.254 NA
ATOM     29  C   UNL     1      -1.847 -12.138  11.854  0.00  0.00    +0.072 A 
ATOM     30  C   UNL     1      -1.694 -11.595  10.557  0.00  0.00    +0.014 A 
ATOM     31  C   UNL     1      -1.687 -12.432   9.445  0.00  0.00    +0.011 A 
ATOM     32  C   UNL     1      -1.828 -13.781   9.614  0.00  0.00    +0.001 A 
ATOM     33  C   UNL     1      -1.978 -14.323  10.885  0.00  0.00    +0.002 A 
ATOM     34  C   UNL     1      -1.989 -13.525  11.992  0.00  0.00    +0.028 A 
ATOM     35  O   UNL     1      -1.319  -9.356   8.449  0.00  0.00    -0.415 OA
ATOM     36  H   UNL     1      -1.319  -7.377  10.846  0.00  0.00    +0.178 HD
ENDBRANCH  21  22
ENDBRANCH  20  21
ENDBRANCH   2  20
TORSDOF 7
