REMARK  Name = ZINC57088323
REMARK  5 active torsions:
REMARK  status: ('A' for Active; 'I' for Inactive)
REMARK    1  A    between atoms: C_1  and  C_2
REMARK    2  A    between atoms: N_6  and  S_15
REMARK    3  A    between atoms: S_15  and  C_18
REMARK    4  A    between atoms: C_22  and  S_24
REMARK    5  A    between atoms: S_24  and  C_27
REMARK                            x       y       z     vdW  Elec       q    Type
REMARK                         _______ _______ _______ _____ _____    ______ ____
ROOT
ATOM      1  S   UNL     1      -2.051  -1.205   3.718  0.00  0.00    +0.061 S 
ATOM      2  O   UNL     1      -3.187  -2.007   3.421  0.00  0.00    -0.153 OA
ATOM      3  O   UNL     1      -0.837  -1.756   4.208  0.00  0.00    -0.153 OA
ENDROOT
BRANCH   1   8
ATOM      4  C   UNL     1      -0.972   1.501  -0.386  0.00  0.00    +0.008 C 
ATOM      5  C   UNL     1      -0.660   0.007  -0.290  0.00  0.00    -0.008 C 
ATOM      6  C   UNL     1      -1.959  -0.774  -0.069  0.00  0.00    +0.020 C 
ATOM      7  C   UNL     1      -2.635  -0.297   1.219  0.00  0.00    +0.110 C 
ATOM      8  N   UNL     1      -1.674  -0.386   2.329  0.00  0.00    -0.173 NA
ATOM      9  C   UNL     1      -0.372   0.272   2.173  0.00  0.00    +0.083 C 
ATOM     10  C   UNL     1       0.284  -0.243   0.886  0.00  0.00    +0.011 C 
ATOM     11  C   UNL     1       1.612   0.482   0.675  0.00  0.00    +0.005 C 
ATOM     12  C   UNL     1       2.536   0.185   1.861  0.00  0.00    +0.000 C 
ATOM     13  C   UNL     1       1.884   0.661   3.159  0.00  0.00    +0.002 C 
ATOM     14  C   UNL     1       0.536  -0.045   3.360  0.00  0.00    +0.021 C 
ENDBRANCH   1   8
BRANCH   1  15
ATOM     15  C   UNL     1      -2.575  -0.010   4.902  0.00  0.00    +0.107 A 
ATOM     16  C   UNL     1      -1.679   0.477   5.835  0.00  0.00    +0.031 A 
ATOM     17  C   UNL     1      -2.088   1.415   6.764  0.00  0.00    +0.042 A 
ATOM     18  C   UNL     1      -3.397   1.867   6.760  0.00  0.00    +0.148 A 
ATOM     19  C   UNL     1      -4.294   1.379   5.824  0.00  0.00    +0.125 A 
ATOM     20  C   UNL     1      -3.881   0.445   4.893  0.00  0.00    +0.058 A 
ATOM     21  F   UNL     1      -3.799   2.784   7.667  0.00  0.00    -0.203 F 
BRANCH  19  22
ATOM     22  S   UNL     1      -5.960   1.953   5.818  0.00  0.00    -0.003 S 
ATOM     23  O   UNL     1      -5.855   3.370   5.817  0.00  0.00    -0.170 OA
ATOM     24  O   UNL     1      -6.574   1.272   4.732  0.00  0.00    -0.170 OA
ATOM     25  C   UNL     1      -6.657   1.379   7.391  0.00  0.00    +0.200 C 
ENDBRANCH  19  22
ENDBRANCH   1  15
TORSDOF 3
