REMARK  Name = ZINC05390647
REMARK  12 active torsions:
REMARK  status: ('A' for Active; 'I' for Inactive)
REMARK    1  A    between atoms: C_1  and  C_2
REMARK    2  A    between atoms: C_2  and  C_3
REMARK    3  A    between atoms: C_2  and  C_4
REMARK    4  A    between atoms: C_7  and  C_11
REMARK    5  A    between atoms: C_7  and  C_22
REMARK    6  A    between atoms: C_11  and  C_12
REMARK    7  A    between atoms: C_12  and  N_62
REMARK    8  A    between atoms: C_13  and  C_15
REMARK    9  A    between atoms: C_13  and  C_16
REMARK   10  A    between atoms: C_13  and  N_62
REMARK   11  A    between atoms: C_27  and  O_28
REMARK   12  A    between atoms: O_28  and  C_29
REMARK                            x       y       z     vdW  Elec       q    Type
REMARK                         _______ _______ _______ _____ _____    ______ ____
ROOT
ATOM      1  C   UNL     1      -1.497  -0.759  -1.454  0.00  0.00    +0.122 C 
ATOM      2  C   UNL     1      -2.182  -0.511  -0.107  0.00  0.00    +0.043 C 
ATOM      3  C   UNL     1      -2.502   0.981   0.025  0.00  0.00    +0.002 C 
ATOM      4  C   UNL     1      -3.373   1.413  -1.158  0.00  0.00    +0.040 C 
ATOM      5  C   UNL     1      -2.642   1.090  -2.464  0.00  0.00    +0.161 C 
ATOM      6  O   UNL     1      -2.347  -0.308  -2.510  0.00  0.00    -0.376 OA
ENDROOT
BRANCH   3   7
ATOM      7  C   UNL     1      -1.221   1.774   0.024  0.00  0.00    +0.001 A 
ATOM      8  C   UNL     1      -1.049   2.809  -0.876  0.00  0.00    +0.008 A 
ATOM      9  C   UNL     1       0.124   3.540  -0.874  0.00  0.00    +0.001 A 
ATOM     10  C   UNL     1       1.131   3.235   0.024  0.00  0.00    +0.004 A 
ATOM     11  C   UNL     1       0.966   2.198   0.922  0.00  0.00    +0.046 A 
ATOM     12  C   UNL     1      -0.211   1.463   0.922  0.00  0.00    +0.124 A 
BRANCH  12  13
ATOM     13  O   UNL     1      -0.375   0.443   1.805  0.00  0.00    -0.495 OA
ATOM     14  C   UNL     1       0.704   0.182   2.704  0.00  0.00    +0.277 C 
ENDBRANCH  12  13
ENDBRANCH   3   7
BRANCH   1  16
ATOM     15  C   UNL     1      -0.544  -2.505  -2.967  0.00  0.00    +0.010 C 
ATOM     16  C   UNL     1      -1.227  -2.256  -1.621  0.00  0.00    +0.012 C 
ATOM     17  C   UNL     1      -0.317  -2.739  -0.490  0.00  0.00    +0.010 C 
ENDBRANCH   1  16
BRANCH   3  18
ATOM     18  C   UNL     1      -3.256   1.230   1.333  0.00  0.00    -0.007 C 
BRANCH  18  19
ATOM     19  C   UNL     1      -3.663   2.703   1.415  0.00  0.00    -0.081 C 
BRANCH  19  20
ATOM     20  N   UNL     1      -4.271   2.963   2.734  0.00  0.00    +0.383 N 
ATOM     21  H   UNL     1      -3.588   2.749   3.470  0.00  0.00    -0.085 HD
ATOM     22  H   UNL     1      -5.098   2.366   2.849  0.00  0.00    -0.085 HD
BRANCH  20  23
ATOM     23  C   UNL     1      -4.674   4.378   2.841  0.00  0.00    -0.044 C 
ATOM     24  C   UNL     1      -6.066   4.561   2.233  0.00  0.00    -0.009 C 
BRANCH  23  25
ATOM     25  C   UNL     1      -4.705   4.775   4.295  0.00  0.00    -0.062 A 
ATOM     26  C   UNL     1      -5.201   3.897   5.240  0.00  0.00    +0.002 A 
ATOM     27  C   UNL     1      -5.225   4.259   6.574  0.00  0.00    +0.000 A 
ATOM     28  C   UNL     1      -4.762   5.503   6.961  0.00  0.00    +0.000 A 
ATOM     29  C   UNL     1      -4.271   6.383   6.015  0.00  0.00    +0.000 A 
ATOM     30  C   UNL     1      -4.242   6.019   4.682  0.00  0.00    +0.002 A 
ENDBRANCH  23  25
ENDBRANCH  20  23
ENDBRANCH  19  20
ENDBRANCH  18  19
ENDBRANCH   3  18
TORSDOF 8
