REMARK  Name = ZINC58845768
REMARK  11 active torsions:
REMARK  status: ('A' for Active; 'I' for Inactive)
REMARK    1  A    between atoms: C_1  and  C_2
REMARK    2  A    between atoms: C_7  and  N_8
REMARK    3  A    between atoms: N_8  and  S_9
REMARK    4  A    between atoms: S_9  and  C_12
REMARK    5  A    between atoms: C_25  and  C_28
REMARK    6  A    between atoms: C_30  and  O_38
REMARK    7  A    between atoms: C_31  and  O_36
REMARK    8  A    between atoms: C_32  and  O_34
REMARK    9  A    between atoms: O_34  and  C_35
REMARK   10  A    between atoms: O_36  and  C_37
REMARK   11  A    between atoms: O_38  and  C_39
REMARK                            x       y       z     vdW  Elec       q    Type
REMARK                         _______ _______ _______ _____ _____    ______ ____
ROOT
ATOM      1  C   UNL     1       2.500  -0.640   3.443  0.00  0.00    +0.109 A 
ATOM      2  C   UNL     1       3.115  -1.709   2.816  0.00  0.00    +0.030 A 
ATOM      3  C   UNL     1       4.476  -1.679   2.590  0.00  0.00    +0.025 A 
ATOM      4  C   UNL     1       5.227  -0.579   2.990  0.00  0.00    +0.031 A 
ATOM      5  C   UNL     1       4.610   0.498   3.607  0.00  0.00    -0.018 A 
ATOM      6  C   UNL     1       3.241   0.457   3.832  0.00  0.00    +0.034 A 
ATOM      7  C   UNL     1       5.375   1.712   4.014  0.00  0.00    +0.049 C 
ATOM      8  C   UNL     1       5.619   1.757   5.501  0.00  0.00    -0.023 C 
ATOM      9  C   UNL     1       6.797   2.272   5.751  0.00  0.00    -0.030 C 
ATOM     10  C   UNL     1       7.510   2.639   4.467  0.00  0.00    +0.033 C 
ATOM     11  C   UNL     1       6.761   1.829   3.384  0.00  0.00    +0.029 C 
ATOM     12  C   UNL     1       7.468   0.500   3.215  0.00  0.00    +0.105 C 
ATOM     13  N   UNL     1       6.600  -0.572   2.773  0.00  0.00    -0.336 N 
ATOM     14  H   UNL     1       6.999  -1.333   2.323  0.00  0.00    +0.147 HD
ENDROOT
BRANCH  12  15
ATOM     15  C   UNL     1       8.106   0.126   4.528  0.00  0.00    -0.020 A 
ATOM     16  C   UNL     1       7.340  -0.440   5.530  0.00  0.00    +0.055 A 
ATOM     17  C   UNL     1       7.923  -0.784   6.740  0.00  0.00    +0.165 A 
ATOM     18  C   UNL     1       9.279  -0.561   6.945  0.00  0.00    +0.204 A 
ATOM     19  C   UNL     1      10.046   0.008   5.935  0.00  0.00    +0.165 A 
ATOM     20  C   UNL     1       9.456   0.345   4.726  0.00  0.00    +0.055 A 
BRANCH  19  21
ATOM     21  O   UNL     1      11.373   0.229   6.130  0.00  0.00    -0.491 OA
ATOM     22  C   UNL     1      12.099   0.816   5.048  0.00  0.00    +0.277 C 
ENDBRANCH  19  21
BRANCH  18  23
ATOM     23  O   UNL     1       9.854  -0.897   8.131  0.00  0.00    -0.488 OA
ATOM     24  C   UNL     1      10.389  -2.218   8.242  0.00  0.00    +0.277 C 
ENDBRANCH  18  23
BRANCH  17  25
ATOM     25  O   UNL     1       7.168  -1.340   7.726  0.00  0.00    -0.491 OA
ATOM     26  C   UNL     1       5.781  -1.540   7.446  0.00  0.00    +0.277 C 
ENDBRANCH  17  25
ENDBRANCH  12  15
BRANCH   1  27
ATOM     27  S   UNL     1       0.764  -0.678   3.741  0.00  0.00    +0.072 S 
ATOM     28  O   UNL     1       0.519   0.207   4.826  0.00  0.00    -0.150 OA
ATOM     29  O   UNL     1       0.387  -2.047   3.775  0.00  0.00    -0.150 OA
BRANCH  27  30
ATOM     30  N   UNL     1       0.025  -0.016   2.415  0.00  0.00    -0.216 N 
ATOM     31  H   UNL     1      -0.522   0.779   2.511  0.00  0.00    +0.174 HD
BRANCH  30  38
ATOM     32  C   UNL     1       0.153   1.691   0.143  0.00  0.00    +0.046 C 
ATOM     33  C   UNL     1       0.258   0.193   0.022  0.00  0.00    -0.028 A 
ATOM     34  C   UNL     1       0.426  -0.391  -1.218  0.00  0.00    +0.005 A 
ATOM     35  C   UNL     1       0.522  -1.765  -1.331  0.00  0.00    +0.000 A 
ATOM     36  C   UNL     1       0.450  -2.561  -0.202  0.00  0.00    +0.002 A 
ATOM     37  C   UNL     1       0.282  -1.984   1.042  0.00  0.00    +0.025 A 
ATOM     38  C   UNL     1       0.190  -0.603   1.159  0.00  0.00    +0.051 A 
ENDBRANCH  30  38
ENDBRANCH  27  30
ENDBRANCH   1  27
TORSDOF 7
