REMARK  Name = ZINC20135291
REMARK  9 active torsions:
REMARK  status: ('A' for Active; 'I' for Inactive)
REMARK    1  A    between atoms: C_1  and  C_2
REMARK    2  A    between atoms: C_2  and  O_3
REMARK    3  A    between atoms: O_3  and  C_4
REMARK    4  A    between atoms: C_4  and  C_6
REMARK    5  A    between atoms: C_7  and  C_32
REMARK    6  A    between atoms: C_11  and  S_23
REMARK    7  A    between atoms: C_14  and  C_16
REMARK    8  A    between atoms: S_23  and  C_24
REMARK    9  A    between atoms: C_24  and  C_25
REMARK                            x       y       z     vdW  Elec       q    Type
REMARK                         _______ _______ _______ _____ _____    ______ ____
ROOT
ATOM      1  C   UNL     1       1.955   3.906   1.237  0.00  0.00    +0.082 C 
ATOM      2  C   UNL     1       3.122   4.568   1.201  0.00  0.00    +0.020 C 
ATOM      3  N   UNL     1       3.710   4.949   0.021  0.00  0.00    -0.287 N 
ATOM      4  C   UNL     1       2.942   4.867  -1.132  0.00  0.00    +0.219 A 
ATOM      5  N   UNL     1       3.158   5.356  -2.323  0.00  0.00    -0.187 NA
ATOM      6  C   UNL     1       2.138   5.034  -3.132  0.00  0.00    +0.211 A 
ATOM      7  N   UNL     1       1.260   4.327  -2.454  0.00  0.00    -0.141 NA
ATOM      8  N   UNL     1       1.760   4.203  -1.158  0.00  0.00    -0.220 N 
ATOM      9  C   UNL     1       1.194   3.513  -0.001  0.00  0.00    +0.179 C 
ATOM     10  C   UNL     1       3.810   4.903   2.499  0.00  0.00    +0.061 C 
ATOM     11  H   UNL     1       4.752   5.303   0.014  0.00  0.00    +0.155 HD
ENDROOT
BRANCH   9  12
ATOM     12  C   UNL     1       1.299   2.023  -0.203  0.00  0.00    -0.017 A 
ATOM     13  C   UNL     1       2.538   1.434  -0.371  0.00  0.00    +0.006 A 
ATOM     14  C   UNL     1       2.635   0.068  -0.558  0.00  0.00    +0.002 A 
ATOM     15  C   UNL     1       1.493  -0.710  -0.576  0.00  0.00    +0.020 A 
ATOM     16  C   UNL     1       0.252  -0.121  -0.407  0.00  0.00    +0.041 A 
ATOM     17  C   UNL     1       0.156   1.247  -0.221  0.00  0.00    +0.026 A 
ATOM     18 CL   UNL     1      -1.183  -1.097  -0.430  0.00  0.00    -0.084 Cl
ENDBRANCH   9  12
BRANCH   1  19
ATOM     19  C   UNL     1       1.415   3.562   2.496  0.00  0.00    +0.339 C 
ATOM     20  O   UNL     1       0.460   4.174   2.937  0.00  0.00    -0.245 OA
BRANCH  19  21
ATOM     21  O   UNL     1       1.959   2.554   3.211  0.00  0.00    -0.462 OA
BRANCH  21  23
ATOM     22  C   UNL     1       2.109   1.098   5.134  0.00  0.00    +0.048 C 
ATOM     23  C   UNL     1       1.363   2.260   4.476  0.00  0.00    +0.229 C 
ENDBRANCH  21  23
ENDBRANCH  19  21
ENDBRANCH   1  19
BRANCH   6  24
ATOM     24  S   UNL     1       1.998   5.483  -4.830  0.00  0.00    -0.080 S 
BRANCH  24  25
ATOM     25  C   UNL     1       3.506   6.436  -5.158  0.00  0.00    +0.112 C 
BRANCH  25  26
ATOM     26  C   UNL     1       3.513   6.887  -6.596  0.00  0.00    -0.037 A 
ATOM     27  C   UNL     1       4.089   6.090  -7.567  0.00  0.00    +0.007 A 
ATOM     28  C   UNL     1       4.091   6.500  -8.887  0.00  0.00    +0.038 A 
ATOM     29  C   UNL     1       3.525   7.715  -9.234  0.00  0.00    +0.123 A 
ATOM     30  C   UNL     1       2.953   8.515  -8.260  0.00  0.00    +0.038 A 
ATOM     31  C   UNL     1       2.948   8.100  -6.941  0.00  0.00    +0.007 A 
ATOM     32  F   UNL     1       3.530   8.119 -10.524  0.00  0.00    -0.205 F 
ENDBRANCH  25  26
ENDBRANCH  24  25
ENDBRANCH   6  24
TORSDOF 7
