REMARK  Name = ZINC09089979
REMARK  9 active torsions:
REMARK  status: ('A' for Active; 'I' for Inactive)
REMARK    1  A    between atoms: C_1  and  C_2
REMARK    2  A    between atoms: C_5  and  N_9
REMARK    3  A    between atoms: C_7  and  C_8
REMARK    4  A    between atoms: C_13  and  N_14
REMARK    5  A    between atoms: N_14  and  C_15
REMARK    6  A    between atoms: C_17  and  O_23
REMARK    7  A    between atoms: C_20  and  O_21
REMARK    8  A    between atoms: O_21  and  C_22
REMARK    9  A    between atoms: O_23  and  C_24
REMARK                            x       y       z     vdW  Elec       q    Type
REMARK                         _______ _______ _______ _____ _____    ______ ____
ROOT
ATOM      1  N   UNL     1      -0.025  -4.173  -0.015  0.00  0.00    -0.190 N 
ATOM      2  C   UNL     1      -0.114  -4.828  -1.191  0.00  0.00    +0.265 C 
ATOM      3  O   UNL     1      -0.264  -4.220  -2.234  0.00  0.00    -0.269 OA
ATOM      4  C   UNL     1      -0.024  -6.298  -1.178  0.00  0.00    +0.113 C 
ATOM      5  C   UNL     1      -0.106  -7.037  -2.345  0.00  0.00    +0.090 C 
ATOM      6  C   UNL     1       0.159  -6.948   0.132  0.00  0.00    +0.258 C 
ATOM      7  O   UNL     1       0.243  -8.159   0.222  0.00  0.00    -0.270 OA
ATOM      8  N   UNL     1       0.232  -6.165   1.227  0.00  0.00    -0.235 N 
ATOM      9  C   UNL     1       0.147  -4.830   1.141  0.00  0.00    +0.320 C 
ATOM     10  O   UNL     1       0.225  -4.181   2.166  0.00  0.00    -0.251 OA
ATOM     11  H   UNL     1       0.352  -6.577   2.097  0.00  0.00    +0.159 HD
ENDROOT
BRANCH   1  16
ATOM     12  C   UNL     1      -0.361   1.492   0.036  0.00  0.00    +0.044 C 
ATOM     13  C   UNL     1      -0.272  -0.013   0.023  0.00  0.00    -0.047 A 
ATOM     14  C   UNL     1       0.857  -0.641   0.517  0.00  0.00    +0.005 A 
ATOM     15  C   UNL     1       0.941  -2.020   0.506  0.00  0.00    +0.024 A 
ATOM     16  C   UNL     1      -0.108  -2.774  -0.002  0.00  0.00    +0.046 A 
ATOM     17  C   UNL     1      -1.239  -2.140  -0.497  0.00  0.00    +0.027 A 
ATOM     18  C   UNL     1      -1.320  -0.761  -0.478  0.00  0.00    -0.046 A 
ATOM     19  C   UNL     1      -2.551  -0.072  -1.009  0.00  0.00    +0.044 C 
ENDBRANCH   1  16
BRANCH   5  20
ATOM     20  N   UNL     1      -0.117  -6.411  -3.540  0.00  0.00    -0.317 N 
ATOM     21  H   UNL     1       0.013  -5.451  -3.586  0.00  0.00    +0.152 HD
BRANCH  20  22
ATOM     22  C   UNL     1      -0.315  -7.147  -4.713  0.00  0.00    +0.077 A 
ATOM     23  C   UNL     1      -0.505  -8.520  -4.649  0.00  0.00    +0.072 A 
ATOM     24  C   UNL     1      -0.702  -9.246  -5.813  0.00  0.00    +0.122 A 
ATOM     25  C   UNL     1      -0.707  -8.601  -7.042  0.00  0.00    +0.049 A 
ATOM     26  C   UNL     1      -0.517  -7.234  -7.109  0.00  0.00    +0.051 A 
ATOM     27  C   UNL     1      -0.326  -6.502  -5.948  0.00  0.00    +0.141 A 
BRANCH  27  28
ATOM     28  O   UNL     1      -0.144  -5.155  -6.015  0.00  0.00    -0.493 OA
ATOM     29  C   UNL     1      -0.168  -4.561  -7.314  0.00  0.00    +0.277 C 
ENDBRANCH  27  28
BRANCH  24  30
ATOM     30  O   UNL     1      -0.888 -10.591  -5.751  0.00  0.00    -0.495 OA
ATOM     31  C   UNL     1      -1.085 -11.277  -6.990  0.00  0.00    +0.277 C 
ENDBRANCH  24  30
ENDBRANCH  20  22
ENDBRANCH   5  20
TORSDOF 5
