REMARK  Name = ZINC48287693
REMARK  8 active torsions:
REMARK  status: ('A' for Active; 'I' for Inactive)
REMARK    1  A    between atoms: C_1  and  N_2
REMARK    2  A    between atoms: N_2  and  S_3
REMARK    3  A    between atoms: S_3  and  C_6
REMARK    4  A    between atoms: N_14  and  S_15
REMARK    5  A    between atoms: S_15  and  C_18
REMARK    6  A    between atoms: C_21  and  O_24
REMARK    7  A    between atoms: O_24  and  C_25
REMARK    8  A    between atoms: C_25  and  C_26
REMARK                            x       y       z     vdW  Elec       q    Type
REMARK                         _______ _______ _______ _____ _____    ______ ____
ROOT
ATOM      1  S   UNL     1       7.465   1.471  -1.633  0.00  0.00    +0.075 S 
ATOM      2  O   UNL     1       8.789   0.958  -1.702  0.00  0.00    -0.150 OA
ATOM      3  O   UNL     1       6.765   1.932  -2.780  0.00  0.00    -0.150 OA
ENDROOT
BRANCH   1  12
ATOM      4  C   UNL     1       2.438  -0.437  -1.202  0.00  0.00    +0.106 A 
ATOM      5  C   UNL     1       2.928   0.656  -1.893  0.00  0.00    +0.030 A 
ATOM      6  C   UNL     1       4.273   0.955  -1.857  0.00  0.00    +0.027 A 
ATOM      7  C   UNL     1       5.152   0.157  -1.121  0.00  0.00    +0.055 A 
ATOM      8  C   UNL     1       4.651  -0.936  -0.431  0.00  0.00    -0.021 A 
ATOM      9  C   UNL     1       3.301  -1.228  -0.467  0.00  0.00    +0.034 A 
ATOM     10  C   UNL     1       5.797  -1.624   0.276  0.00  0.00    +0.058 C 
ATOM     11  C   UNL     1       7.035  -0.789  -0.091  0.00  0.00    +0.136 C 
ATOM     12  N   UNL     1       6.532   0.283  -0.954  0.00  0.00    -0.202 N 
BRANCH   4  13
ATOM     13  S   UNL     1       0.718  -0.816  -1.251  0.00  0.00    +0.058 S 
ATOM     14  O   UNL     1       0.599  -2.201  -0.959  0.00  0.00    -0.153 OA
ATOM     15  O   UNL     1       0.211  -0.243  -2.449  0.00  0.00    -0.153 OA
BRANCH  13  17
ATOM     16  C   UNL     1      -0.018   1.461   0.010  0.00  0.00    +0.127 C 
ATOM     17  N   UNL     1       0.002  -0.004   0.002  0.00  0.00    -0.193 NA
ATOM     18  H   UNL     1      -0.404  -0.499   0.731  0.00  0.00    +0.148 HD
ENDBRANCH  13  17
ENDBRANCH   4  13
ENDBRANCH   1  12
BRANCH   1  19
ATOM     19  C   UNL     1       7.506   2.815  -0.494  0.00  0.00    +0.109 A 
ATOM     20  C   UNL     1       6.545   3.807  -0.563  0.00  0.00    +0.032 A 
ATOM     21  C   UNL     1       6.576   4.863   0.328  0.00  0.00    +0.047 A 
ATOM     22  C   UNL     1       7.571   4.926   1.293  0.00  0.00    +0.121 A 
ATOM     23  C   UNL     1       8.533   3.929   1.360  0.00  0.00    +0.047 A 
ATOM     24  C   UNL     1       8.495   2.873   0.470  0.00  0.00    +0.032 A 
BRANCH  22  25
ATOM     25  O   UNL     1       7.603   5.963   2.171  0.00  0.00    -0.492 OA
BRANCH  25  26
ATOM     26  C   UNL     1       8.655   5.963   3.137  0.00  0.00    +0.232 C 
BRANCH  26  27
ATOM     27  C   UNL     1       8.528   7.199   4.030  0.00  0.00    +0.027 C 
ATOM     28  C   UNL     1       8.748   8.460   3.191  0.00  0.00    +0.007 C 
ATOM     29  C   UNL     1       8.620   9.695   4.085  0.00  0.00    +0.000 C 
ATOM     30  C   UNL     1       9.670   9.632   5.196  0.00  0.00    +0.000 C 
ATOM     31  C   UNL     1       9.450   8.371   6.034  0.00  0.00    +0.000 C 
ATOM     32  C   UNL     1       9.578   7.136   5.141  0.00  0.00    +0.007 C 
ENDBRANCH  26  27
ENDBRANCH  25  26
ENDBRANCH  22  25
ENDBRANCH   1  19
TORSDOF 7
