REMARK  Name = ZINC01373654
REMARK  13 active torsions:
REMARK  status: ('A' for Active; 'I' for Inactive)
REMARK    1  A    between atoms: C_1  and  O_2
REMARK    2  A    between atoms: O_2  and  C_3
REMARK    3  A    between atoms: C_7  and  C_17
REMARK    4  A    between atoms: C_14  and  O_15
REMARK    5  A    between atoms: O_15  and  C_16
REMARK    6  A    between atoms: C_17  and  N_18
REMARK    7  A    between atoms: N_18  and  C_19
REMARK    8  A    between atoms: N_18  and  C_27
REMARK    9  A    between atoms: C_19  and  C_20
REMARK   10  A    between atoms: C_20  and  C_21
REMARK   11  A    between atoms: C_27  and  C_28
REMARK   12  A    between atoms: N_32  and  C_33
REMARK   13  A    between atoms: C_33  and  C_34
REMARK                            x       y       z     vdW  Elec       q    Type
REMARK                         _______ _______ _______ _____ _____    ______ ____
ROOT
ATOM      1  N   UNL     1      -5.530   4.106  -1.407  0.00  0.00    -0.290 NA
ENDROOT
BRANCH   1   2
ATOM      2  C   UNL     1      -5.111   3.687  -0.063  0.00  0.00    +0.125 C 
BRANCH   2   7
ATOM      3  C   UNL     1       0.592   1.270  -0.280  0.00  0.00    +0.162 A 
ATOM      4  C   UNL     1      -0.345   2.273  -0.163  0.00  0.00    +0.059 A 
ATOM      5  C   UNL     1      -1.708   1.957  -0.218  0.00  0.00    +0.003 A 
ATOM      6  C   UNL     1      -2.729   2.998  -0.097  0.00  0.00    +0.020 A 
ATOM      7  C   UNL     1      -4.035   2.638  -0.176  0.00  0.00    +0.031 A 
ATOM      8  C   UNL     1      -4.390   1.285  -0.351  0.00  0.00    +0.254 A 
ATOM      9  O   UNL     1      -5.570   0.983  -0.408  0.00  0.00    -0.268 OA
ATOM     10  N   UNL     1      -3.460   0.320  -0.457  0.00  0.00    -0.322 N 
ATOM     11  H   UNL     1      -3.768  -0.728  -0.593  0.00  0.00    +0.169 HD
ATOM     12  C   UNL     1      -2.115   0.621  -0.398  0.00  0.00    +0.053 A 
ATOM     13  C   UNL     1      -1.157  -0.379  -0.508  0.00  0.00    +0.075 A 
ATOM     14  C   UNL     1       0.187  -0.057  -0.452  0.00  0.00    +0.163 A 
BRANCH   3  16
ATOM     15  C   UNL     1       2.263   2.947  -0.049  0.00  0.00    +0.277 C 
ATOM     16  O   UNL     1       1.917   1.572  -0.227  0.00  0.00    -0.491 OA
ENDBRANCH   3  16
BRANCH  14  17
ATOM     17  O   UNL     1       1.120  -1.037  -0.566  0.00  0.00    -0.491 OA
ATOM     18  C   UNL     1       0.641  -2.372  -0.741  0.00  0.00    +0.277 C 
ENDBRANCH  14  17
ENDBRANCH   2   7
ENDBRANCH   1   2
BRANCH   1  19
ATOM     19  C   UNL     1      -4.489   4.914  -2.056  0.00  0.00    +0.090 C 
BRANCH  19  20
ATOM     20  C   UNL     1      -4.292   6.214  -1.274  0.00  0.00    +0.050 C 
BRANCH  20  21
ATOM     21  C   UNL     1      -3.229   7.047  -1.943  0.00  0.00    -0.046 A 
ATOM     22  C   UNL     1      -1.904   6.902  -1.575  0.00  0.00    +0.003 A 
ATOM     23  C   UNL     1      -0.928   7.662  -2.193  0.00  0.00    +0.000 A 
ATOM     24  C   UNL     1      -1.279   8.574  -3.171  0.00  0.00    +0.000 A 
ATOM     25  C   UNL     1      -2.604   8.723  -3.535  0.00  0.00    +0.000 A 
ATOM     26  C   UNL     1      -3.579   7.959  -2.921  0.00  0.00    +0.003 A 
ENDBRANCH  20  21
ENDBRANCH  19  20
ENDBRANCH   1  19
BRANCH   1  27
ATOM     27  C   UNL     1      -6.806   4.832  -1.358  0.00  0.00    +0.162 C 
BRANCH  27  28
ATOM     28  C   UNL     1      -7.326   5.029  -2.759  0.00  0.00    +0.166 A 
ATOM     29  N   UNL     1      -7.084   6.047  -3.547  0.00  0.00    -0.112 NA
ATOM     30  N   UNL     1      -7.704   5.847  -4.659  0.00  0.00    -0.023 NA
ATOM     31  N   UNL     1      -8.342   4.730  -4.596  0.00  0.00    -0.044 NA
ATOM     32  N   UNL     1      -8.135   4.196  -3.440  0.00  0.00    -0.224 N 
BRANCH  32  33
ATOM     33  C   UNL     1      -8.676   2.923  -2.960  0.00  0.00    +0.182 C 
BRANCH  33  34
ATOM     34  C   UNL     1      -9.998   3.164  -2.277  0.00  0.00    -0.026 A 
ATOM     35  C   UNL     1     -10.038   3.421  -0.920  0.00  0.00    +0.005 A 
ATOM     36  C   UNL     1     -11.249   3.648  -0.294  0.00  0.00    +0.000 A 
ATOM     37  C   UNL     1     -12.422   3.607  -1.025  0.00  0.00    +0.000 A 
ATOM     38  C   UNL     1     -12.383   3.344  -2.381  0.00  0.00    +0.000 A 
ATOM     39  C   UNL     1     -11.171   3.123  -3.008  0.00  0.00    +0.005 A 
ENDBRANCH  33  34
ENDBRANCH  32  33
ENDBRANCH  27  28
ENDBRANCH   1  27
TORSDOF 11
