REMARK  Name = ZINC49248233
REMARK  12 active torsions:
REMARK  status: ('A' for Active; 'I' for Inactive)
REMARK    1  A    between atoms: C_1  and  C_2
REMARK    2  A    between atoms: C_2  and  C_3
REMARK    3  A    between atoms: C_3  and  C_5
REMARK    4  A    between atoms: C_3  and  C_6
REMARK    5  A    between atoms: C_9  and  C_12
REMARK    6  A    between atoms: C_12  and  C_14
REMARK    7  A    between atoms: C_12  and  N_17
REMARK    8  A    between atoms: C_14  and  C_15
REMARK    9  A    between atoms: C_14  and  C_16
REMARK   10  A    between atoms: C_18  and  C_20
REMARK   11  A    between atoms: N_22  and  C_23
REMARK   12  A    between atoms: C_26  and  C_29
REMARK                            x       y       z     vdW  Elec       q    Type
REMARK                         _______ _______ _______ _____ _____    ______ ____
ROOT
ATOM      1  N   UNL     1       2.335  -6.614  -0.192  0.00  0.00    -0.301 N 
ATOM      2  C   UNL     1       2.357  -7.817   0.415  0.00  0.00    +0.300 C 
ATOM      3  O   UNL     1       1.442  -8.597   0.250  0.00  0.00    -0.265 OA
ATOM      4  H   UNL     1       3.067  -5.991  -0.060  0.00  0.00    +0.150 HD
ENDROOT
BRANCH   2   5
ATOM      5  C   UNL     1       3.508  -8.191   1.291  0.00  0.00    +0.303 C 
ATOM      6  O   UNL     1       4.423  -7.412   1.456  0.00  0.00    -0.265 OA
ATOM      7  N   UNL     1       3.529  -9.395   1.898  0.00  0.00    -0.278 N 
ATOM      8  H   UNL     1       2.768  -9.991   1.820  0.00  0.00    +0.155 HD
BRANCH   7   9
ATOM      9  C   UNL     1       4.645  -9.782   2.636  0.00  0.00    +0.034 A 
ATOM     10  C   UNL     1       5.356  -8.835   3.368  0.00  0.00    +0.024 A 
ATOM     11  C   UNL     1       6.459  -9.215   4.099  0.00  0.00    +0.015 A 
ATOM     12  C   UNL     1       6.864 -10.553   4.106  0.00  0.00    +0.037 A 
ATOM     13  C   UNL     1       6.147 -11.501   3.371  0.00  0.00    +0.015 A 
ATOM     14  C   UNL     1       5.042 -11.116   2.646  0.00  0.00    +0.024 A 
BRANCH  12  15
ATOM     15  C   UNL     1       8.046 -10.963   4.889  0.00  0.00    +0.242 C 
ATOM     16  O   UNL     1       8.669 -10.137   5.528  0.00  0.00    -0.270 OA
ATOM     17  N   UNL     1       8.436 -12.254   4.895  0.00  0.00    -0.325 N 
ATOM     18  H   UNL     1       7.939 -12.912   4.386  0.00  0.00    +0.145 HD
ATOM     19  H   UNL     1       9.213 -12.523   5.409  0.00  0.00    +0.145 HD
ENDBRANCH  12  15
ENDBRANCH   7   9
ENDBRANCH   2   5
BRANCH   1  20
ATOM     20  C   UNL     1       1.206  -6.247  -1.050  0.00  0.00    +0.106 C 
BRANCH  20  24
ATOM     21  C   UNL     1       0.858  -1.992  -1.202  0.00  0.00    -0.045 A 
ATOM     22  C   UNL     1      -0.278  -2.777  -1.127  0.00  0.00    +0.004 A 
ATOM     23  C   UNL     1      -0.165  -4.154  -1.078  0.00  0.00    +0.006 A 
ATOM     24  C   UNL     1       1.083  -4.746  -1.105  0.00  0.00    -0.027 A 
ATOM     25  C   UNL     1       2.219  -3.962  -1.180  0.00  0.00    +0.006 A 
ATOM     26  C   UNL     1       2.106  -2.585  -1.233  0.00  0.00    +0.004 A 
BRANCH  21  27
ATOM     27  C   UNL     1       0.735  -0.491  -1.254  0.00  0.00    +0.016 C 
ATOM     28  C   UNL     1      -0.079  -0.090  -2.486  0.00  0.00    +0.012 C 
BRANCH  27  30
ATOM     29  C   UNL     1       0.016   1.537   0.014  0.00  0.00    +0.004 C 
ATOM     30  C   UNL     1       0.030   0.007   0.008  0.00  0.00    +0.004 C 
ENDBRANCH  27  30
ENDBRANCH  21  27
ENDBRANCH  20  24
BRANCH  20  31
ATOM     31  C   UNL     1       1.441  -6.791  -2.461  0.00  0.00    +0.008 C 
ATOM     32  C   UNL     1       0.263  -6.408  -3.358  0.00  0.00    +0.009 C 
ATOM     33  C   UNL     1       2.730  -6.194  -3.030  0.00  0.00    +0.009 C 
ENDBRANCH  20  31
ENDBRANCH   1  20
TORSDOF 8
