REMARK  Name = ZINC09666116
REMARK  9 active torsions:
REMARK  status: ('A' for Active; 'I' for Inactive)
REMARK    1  A    between atoms: C_1  and  C_2
REMARK    2  A    between atoms: C_2  and  O_3
REMARK    3  A    between atoms: O_3  and  C_4
REMARK    4  A    between atoms: C_4  and  C_6
REMARK    5  A    between atoms: C_7  and  C_15
REMARK    6  A    between atoms: C_12  and  C_14
REMARK    7  A    between atoms: C_15  and  S_16
REMARK    8  A    between atoms: S_16  and  C_17
REMARK    9  A    between atoms: N_30  and  C_31
REMARK                            x       y       z     vdW  Elec       q    Type
REMARK                         _______ _______ _______ _____ _____    ______ ____
ROOT
ATOM      1  C   UNL     1       5.654   6.955  -1.175  0.00  0.00    +0.128 C 
ENDROOT
BRANCH   1   3
ATOM      2  C   UNL     1       6.288   9.257  -0.544  0.00  0.00    +0.074 C 
ATOM      3  C   UNL     1       6.133   8.341  -1.524  0.00  0.00    +0.034 C 
ATOM      4  N   UNL     1       6.408   8.649  -2.826  0.00  0.00    -0.272 N 
ATOM      5  C   UNL     1       6.832   9.853  -3.231  0.00  0.00    +0.304 C 
ATOM      6  O   UNL     1       7.046  10.033  -4.413  0.00  0.00    -0.253 OA
ATOM      7  N   UNL     1       7.034  10.869  -2.369  0.00  0.00    -0.292 N 
ATOM      8  C   UNL     1       6.771  10.638  -0.939  0.00  0.00    +0.110 C 
ATOM      9  C   UNL     1       5.722  11.653  -0.482  0.00  0.00    +0.033 C 
ATOM     10  H   UNL     1       6.285   7.957  -3.495  0.00  0.00    +0.156 HD
ATOM     11  H   UNL     1       7.345  11.732  -2.683  0.00  0.00    +0.151 HD
BRANCH   2  12
ATOM     12  C   UNL     1       6.009   8.938   0.806  0.00  0.00    +0.338 C 
ATOM     13  O   UNL     1       5.488   7.874   1.085  0.00  0.00    -0.245 OA
BRANCH  12  14
ATOM     14  O   UNL     1       6.321   9.813   1.784  0.00  0.00    -0.462 OA
BRANCH  14  16
ATOM     15  C   UNL     1       6.434  10.537   4.088  0.00  0.00    +0.048 C 
ATOM     16  C   UNL     1       6.011   9.426   3.125  0.00  0.00    +0.229 C 
ENDBRANCH  14  16
ENDBRANCH  12  14
ENDBRANCH   2  12
ENDBRANCH   1   3
BRANCH   1  17
ATOM     17  S   UNL     1       3.882   6.825  -1.517  0.00  0.00    -0.082 S 
BRANCH  17  18
ATOM     18  C   UNL     1       3.599   5.154  -1.033  0.00  0.00    +0.173 A 
ATOM     19  N   UNL     1       4.621   4.442  -0.578  0.00  0.00    -0.216 NA
ATOM     20  C   UNL     1       4.378   3.188  -0.221  0.00  0.00    +0.117 A 
ATOM     21  C   UNL     1       3.105   2.578  -0.298  0.00  0.00    +0.076 A 
ATOM     22  C   UNL     1       3.031   1.193   0.138  0.00  0.00    -0.023 A 
ATOM     23  C   UNL     1       4.183   0.632   0.572  0.00  0.00    -0.004 A 
ATOM     24  S   UNL     1       5.408   1.907   0.422  0.00  0.00    -0.073 S 
ATOM     25  C   UNL     1       4.378  -0.767   1.071  0.00  0.00    +0.043 C 
ATOM     26  C   UNL     1       3.000  -1.375   1.369  0.00  0.00    +0.005 C 
ATOM     27  C   UNL     1       2.076  -1.101   0.178  0.00  0.00    +0.005 C 
ATOM     28  C   UNL     1       1.735   0.388   0.118  0.00  0.00    +0.037 C 
ATOM     29  C   UNL     1       2.024   3.377  -0.795  0.00  0.00    +0.263 A 
ATOM     30  O   UNL     1       0.891   2.941  -0.899  0.00  0.00    -0.267 OA
ATOM     31  N   UNL     1       2.340   4.648  -1.141  0.00  0.00    -0.290 N 
ATOM     32  C   UNL     1       1.278   5.516  -1.656  0.00  0.00    +0.154 C 
ENDBRANCH  17  18
ENDBRANCH   1  17
TORSDOF 6
