REMARK  Name = ZINC15947329
REMARK  7 active torsions:
REMARK  status: ('A' for Active; 'I' for Inactive)
REMARK    1  A    between atoms: C_4  and  C_7
REMARK    2  A    between atoms: C_7  and  N_8
REMARK    3  A    between atoms: C_16  and  O_37
REMARK    4  A    between atoms: C_18  and  C_21
REMARK    5  A    between atoms: C_25  and  O_27
REMARK    6  A    between atoms: O_27  and  C_28
REMARK    7  A    between atoms: C_28  and  C_30
REMARK                            x       y       z     vdW  Elec       q    Type
REMARK                         _______ _______ _______ _____ _____    ______ ____
ROOT
ATOM      1  N   UNL     1       4.539  -1.329   1.347  0.00  0.00    +0.386 N 
ATOM      2  C   UNL     1       5.857  -1.970   1.438  0.00  0.00    -0.073 C 
ATOM      3  C   UNL     1       6.387  -1.887   2.873  0.00  0.00    +0.018 C 
ATOM      4  C   UNL     1       5.309  -2.426   3.803  0.00  0.00    -0.027 A 
ATOM      5  C   UNL     1       4.032  -2.542   3.365  0.00  0.00    -0.021 A 
ATOM      6  S   UNL     1       3.140  -3.199   4.745  0.00  0.00    -0.080 S 
ATOM      7  C   UNL     1       4.378  -3.311   5.843  0.00  0.00    +0.080 A 
ATOM      8  C   UNL     1       5.519  -2.850   5.172  0.00  0.00    +0.067 A 
ATOM      9  C   UNL     1       6.801  -2.853   5.922  0.00  0.00    +0.220 C 
ATOM     10  N   UNL     1       6.749  -3.041   7.213  0.00  0.00    -0.223 NA
ATOM     11  C   UNL     1       5.517  -3.183   7.978  0.00  0.00    +0.224 C 
ATOM     12  N   UNL     1       4.426  -3.733   7.153  0.00  0.00    -0.313 N 
ATOM     13  C   UNL     1       3.529  -2.179   2.004  0.00  0.00    -0.035 C 
ATOM     14  H   UNL     1       3.777  -4.358   7.513  0.00  0.00    +0.149 HD
ATOM     15  H   UNL     1       4.570  -0.430   1.804  0.00  0.00    -0.081 HD
ENDROOT
BRANCH  11  16
ATOM     16  C   UNL     1       5.103  -1.831   8.500  0.00  0.00    -0.002 A 
ATOM     17  C   UNL     1       3.764  -1.548   8.699  0.00  0.00    +0.007 A 
ATOM     18  C   UNL     1       3.381  -0.309   9.177  0.00  0.00    +0.004 A 
ATOM     19  C   UNL     1       4.335   0.650   9.458  0.00  0.00    +0.046 A 
ATOM     20  C   UNL     1       5.679   0.368   9.260  0.00  0.00    +0.132 A 
ATOM     21  C   UNL     1       6.061  -0.879   8.785  0.00  0.00    +0.053 A 
BRANCH  20  22
ATOM     22  O   UNL     1       6.620   1.309   9.536  0.00  0.00    -0.422 OA
BRANCH  22  23
ATOM     23  C   UNL     1       6.830   1.635  10.826  0.00  0.00    +0.345 C 
ATOM     24  O   UNL     1       6.264   1.020  11.707  0.00  0.00    -0.245 OA
BRANCH  23  25
ATOM     25  C   UNL     1       7.748   2.740  11.168  0.00  0.00    +0.062 A 
ATOM     26  C   UNL     1       8.396   3.453  10.157  0.00  0.00    +0.015 A 
ATOM     27  C   UNL     1       9.253   4.483  10.482  0.00  0.00    +0.004 A 
ATOM     28  C   UNL     1       9.472   4.813  11.808  0.00  0.00    +0.038 A 
ATOM     29  C   UNL     1       8.834   4.111  12.818  0.00  0.00    +0.124 A 
ATOM     30  C   UNL     1       7.968   3.080  12.504  0.00  0.00    +0.053 A 
ATOM     31  F   UNL     1       9.053   4.438  14.110  0.00  0.00    -0.205 F 
ENDBRANCH  23  25
ENDBRANCH  22  23
ENDBRANCH  20  22
ENDBRANCH  11  16
BRANCH   9  32
ATOM     32  O   UNL     1       7.983  -2.669   5.289  0.00  0.00    -0.492 OA
ATOM     33  H   UNL     1       8.751  -2.690   5.875  0.00  0.00    +0.294 HD
ENDBRANCH   9  32
BRANCH   1  34
ATOM     34  C   UNL     1       4.180  -1.147  -0.066  0.00  0.00    -0.043 C 
BRANCH  34  38
ATOM     35  C   UNL     1       0.517   1.034  -0.337  0.00  0.00    +0.000 A 
ATOM     36  C   UNL     1       1.724   1.709  -0.316  0.00  0.00    +0.000 A 
ATOM     37  C   UNL     1       2.909   1.003  -0.228  0.00  0.00    +0.002 A 
ATOM     38  C   UNL     1       2.888  -0.377  -0.161  0.00  0.00    -0.064 A 
ATOM     39  C   UNL     1       1.681  -1.052  -0.181  0.00  0.00    +0.002 A 
ATOM     40  C   UNL     1       0.496  -0.346  -0.271  0.00  0.00    +0.000 A 
ENDBRANCH  34  38
ENDBRANCH   1  34
TORSDOF 7
