REMARK  Name = ZINC19855520
REMARK  7 active torsions:
REMARK  status: ('A' for Active; 'I' for Inactive)
REMARK    1  A    between atoms: C_1  and  C_2
REMARK    2  A    between atoms: C_3  and  C_21
REMARK    3  A    between atoms: C_4  and  C_16
REMARK    4  A    between atoms: C_10  and  C_14
REMARK    5  A    between atoms: C_10  and  C_15
REMARK    6  A    between atoms: C_21  and  O_23
REMARK    7  A    between atoms: O_23  and  C_24
REMARK                            x       y       z     vdW  Elec       q    Type
REMARK                         _______ _______ _______ _____ _____    ______ ____
ROOT
ATOM      1  C   UNL     1       3.808   5.678  -2.496  0.00  0.00    +0.061 C 
ATOM      2  C   UNL     1       3.050   5.435  -1.217  0.00  0.00    +0.016 C 
ATOM      3  C   UNL     1       1.706   5.409  -1.232  0.00  0.00    +0.066 C 
ATOM      4  C   UNL     1       0.918   5.160   0.021  0.00  0.00    +0.099 C 
ATOM      5  C   UNL     1       1.765   5.386   1.247  0.00  0.00    +0.024 C 
ATOM      6  C   UNL     1       3.112   5.416   1.159  0.00  0.00    +0.016 C 
ATOM      7  N   UNL     1       3.733   5.242  -0.048  0.00  0.00    -0.321 N 
ATOM      8  C   UNL     1       3.966   5.643   2.382  0.00  0.00    +0.058 C 
ATOM      9  C   UNL     1       3.257   5.081   3.616  0.00  0.00    -0.023 C 
ATOM     10  C   UNL     1       1.895   5.771   3.750  0.00  0.00    +0.086 C 
ATOM     11  C   UNL     1       1.115   5.562   2.481  0.00  0.00    +0.162 C 
ATOM     12  O   UNL     1      -0.100   5.545   2.523  0.00  0.00    -0.292 OA
ATOM     13  C   UNL     1       3.056   3.573   3.452  0.00  0.00    +0.011 C 
ATOM     14  C   UNL     1       4.101   5.354   4.863  0.00  0.00    +0.011 C 
ATOM     15  H   UNL     1       4.792   4.945  -0.073  0.00  0.00    +0.152 HD
ENDROOT
BRANCH   4  16
ATOM     16  C   UNL     1       0.421   3.738   0.017  0.00  0.00    +0.002 A 
ATOM     17  C   UNL     1      -0.855   3.279   0.027  0.00  0.00    +0.012 A 
ATOM     18  C   UNL     1      -1.077   1.915   0.017  0.00  0.00    +0.008 A 
ATOM     19  C   UNL     1      -0.013   1.076   0.008  0.00  0.00    +0.045 A 
ATOM     20  S   UNL     1       1.359   2.219   0.001  0.00  0.00    -0.101 S 
ENDBRANCH   4  16
BRANCH   3  21
ATOM     21  C   UNL     1       1.022   5.620  -2.452  0.00  0.00    +0.338 C 
ATOM     22  O   UNL     1       1.650   5.823  -3.474  0.00  0.00    -0.245 OA
BRANCH  21  23
ATOM     23  O   UNL     1      -0.327   5.597  -2.482  0.00  0.00    -0.458 OA
BRANCH  23  24
ATOM     24  C   UNL     1      -0.952   5.818  -3.748  0.00  0.00    +0.177 C 
ATOM     25  C   UNL     1      -1.261   7.318  -3.930  0.00  0.00    +0.044 C 
ATOM     26  C   UNL     1      -2.621   7.337  -4.672  0.00  0.00    +0.004 C 
ATOM     27  C   UNL     1      -3.384   6.157  -4.021  0.00  0.00    +0.004 C 
ATOM     28  C   UNL     1      -2.300   5.079  -3.806  0.00  0.00    +0.044 C 
ENDBRANCH  23  24
ENDBRANCH  21  23
ENDBRANCH   3  21
TORSDOF 4
