REMARK  Name = ZINC08602982
REMARK  13 active torsions:
REMARK  status: ('A' for Active; 'I' for Inactive)
REMARK    1  A    between atoms: C_1  and  C_2
REMARK    2  A    between atoms: C_2  and  N_64
REMARK    3  A    between atoms: C_3  and  C_4
REMARK    4  A    between atoms: C_3  and  N_64
REMARK    5  A    between atoms: C_5  and  C_6
REMARK    6  A    between atoms: C_5  and  N_64
REMARK    7  A    between atoms: C_6  and  C_7
REMARK    8  A    between atoms: C_7  and  C_9
REMARK    9  A    between atoms: C_7  and  C_27
REMARK   10  A    between atoms: C_9  and  N_10
REMARK   11  A    between atoms: N_10  and  C_11
REMARK   12  A    between atoms: C_21  and  O_24
REMARK   13  A    between atoms: O_24  and  C_25
REMARK                            x       y       z     vdW  Elec       q    Type
REMARK                         _______ _______ _______ _____ _____    ______ ____
ROOT
ATOM      1  N   UNL     1      -3.047  -0.104   0.086  0.00  0.00    -0.342 N 
ATOM      2  H   UNL     1      -2.107  -0.447   0.213  0.00  0.00    +0.146 HD
ENDROOT
BRANCH   1   3
ATOM      3  C   UNL     1      -3.066   1.274   0.023  0.00  0.00    +0.046 A 
ATOM      4  C   UNL     1      -2.015   1.990  -0.580  0.00  0.00    +0.020 A 
ATOM      5  C   UNL     1      -0.905   1.339  -1.143  0.00  0.00    +0.013 A 
ATOM      6  C   UNL     1       0.085   2.078  -1.714  0.00  0.00    +0.021 A 
ATOM      7  C   UNL     1       0.024   3.471  -1.754  0.00  0.00    +0.043 A 
ATOM      8  C   UNL     1      -1.026   4.157  -1.226  0.00  0.00    +0.046 A 
ATOM      9  C   UNL     1      -2.084   3.452  -0.620  0.00  0.00    +0.050 A 
ATOM     10  C   UNL     1      -4.133   3.430   0.485  0.00  0.00    +0.049 A 
ATOM     11  C   UNL     1      -4.135   2.014   0.568  0.00  0.00    +0.023 A 
ATOM     12  C   UNL     1      -5.217   1.355   1.180  0.00  0.00    +0.057 A 
ATOM     13  C   UNL     1      -6.248   2.084   1.696  0.00  0.00    +0.121 A 
ATOM     14  C   UNL     1      -6.244   3.481   1.620  0.00  0.00    +0.047 A 
ATOM     15  C   UNL     1      -5.218   4.148   1.032  0.00  0.00    +0.030 A 
ATOM     16 CL   UNL     1       1.321   4.352  -2.497  0.00  0.00    -0.083 Cl
ATOM     17  N   UNL     1      -3.128   4.169  -0.095  0.00  0.00    -0.354 N 
ATOM     18  H   UNL     1      -3.159   5.195  -0.133  0.00  0.00    +0.166 HD
BRANCH  13  19
ATOM     19  O   UNL     1      -7.290   1.446   2.292  0.00  0.00    -0.495 OA
ATOM     20  C   UNL     1      -8.339   2.264   2.814  0.00  0.00    +0.277 C 
ENDBRANCH  13  19
ENDBRANCH   1   3
BRANCH   1  21
ATOM     21  C   UNL     1      -3.665  -0.693  -1.109  0.00  0.00    +0.109 C 
BRANCH  21  22
ATOM     22  C   UNL     1      -3.752  -2.212  -0.942  0.00  0.00    +0.034 C 
BRANCH  22  23
ATOM     23  C   UNL     1      -2.362  -2.791  -0.885  0.00  0.00    -0.043 A 
ATOM     24  C   UNL     1      -1.500  -2.627  -1.953  0.00  0.00    +0.004 A 
ATOM     25  C   UNL     1      -0.224  -3.155  -1.899  0.00  0.00    +0.000 A 
ATOM     26  C   UNL     1       0.187  -3.856  -0.780  0.00  0.00    +0.000 A 
ATOM     27  C   UNL     1      -0.676  -4.024   0.286  0.00  0.00    +0.000 A 
ATOM     28  C   UNL     1      -1.951  -3.493   0.234  0.00  0.00    +0.004 A 
ENDBRANCH  22  23
BRANCH  22  29
ATOM     29  C   UNL     1      -4.507  -2.813  -2.129  0.00  0.00    -0.009 C 
BRANCH  29  30
ATOM     30  C   UNL     1      -4.704  -4.313  -1.901  0.00  0.00    -0.078 C 
BRANCH  30  31
ATOM     31  N   UNL     1      -5.415  -4.883  -3.065  0.00  0.00    +0.379 N 
ATOM     32  H   UNL     1      -4.925  -4.606  -3.924  0.00  0.00    -0.082 HD
BRANCH  31  34
ATOM     33  C   UNL     1      -4.058  -6.889  -3.399  0.00  0.00    -0.017 C 
ATOM     34  C   UNL     1      -5.429  -6.358  -2.975  0.00  0.00    -0.082 C 
ENDBRANCH  31  34
BRANCH  31  35
ATOM     35  C   UNL     1      -6.799  -4.366  -3.114  0.00  0.00    -0.082 C 
ATOM     36  C   UNL     1      -7.389  -4.672  -4.492  0.00  0.00    -0.017 C 
ENDBRANCH  31  35
ENDBRANCH  30  31
ENDBRANCH  29  30
ENDBRANCH  22  29
ENDBRANCH  21  22
ENDBRANCH   1  21
TORSDOF 10
