REMARK  Name = ZINC38754886
REMARK  5 active torsions:
REMARK  status: ('A' for Active; 'I' for Inactive)
REMARK    1  A    between atoms: C_3  and  C_6
REMARK    2  A    between atoms: C_6  and  C_11
REMARK    3  A    between atoms: N_13  and  C_14
REMARK    4  A    between atoms: C_14  and  C_15
REMARK    5  A    between atoms: C_17  and  C_20
REMARK                            x       y       z     vdW  Elec       q    Type
REMARK                         _______ _______ _______ _____ _____    ______ ____
ROOT
ATOM      1  C   UNL     1       3.454   4.676  -2.583  0.00  0.00    +0.163 C 
ENDROOT
BRANCH   1   2
ATOM      2  C   UNL     1       2.495   5.838  -2.546  0.00  0.00    +0.101 A 
ATOM      3  C   UNL     1       2.771   7.115  -2.035  0.00  0.00    +0.077 A 
ATOM      4  C   UNL     1       1.653   7.878  -2.184  0.00  0.00    +0.168 A 
ATOM      5  O   UNL     1       0.710   7.113  -2.766  0.00  0.00    -0.354 OA
ATOM      6  N   UNL     1       1.269   5.831  -2.990  0.00  0.00    -0.081 NA
BRANCH   4   7
ATOM      7  C   UNL     1       1.502   9.291  -1.779  0.00  0.00    +0.024 A 
ATOM      8  C   UNL     1       2.570   9.967  -1.187  0.00  0.00    +0.015 A 
ATOM      9  C   UNL     1       2.427  11.286  -0.810  0.00  0.00    +0.050 A 
ATOM     10  C   UNL     1       1.224  11.944  -1.017  0.00  0.00    +0.166 A 
ATOM     11  C   UNL     1       0.153  11.274  -1.607  0.00  0.00    +0.167 A 
ATOM     12  C   UNL     1       0.292   9.954  -1.993  0.00  0.00    +0.061 A 
ATOM     13  O   UNL     1      -0.903  12.135  -1.697  0.00  0.00    -0.453 OA
ATOM     14  C   UNL     1      -0.602  13.209  -0.787  0.00  0.00    +0.466 C 
ATOM     15  O   UNL     1       0.836  13.223  -0.738  0.00  0.00    -0.453 OA
ENDBRANCH   4   7
ENDBRANCH   1   2
BRANCH   1  18
ATOM     16  C   UNL     1       3.985   2.720  -1.231  0.00  0.00    +0.224 C 
ATOM     17  O   UNL     1       4.839   2.429  -2.041  0.00  0.00    -0.275 OA
ATOM     18  N   UNL     1       3.236   3.826  -1.410  0.00  0.00    -0.309 N 
ATOM     19  H   UNL     1       2.553   4.059  -0.762  0.00  0.00    +0.149 HD
BRANCH  16  20
ATOM     20  C   UNL     1       3.761   1.845  -0.024  0.00  0.00    +0.078 C 
ATOM     21  C   UNL     1       4.046   2.638   1.263  0.00  0.00    +0.021 C 
ATOM     22  C   UNL     1       5.197   1.907   1.985  0.00  0.00    +0.001 C 
ATOM     23  C   UNL     1       5.920   1.130   0.857  0.00  0.00    +0.001 C 
ATOM     24  C   UNL     1       4.748   0.660  -0.040  0.00  0.00    +0.021 C 
BRANCH  20  27
ATOM     25  C   UNL     1      -0.016   1.351   0.009  0.00  0.00    +0.008 A 
ATOM     26  C   UNL     1       1.183   2.038   0.002  0.00  0.00    +0.012 A 
ATOM     27  C   UNL     1       2.343   1.336  -0.013  0.00  0.00    +0.005 A 
ATOM     28  S   UNL     1       1.754  -0.349  -0.017  0.00  0.00    -0.101 S 
ATOM     29  C   UNL     1       0.002  -0.004   0.002  0.00  0.00    +0.045 A 
ENDBRANCH  20  27
ENDBRANCH  16  20
ENDBRANCH   1  18
TORSDOF 5
