REMARK  Name = ZINC38688637
REMARK  12 active torsions:
REMARK  status: ('A' for Active; 'I' for Inactive)
REMARK    1  A    between atoms: C_1  and  C_2
REMARK    2  A    between atoms: C_6  and  C_38
REMARK    3  A    between atoms: C_7  and  C_11
REMARK    4  A    between atoms: C_11  and  O_13
REMARK    5  A    between atoms: O_13  and  C_14
REMARK    6  A    between atoms: C_21  and  N_37
REMARK    7  A    between atoms: C_22  and  C_35
REMARK    8  A    between atoms: C_23  and  C_25
REMARK    9  A    between atoms: C_29  and  O_33
REMARK   10  A    between atoms: C_30  and  O_31
REMARK   11  A    between atoms: O_31  and  C_32
REMARK   12  A    between atoms: O_33  and  C_34
REMARK                            x       y       z     vdW  Elec       q    Type
REMARK                         _______ _______ _______ _____ _____    ______ ____
ROOT
ATOM      1  C   UNL     1      -0.164  -6.577   5.869  0.00  0.00    +0.136 A 
ATOM      2  C   UNL     1      -0.054  -7.467   4.810  0.00  0.00    +0.047 A 
ATOM      3  C   UNL     1       0.097  -8.818   5.057  0.00  0.00    +0.012 A 
ATOM      4  C   UNL     1       0.139  -9.289   6.357  0.00  0.00    +0.008 A 
ATOM      5  C   UNL     1       0.029  -8.404   7.418  0.00  0.00    +0.138 A 
ATOM      6  C   UNL     1      -0.117  -7.045   7.172  0.00  0.00    +0.093 A 
ATOM      7  O   UNL     1       0.067  -8.846   8.700  0.00  0.00    -0.441 OA
ATOM      8  C   UNL     1      -0.174 -10.140   8.969  0.00  0.00    +0.199 C 
ATOM      9  C   UNL     1      -0.079 -11.100   8.019  0.00  0.00    +0.098 C 
ATOM     10  C   UNL     1       0.304 -10.764   6.605  0.00  0.00    +0.102 C 
ENDROOT
BRANCH  10  11
ATOM     11  C   UNL     1       1.741 -11.152   6.372  0.00  0.00    +0.011 A 
ATOM     12  C   UNL     1       2.752 -10.511   7.065  0.00  0.00    +0.008 A 
ATOM     13  C   UNL     1       4.071 -10.864   6.854  0.00  0.00    +0.004 A 
ATOM     14  C   UNL     1       4.387 -11.859   5.947  0.00  0.00    +0.049 A 
ATOM     15  C   UNL     1       3.380 -12.505   5.248  0.00  0.00    +0.162 A 
ATOM     16  C   UNL     1       2.050 -12.154   5.466  0.00  0.00    +0.166 A 
BRANCH  16  17
ATOM     17  O   UNL     1       1.058 -12.789   4.787  0.00  0.00    -0.491 OA
ATOM     18  C   UNL     1       0.747 -12.297   3.482  0.00  0.00    +0.277 C 
ENDBRANCH  16  17
BRANCH  15  19
ATOM     19  O   UNL     1       3.688 -13.484   4.356  0.00  0.00    -0.491 OA
ATOM     20  C   UNL     1       5.073 -13.796   4.189  0.00  0.00    +0.277 C 
ENDBRANCH  15  19
ENDBRANCH  10  11
BRANCH   8  21
ATOM     21  N   UNL     1      -0.526 -10.500  10.246  0.00  0.00    -0.328 N 
ATOM     22  H   UNL     1      -0.598  -9.824  10.938  0.00  0.00    +0.145 HD
ATOM     23  H   UNL     1      -0.703 -11.430  10.457  0.00  0.00    +0.145 HD
ENDBRANCH   8  21
BRANCH   9  24
ATOM     24  C   UNL     1      -0.348 -12.462   8.369  0.00  0.00    +0.101 C 
ATOM     25  N   UNL     1      -0.562 -13.543   8.646  0.00  0.00    -0.191 NA
ENDBRANCH   9  24
BRANCH   1  26
ATOM     26  O   UNL     1      -0.313  -5.248   5.628  0.00  0.00    -0.420 OA
BRANCH  26  27
ATOM     27  C   UNL     1       0.769  -4.455   5.765  0.00  0.00    +0.380 C 
ATOM     28  O   UNL     1       1.814  -4.918   6.180  0.00  0.00    -0.241 OA
BRANCH  27  35
ATOM     29  C   UNL     1      -1.264   2.331   3.599  0.00  0.00    +0.044 C 
ATOM     30  C   UNL     1      -0.411   1.200   4.112  0.00  0.00    -0.047 A 
ATOM     31  C   UNL     1       0.915   1.439   4.449  0.00  0.00    +0.004 A 
ATOM     32  C   UNL     1       1.703   0.425   4.916  0.00  0.00    +0.012 A 
ATOM     33  C   UNL     1       1.171  -0.859   5.055  0.00  0.00    +0.024 A 
ATOM     34  C   UNL     1       1.707  -2.141   5.509  0.00  0.00    +0.010 A 
ATOM     35  C   UNL     1       0.686  -3.032   5.412  0.00  0.00    +0.216 A 
ATOM     36  O   UNL     1      -0.417  -2.411   4.943  0.00  0.00    -0.448 OA
ATOM     37  C   UNL     1      -0.172  -1.106   4.715  0.00  0.00    +0.137 A 
ATOM     38  C   UNL     1      -0.957  -0.058   4.246  0.00  0.00    +0.050 A 
ATOM     39  C   UNL     1       3.109  -2.418   5.987  0.00  0.00    +0.048 C 
ENDBRANCH  27  35
ENDBRANCH  26  27
ENDBRANCH   1  26
TORSDOF 8
