REMARK  Name = ZINC40035551
REMARK  15 active torsions:
REMARK  status: ('A' for Active; 'I' for Inactive)
REMARK    1  A    between atoms: C_1  and  C_2
REMARK    2  A    between atoms: C_2  and  C_3
REMARK    3  A    between atoms: C_3  and  C_38
REMARK    4  A    between atoms: N_15  and  C_35
REMARK    5  A    between atoms: N_18  and  N_19
REMARK    6  A    between atoms: C_20  and  C_21
REMARK    7  A    between atoms: C_24  and  O_29
REMARK    8  A    between atoms: C_25  and  O_27
REMARK    9  A    between atoms: O_27  and  C_28
REMARK   10  A    between atoms: O_29  and  C_30
REMARK   11  A    between atoms: C_30  and  C_31
REMARK   12  A    between atoms: C_31  and  C_32
REMARK   13  A    between atoms: C_32  and  C_33
REMARK   14  A    between atoms: C_32  and  C_34
REMARK   15  A    between atoms: C_35  and  C_36
REMARK                            x       y       z     vdW  Elec       q    Type
REMARK                         _______ _______ _______ _____ _____    ______ ____
ROOT
ATOM      1  C   UNL     1      -1.433  -0.534   0.013  0.00  0.00    +0.004 C 
ATOM      2  C   UNL     1      -1.300  -2.053   0.091  0.00  0.00    +0.047 C 
ATOM      3  C   UNL     1      -0.797  -2.607  -1.214  0.00  0.00    -0.037 A 
ATOM      4  C   UNL     1       0.056  -3.691  -1.231  0.00  0.00    +0.004 A 
ATOM      5  C   UNL     1       0.511  -4.197  -2.436  0.00  0.00    +0.000 A 
ATOM      6  C   UNL     1       0.116  -3.622  -3.631  0.00  0.00    +0.001 A 
ATOM      7  C   UNL     1      -0.735  -2.536  -3.628  0.00  0.00    +0.010 A 
ATOM      8  C   UNL     1      -1.194  -2.023  -2.418  0.00  0.00    +0.004 A 
ATOM      9  C   UNL     1      -2.101  -0.853  -2.383  0.00  0.00    +0.084 A 
ATOM     10  C   UNL     1      -2.220  -0.133  -1.203  0.00  0.00    +0.049 A 
ATOM     11  C   UNL     1      -3.084   0.970  -1.169  0.00  0.00    +0.260 A 
ATOM     12  O   UNL     1      -3.217   1.627  -0.149  0.00  0.00    -0.267 OA
ATOM     13  N   UNL     1      -3.765   1.291  -2.290  0.00  0.00    -0.276 N 
ATOM     14  C   UNL     1      -3.607   0.554  -3.425  0.00  0.00    +0.219 A 
ATOM     15  N   UNL     1      -2.798  -0.485  -3.463  0.00  0.00    -0.214 NA
ATOM     16  N   UNL     1      -4.306   0.901  -4.551  0.00  0.00    -0.206 N 
ATOM     17  C   UNL     1      -2.149  -0.026   1.266  0.00  0.00    +0.016 C 
ATOM     18  H   UNL     1      -4.905   1.664  -4.535  0.00  0.00    +0.177 HD
ENDROOT
BRANCH   1  20
ATOM     19  C   UNL     1      -0.165   1.616  -0.110  0.00  0.00    +0.005 C 
ATOM     20  C   UNL     1      -0.039   0.092  -0.060  0.00  0.00    +0.008 C 
ENDBRANCH   1  20
BRANCH  16  21
ATOM     21  N   UNL     1      -4.154   0.154  -5.727  0.00  0.00    -0.188 NA
ATOM     22  C   UNL     1      -4.816   0.482  -6.794  0.00  0.00    +0.138 C 
BRANCH  22  23
ATOM     23  C   UNL     1      -4.657  -0.304  -8.031  0.00  0.00    -0.002 A 
ATOM     24  C   UNL     1      -3.799  -1.406  -8.055  0.00  0.00    +0.013 A 
ATOM     25  C   UNL     1      -3.651  -2.140  -9.213  0.00  0.00    +0.050 A 
ATOM     26  C   UNL     1      -4.353  -1.787 -10.356  0.00  0.00    +0.162 A 
ATOM     27  C   UNL     1      -5.211  -0.689 -10.340  0.00  0.00    +0.162 A 
ATOM     28  C   UNL     1      -5.368   0.048  -9.181  0.00  0.00    +0.059 A 
BRANCH  27  29
ATOM     29  O   UNL     1      -5.897  -0.346 -11.463  0.00  0.00    -0.491 OA
ATOM     30  C   UNL     1      -6.758   0.791 -11.374  0.00  0.00    +0.277 C 
ENDBRANCH  27  29
BRANCH  26  31
ATOM     31  O   UNL     1      -4.203  -2.513 -11.495  0.00  0.00    -0.488 OA
BRANCH  31  32
ATOM     32  C   UNL     1      -3.308  -3.626 -11.442  0.00  0.00    +0.229 C 
BRANCH  32  33
ATOM     33  C   UNL     1      -3.271  -4.316 -12.807  0.00  0.00    +0.044 C 
BRANCH  33  34
ATOM     34  C   UNL     1      -2.312  -5.507 -12.751  0.00  0.00    -0.014 C 
ATOM     35  C   UNL     1      -2.368  -6.271 -14.075  0.00  0.00    +0.007 C 
ATOM     36  C   UNL     1      -0.887  -5.004 -12.512  0.00  0.00    +0.007 C 
ENDBRANCH  33  34
ENDBRANCH  32  33
ENDBRANCH  31  32
ENDBRANCH  26  31
ENDBRANCH  22  23
ENDBRANCH  16  21
BRANCH  13  37
ATOM     37  C   UNL     1      -4.679   2.436  -2.285  0.00  0.00    +0.155 C 
BRANCH  37  38
ATOM     38  C   UNL     1      -3.928   3.680  -2.687  0.00  0.00    -0.013 C 
ATOM     39  C   UNL     1      -4.355   4.408  -3.689  0.00  0.00    +0.005 C 
ENDBRANCH  37  38
ENDBRANCH  13  37
TORSDOF 10
