REMARK  Name = ZINC39699534
REMARK  4 active torsions:
REMARK  status: ('A' for Active; 'I' for Inactive)
REMARK    1  A    between atoms: C_4  and  O_19
REMARK    2  A    between atoms: C_5  and  C_7
REMARK    3  A    between atoms: N_8  and  N_9
REMARK    4  A    between atoms: C_10  and  C_12
REMARK                            x       y       z     vdW  Elec       q    Type
REMARK                         _______ _______ _______ _____ _____    ______ ____
ROOT
ATOM      1  C   UNL     1       1.250  -2.157  -0.023  0.00  0.00    +0.142 C 
ATOM      2  N   UNL     1       2.386  -2.785  -0.038  0.00  0.00    -0.188 NA
ENDROOT
BRANCH   1   7
ATOM      3  C   UNL     1      -0.017   1.375   0.010  0.00  0.00    +0.001 A 
ATOM      4  C   UNL     1       1.169   2.089   0.002  0.00  0.00    +0.004 A 
ATOM      5  C   UNL     1       2.383   1.428  -0.013  0.00  0.00    +0.046 A 
ATOM      6  C   UNL     1       2.420   0.044  -0.022  0.00  0.00    +0.125 A 
ATOM      7  C   UNL     1       1.222  -0.684  -0.014  0.00  0.00    +0.036 A 
ATOM      8  C   UNL     1       0.002  -0.004   0.002  0.00  0.00    +0.013 A 
BRANCH   6   9
ATOM      9  O   UNL     1       3.612  -0.607  -0.038  0.00  0.00    -0.506 OA
ATOM     10  H   UNL     1       3.967  -0.800   0.841  0.00  0.00    +0.292 HD
ENDBRANCH   6   9
ENDBRANCH   1   7
BRANCH   2  11
ATOM     11  N   UNL     1       2.412  -4.186  -0.047  0.00  0.00    -0.205 N 
ATOM     12  C   UNL     1       3.591  -4.838  -0.063  0.00  0.00    +0.264 C 
ATOM     13  O   UNL     1       4.630  -4.212  -0.070  0.00  0.00    -0.271 OA
ATOM     14  H   UNL     1       1.581  -4.686  -0.041  0.00  0.00    +0.177 HD
BRANCH  12  15
ATOM     15  C   UNL     1       3.619  -6.344  -0.072  0.00  0.00    +0.252 C 
ATOM     16  C   UNL     1       3.428  -6.876  -1.482  0.00  0.00    +0.046 C 
ATOM     17  C   UNL     1       4.559  -7.544  -1.729  0.00  0.00    +0.147 C 
ATOM     18  N   UNL     1       5.393  -7.484  -0.669  0.00  0.00    -0.161 NA
ATOM     19  N   UNL     1       4.956  -6.843   0.295  0.00  0.00    -0.169 NA
ATOM     20  I   UNL     1       1.775  -6.623  -2.744  0.00  0.00    -0.044 I 
ENDBRANCH  12  15
ENDBRANCH   2  11
TORSDOF 4
