REMARK  Name = ZINC22131420
REMARK  5 active torsions:
REMARK  status: ('A' for Active; 'I' for Inactive)
REMARK    1  A    between atoms: C_4  and  N_7
REMARK    2  A    between atoms: C_8  and  C_14
REMARK    3  A    between atoms: C_14  and  N_16
REMARK    4  A    between atoms: C_20  and  C_22
REMARK    5  A    between atoms: C_22  and  C_23
REMARK                            x       y       z     vdW  Elec       q    Type
REMARK                         _______ _______ _______ _____ _____    ______ ____
ROOT
ATOM      1  C   UNL     1       1.660  -1.736  -0.403  0.00  0.00    +0.288 C 
ATOM      2  O   UNL     1       2.846  -1.996  -0.490  0.00  0.00    -0.266 OA
ENDROOT
BRANCH   1   4
ATOM      3  N   UNL     1      -0.082   0.075   0.070  0.00  0.00    -0.284 N 
ATOM      4  C   UNL     1       1.227  -0.355  -0.170  0.00  0.00    +0.129 A 
ATOM      5  C   UNL     1       2.019   0.741  -0.148  0.00  0.00    +0.116 A 
ATOM      6  N   UNL     1       1.225   1.828   0.099  0.00  0.00    -0.339 N 
ATOM      7  H   UNL     1       1.670   2.832   0.159  0.00  0.00    +0.167 HD
ATOM      8  C   UNL     1      -0.049   1.413   0.230  0.00  0.00    +0.163 A 
ATOM      9  S   UNL     1      -1.401   2.416   0.541  0.00  0.00    -0.013 S 
BRANCH   3  13
ATOM     10  C   UNL     1      -3.471  -2.342   0.256  0.00  0.00    +0.000 A 
ATOM     11  C   UNL     1      -3.300  -1.475  -0.807  0.00  0.00    +0.002 A 
ATOM     12  C   UNL     1      -2.178  -0.672  -0.872  0.00  0.00    +0.026 A 
ATOM     13  C   UNL     1      -1.221  -0.737   0.133  0.00  0.00    +0.049 A 
ATOM     14  C   UNL     1      -1.393  -1.613   1.196  0.00  0.00    +0.026 A 
ATOM     15  C   UNL     1      -2.521  -2.409   1.258  0.00  0.00    +0.002 A 
ENDBRANCH   3  13
ENDBRANCH   1   4
BRANCH   1  16
ATOM     16  N   UNL     1       0.745  -2.719  -0.520  0.00  0.00    -0.151 NA
ATOM     17  C   UNL     1       1.155  -4.041  -0.631  0.00  0.00    +0.163 A 
ATOM     18  N   UNL     1       2.380  -4.530  -0.641  0.00  0.00    -0.342 N 
ATOM     19  C   UNL     1       2.597  -5.826  -0.755  0.00  0.00    +0.095 A 
ATOM     20  C   UNL     1       1.528  -6.653  -0.862  0.00  0.00    +0.013 A 
ATOM     21  S   UNL     1       0.188  -5.474  -0.785  0.00  0.00    -0.057 S 
ATOM     22  H   UNL     1       3.243  -3.854  -0.553  0.00  0.00    +0.167 HD
BRANCH  20  23
ATOM     23  C   UNL     1       1.484  -8.152  -1.003  0.00  0.00    +0.079 C 
BRANCH  23  24
ATOM     24  C   UNL     1       1.428  -8.784   0.365  0.00  0.00    -0.042 A 
ATOM     25  C   UNL     1       2.599  -9.117   1.020  0.00  0.00    +0.005 A 
ATOM     26  C   UNL     1       2.548  -9.690   2.277  0.00  0.00    +0.020 A 
ATOM     27  C   UNL     1       1.325  -9.941   2.874  0.00  0.00    +0.041 A 
ATOM     28  C   UNL     1       0.154  -9.613   2.215  0.00  0.00    +0.020 A 
ATOM     29  C   UNL     1       0.206  -9.034   0.961  0.00  0.00    +0.005 A 
ATOM     30 CL   UNL     1       1.261 -10.668   4.449  0.00  0.00    -0.084 Cl
ENDBRANCH  23  24
ENDBRANCH  20  23
ENDBRANCH   1  16
TORSDOF 5
