REMARK  Name = ZINC33741797
REMARK  12 active torsions:
REMARK  status: ('A' for Active; 'I' for Inactive)
REMARK    1  A    between atoms: C_1  and  C_2
REMARK    2  A    between atoms: C_2  and  C_4
REMARK    3  A    between atoms: C_2  and  N_17
REMARK    4  A    between atoms: N_14  and  C_15
REMARK    5  A    between atoms: N_17  and  C_18
REMARK    6  A    between atoms: C_18  and  C_19
REMARK    7  A    between atoms: C_19  and  C_20
REMARK    8  A    between atoms: C_20  and  C_21
REMARK    9  A    between atoms: C_21  and  C_22
REMARK   10  A    between atoms: C_22  and  C_23
REMARK   11  A    between atoms: C_23  and  N_24
REMARK   12  A    between atoms: C_25  and  C_27
REMARK                            x       y       z     vdW  Elec       q    Type
REMARK                         _______ _______ _______ _____ _____    ______ ____
ROOT
ATOM      1  N   UNL     1      -3.812   2.970   0.112  0.00  0.00    -0.288 N 
ATOM      2  C   UNL     1      -2.662   3.673   0.114  0.00  0.00    +0.248 C 
ATOM      3  O   UNL     1      -2.693   4.888   0.084  0.00  0.00    -0.270 OA
ENDROOT
BRANCH   2   4
ATOM      4  C   UNL     1      -1.367   2.969   0.153  0.00  0.00    +0.045 A 
ATOM      5  C   UNL     1      -1.038   2.052  -0.835  0.00  0.00    +0.014 A 
ATOM      6  C   UNL     1       0.178   1.382  -0.802  0.00  0.00    +0.001 A 
ATOM      7  C   UNL     1       1.083   1.611   0.191  0.00  0.00    +0.008 A 
ATOM      8  C   UNL     1       0.794   2.536   1.209  0.00  0.00    -0.017 A 
ATOM      9  C   UNL     1      -0.443   3.225   1.196  0.00  0.00    -0.006 A 
ATOM     10  C   UNL     1      -0.729   4.147   2.211  0.00  0.00    +0.009 A 
ATOM     11  C   UNL     1       0.183   4.370   3.198  0.00  0.00    +0.001 A 
ATOM     12  C   UNL     1       1.401   3.692   3.214  0.00  0.00    +0.001 A 
ATOM     13  C   UNL     1       1.712   2.790   2.243  0.00  0.00    +0.008 A 
ENDBRANCH   2   4
BRANCH   1  15
ATOM     14  C   UNL     1      -5.135   4.441  -1.326  0.00  0.00    +0.036 C 
ATOM     15  C   UNL     1      -5.096   3.666  -0.007  0.00  0.00    +0.139 C 
BRANCH  15  16
ATOM     16  C   UNL     1      -5.257   4.624   1.144  0.00  0.00    +0.133 A 
ATOM     17  N   UNL     1      -4.198   5.219   1.604  0.00  0.00    -0.232 NA
ATOM     18  C   UNL     1      -4.267   6.094   2.638  0.00  0.00    +0.080 A 
ATOM     19  C   UNL     1      -3.130   6.735   3.133  0.00  0.00    +0.048 A 
ATOM     20  C   UNL     1      -3.251   7.617   4.185  0.00  0.00    +0.043 A 
ATOM     21  C   UNL     1      -4.491   7.875   4.758  0.00  0.00    +0.021 A 
ATOM     22  C   UNL     1      -5.618   7.259   4.289  0.00  0.00    +0.017 A 
ATOM     23  C   UNL     1      -5.523   6.363   3.226  0.00  0.00    +0.065 A 
ATOM     24  C   UNL     1      -6.701   5.673   2.682  0.00  0.00    +0.262 A 
ATOM     25  O   UNL     1      -7.812   5.859   3.144  0.00  0.00    -0.267 OA
ATOM     26  N   UNL     1      -6.504   4.826   1.645  0.00  0.00    -0.298 N 
ATOM     27  C   UNL     1      -7.644   4.116   1.061  0.00  0.00    +0.154 C 
ATOM     28 CL   UNL     1      -1.838   8.415   4.802  0.00  0.00    -0.083 Cl
ENDBRANCH  15  16
ENDBRANCH   1  15
BRANCH   1  29
ATOM     29  C   UNL     1      -3.778   1.510   0.230  0.00  0.00    +0.109 C 
BRANCH  29  30
ATOM     30  C   UNL     1      -3.928   1.113   1.700  0.00  0.00    +0.019 C 
BRANCH  30  31
ATOM     31  C   UNL     1      -3.893  -0.411   1.823  0.00  0.00    +0.001 C 
BRANCH  31  32
ATOM     32  C   UNL     1      -4.042  -0.808   3.293  0.00  0.00    -0.002 C 
BRANCH  32  33
ATOM     33  C   UNL     1      -4.007  -2.333   3.416  0.00  0.00    -0.020 C 
BRANCH  33  34
ATOM     34  C   UNL     1      -4.156  -2.730   4.886  0.00  0.00    -0.086 C 
BRANCH  34  35
ATOM     35  N   UNL     1      -4.122  -4.194   5.004  0.00  0.00    +0.378 N 
ATOM     36  H   UNL     1      -4.230  -4.479   6.061  0.00  0.00    -0.090 HD
ATOM     37  H   UNL     1      -3.164  -4.570   4.618  0.00  0.00    -0.090 HD
ATOM     38  H   UNL     1      -4.948  -4.628   4.421  0.00  0.00    -0.090 HD
ENDBRANCH  34  35
ENDBRANCH  33  34
ENDBRANCH  32  33
ENDBRANCH  31  32
ENDBRANCH  30  31
ENDBRANCH  29  30
ENDBRANCH   1  29
TORSDOF 10
