REMARK  Name = ZINC14544192
REMARK  5 active torsions:
REMARK  status: ('A' for Active; 'I' for Inactive)
REMARK    1  A    between atoms: C_1  and  O_2
REMARK    2  A    between atoms: O_2  and  C_3
REMARK    3  A    between atoms: C_10  and  C_19
REMARK    4  A    between atoms: C_28  and  O_29
REMARK    5  A    between atoms: O_29  and  C_30
REMARK                            x       y       z     vdW  Elec       q    Type
REMARK                         _______ _______ _______ _____ _____    ______ ____
ROOT
ATOM      1  C   UNL     1      -5.553   1.614  -1.989  0.00  0.00    +0.141 A 
ATOM      2  C   UNL     1      -6.809   1.038  -2.038  0.00  0.00    +0.047 A 
ATOM      3  C   UNL     1      -7.265   0.298  -0.963  0.00  0.00    +0.004 A 
ATOM      4  C   UNL     1      -6.469   0.133   0.152  0.00  0.00    +0.006 A 
ATOM      5  C   UNL     1      -5.204   0.706   0.212  0.00  0.00    -0.016 A 
ATOM      6  C   UNL     1      -4.745   1.451  -0.859  0.00  0.00    +0.074 A 
ATOM      7  N   UNL     1      -3.489   2.062  -0.857  0.00  0.00    -0.334 N 
ATOM      8  C   UNL     1      -2.541   1.375   0.022  0.00  0.00    +0.109 C 
ATOM      9  C   UNL     1      -3.102   1.335   1.445  0.00  0.00    +0.029 C 
ATOM     10  C   UNL     1      -4.390   0.485   1.452  0.00  0.00    +0.049 C 
ATOM     11  C   UNL     1      -3.891  -0.940   1.515  0.00  0.00    -0.023 C 
ATOM     12  C   UNL     1      -2.666  -0.977   1.976  0.00  0.00    -0.030 C 
ATOM     13  C   UNL     1      -2.176   0.421   2.296  0.00  0.00    +0.033 C 
ATOM     14  H   UNL     1      -3.562   3.039  -0.616  0.00  0.00    +0.147 HD
ENDROOT
BRANCH   8  15
ATOM     15  C   UNL     1      -1.228   2.114   0.019  0.00  0.00    +0.022 A 
ATOM     16  C   UNL     1      -0.024   1.414  -0.167  0.00  0.00    -0.009 A 
ATOM     17  C   UNL     1      -0.012   0.021  -0.354  0.00  0.00    +0.009 A 
ATOM     18  C   UNL     1       1.172  -0.624  -0.537  0.00  0.00    +0.001 A 
ATOM     19  C   UNL     1       2.377   0.076  -0.542  0.00  0.00    +0.001 A 
ATOM     20  C   UNL     1       2.404   1.425  -0.363  0.00  0.00    +0.008 A 
ATOM     21  C   UNL     1       1.201   2.126  -0.172  0.00  0.00    -0.017 A 
ATOM     22  C   UNL     1       1.192   3.519   0.015  0.00  0.00    +0.012 A 
ATOM     23  C   UNL     1       0.010   4.167   0.197  0.00  0.00    +0.046 A 
ATOM     24  C   UNL     1      -1.200   3.467   0.202  0.00  0.00    +0.126 A 
BRANCH  24  25
ATOM     25  O   UNL     1      -2.365   4.142   0.386  0.00  0.00    -0.495 OA
ATOM     26  C   UNL     1      -2.273   5.556   0.567  0.00  0.00    +0.277 C 
ENDBRANCH  24  25
ENDBRANCH   8  15
BRANCH   1  28
ATOM     27  C   UNL     1      -5.976   2.471  -4.167  0.00  0.00    +0.277 C 
ATOM     28  O   UNL     1      -5.101   2.343  -3.044  0.00  0.00    -0.493 OA
ENDBRANCH   1  28
TORSDOF 3
