REMARK  Name = ZINC63791157
REMARK  7 active torsions:
REMARK  status: ('A' for Active; 'I' for Inactive)
REMARK    1  A    between atoms: C_1  and  C_2
REMARK    2  A    between atoms: C_2  and  C_3
REMARK    3  A    between atoms: C_3  and  N_4
REMARK    4  A    between atoms: N_13  and  C_14
REMARK    5  A    between atoms: C_14  and  C_16
REMARK    6  A    between atoms: C_16  and  C_17
REMARK    7  A    between atoms: C_17  and  C_18
REMARK                            x       y       z     vdW  Elec       q    Type
REMARK                         _______ _______ _______ _____ _____    ______ ____
ROOT
ATOM      1  N   UNL     1       0.745  -1.961  -1.278  0.00  0.00    -0.312 N 
ATOM      2  C   UNL     1       1.737  -2.766  -0.725  0.00  0.00    +0.068 A 
ATOM      3  C   UNL     1       2.920  -2.486  -0.056  0.00  0.00    +0.028 A 
ATOM      4  C   UNL     1       3.720  -3.519   0.387  0.00  0.00    +0.002 A 
ATOM      5  C   UNL     1       3.348  -4.835   0.166  0.00  0.00    +0.002 A 
ATOM      6  C   UNL     1       2.174  -5.124  -0.498  0.00  0.00    +0.028 A 
ATOM      7  C   UNL     1       1.361  -4.092  -0.947  0.00  0.00    +0.066 A 
ATOM      8  N   UNL     1       0.150  -4.066  -1.630  0.00  0.00    -0.326 N 
ATOM      9  C   UNL     1      -0.208  -2.768  -1.815  0.00  0.00    +0.201 A 
ATOM     10  N   UNL     1      -1.313  -2.353  -2.427  0.00  0.00    -0.147 NA
ATOM     11  H   UNL     1      -0.355  -4.841  -1.922  0.00  0.00    +0.169 HD
ENDROOT
BRANCH  10  12
ATOM     12  C   UNL     1      -2.121  -3.233  -3.010  0.00  0.00    +0.239 C 
ATOM     13  O   UNL     1      -1.902  -4.424  -2.902  0.00  0.00    -0.274 OA
BRANCH  12  14
ATOM     14  C   UNL     1      -3.309  -2.755  -3.804  0.00  0.00    +0.102 C 
BRANCH  14  15
ATOM     15  C   UNL     1      -4.067  -3.960  -4.364  0.00  0.00    +0.042 C 
BRANCH  15  16
ATOM     16  C   UNL     1      -5.255  -3.482  -5.158  0.00  0.00    -0.041 C 
ATOM     17  C   UNL     1      -5.314  -3.287  -6.495  0.00  0.00    -0.001 A 
ATOM     18  C   UNL     1      -4.328  -3.455  -7.569  0.00  0.00    +0.010 A 
ATOM     19  C   UNL     1      -4.689  -3.173  -8.841  0.00  0.00    +0.001 A 
ATOM     20  C   UNL     1      -5.979  -2.726  -9.160  0.00  0.00    +0.002 A 
ATOM     21  C   UNL     1      -6.939  -2.547  -8.228  0.00  0.00    +0.026 A 
ATOM     22  C   UNL     1      -6.670  -2.814  -6.857  0.00  0.00    +0.043 A 
ATOM     23  N   UNL     1      -7.419  -2.720  -5.786  0.00  0.00    -0.380 N 
ATOM     24  C   UNL     1      -6.625  -3.129  -4.622  0.00  0.00    +0.144 C 
ATOM     25  H   UNL     1      -8.345  -2.432  -5.766  0.00  0.00    +0.160 HD
ENDBRANCH  15  16
ENDBRANCH  14  15
ENDBRANCH  12  14
ENDBRANCH  10  12
BRANCH   1  26
ATOM     26  C   UNL     1       0.728  -0.496  -1.276  0.00  0.00    +0.125 C 
BRANCH  26  28
ATOM     27  C   UNL     1       0.002   1.534  -0.013  0.00  0.00    +0.005 C 
ATOM     28  C   UNL     1       0.020   0.004  -0.015  0.00  0.00    +0.018 C 
ENDBRANCH  26  28
ENDBRANCH   1  26
TORSDOF 6
