REMARK  Name = ZINC09741082
REMARK  5 active torsions:
REMARK  status: ('A' for Active; 'I' for Inactive)
REMARK    1  A    between atoms: C_4  and  C_7
REMARK    2  A    between atoms: C_7  and  C_9
REMARK    3  A    between atoms: C_7  and  N_14
REMARK    4  A    between atoms: C_15  and  C_17
REMARK    5  A    between atoms: C_17  and  N_18
REMARK                            x       y       z     vdW  Elec       q    Type
REMARK                         _______ _______ _______ _____ _____    ______ ____
ROOT
ATOM      1  C   UNL     1       1.020   1.825   4.515  0.00  0.00    +0.213 C 
ENDROOT
BRANCH   1   2
ATOM      2  N   UNL     1       0.347   1.978   3.223  0.00  0.00    -0.215 N 
ATOM      3  C   UNL     1      -0.135   0.952   2.493  0.00  0.00    +0.251 C 
ATOM      4  O   UNL     1      -0.096  -0.228   2.770  0.00  0.00    -0.272 OA
ATOM      5  C   UNL     1      -0.734   1.581   1.255  0.00  0.00    +0.138 C 
ATOM      6  C   UNL     1      -0.013   1.086   0.008  0.00  0.00    +0.040 C 
ATOM      7  C   UNL     1      -0.763   1.598  -1.228  0.00  0.00    +0.008 C 
ATOM      8  C   UNL     1      -2.107   0.877  -1.311  0.00  0.00    +0.035 C 
ATOM      9  C   UNL     1      -2.844   0.972  -0.001  0.00  0.00    -0.042 A 
ATOM     10  C   UNL     1      -2.212   1.293   1.181  0.00  0.00    -0.012 A 
ATOM     11  C   UNL     1      -2.948   1.360   2.357  0.00  0.00    +0.006 A 
ATOM     12  C   UNL     1      -4.305   1.111   2.350  0.00  0.00    +0.000 A 
ATOM     13  C   UNL     1      -4.939   0.790   1.164  0.00  0.00    +0.000 A 
ATOM     14  C   UNL     1      -4.209   0.722  -0.005  0.00  0.00    +0.004 A 
ATOM     15  N   UNL     1      -0.504   3.021   1.442  0.00  0.00    -0.281 N 
ATOM     16  C   UNL     1       0.135   3.155   2.620  0.00  0.00    +0.310 C 
ATOM     17  O   UNL     1       0.480   4.224   3.084  0.00  0.00    -0.252 OA
ATOM     18  H   UNL     1      -0.761   3.733   0.837  0.00  0.00    +0.152 HD
ENDBRANCH   1   2
BRANCH   1  20
ATOM     19  N   UNL     1       0.390   1.769   6.907  0.00  0.00    -0.303 N 
ATOM     20  C   UNL     1      -0.001   1.887   5.623  0.00  0.00    +0.232 C 
ATOM     21  O   UNL     1      -1.174   2.045   5.358  0.00  0.00    -0.274 OA
ATOM     22  H   UNL     1       1.329   1.643   7.119  0.00  0.00    +0.150 HD
BRANCH  19  23
ATOM     23  C   UNL     1      -0.602   1.829   7.983  0.00  0.00    +0.140 C 
BRANCH  23  27
ATOM     24  C   UNL     1       1.289   3.117  11.591  0.00  0.00    +0.000 A 
ATOM     25  C   UNL     1       0.029   3.583  11.267  0.00  0.00    +0.000 A 
ATOM     26  C   UNL     1      -0.583   3.167  10.099  0.00  0.00    +0.006 A 
ATOM     27  C   UNL     1       0.066   2.284   9.256  0.00  0.00    -0.022 A 
ATOM     28  C   UNL     1       1.323   1.813   9.583  0.00  0.00    +0.006 A 
ATOM     29  C   UNL     1       1.938   2.233  10.748  0.00  0.00    +0.000 A 
ENDBRANCH  23  27
BRANCH  23  30
ATOM     30  C   UNL     1      -1.202   0.463   8.191  0.00  0.00    +0.014 A 
ATOM     31  C   UNL     1      -2.490   0.126   8.445  0.00  0.00    +0.013 A 
ATOM     32  C   UNL     1      -2.816  -1.208   8.601  0.00  0.00    +0.008 A 
ATOM     33  C   UNL     1      -1.838  -2.140   8.494  0.00  0.00    +0.045 A 
ATOM     34  S   UNL     1      -0.403  -1.133   8.158  0.00  0.00    -0.099 S 
ENDBRANCH  23  30
ENDBRANCH  19  23
ENDBRANCH   1  20
TORSDOF 5
