REMARK  Name = ZINC13597410
REMARK  5 active torsions:
REMARK  status: ('A' for Active; 'I' for Inactive)
REMARK    1  A    between atoms: C_4  and  O_25
REMARK    2  A    between atoms: C_5  and  C_7
REMARK    3  A    between atoms: C_10  and  O_24
REMARK    4  A    between atoms: C_11  and  O_23
REMARK    5  A    between atoms: C_19  and  O_22
REMARK                            x       y       z     vdW  Elec       q    Type
REMARK                         _______ _______ _______ _____ _____    ______ ____
ROOT
ATOM      1  C   UNL     1       1.253  -2.156  -0.022  0.00  0.00    +0.007 A 
ATOM      2  C   UNL     1       0.950  -2.928   1.186  0.00  0.00    +0.029 A 
ATOM      3  C   UNL     1       0.623  -2.284   2.387  0.00  0.00    +0.061 A 
ATOM      4  C   UNL     1       0.343  -3.025   3.501  0.00  0.00    +0.159 A 
ATOM      5  C   UNL     1       0.383  -4.423   3.446  0.00  0.00    +0.162 A 
ATOM      6  C   UNL     1       0.705  -5.072   2.267  0.00  0.00    +0.096 A 
ATOM      7  C   UNL     1       0.991  -4.335   1.125  0.00  0.00    +0.140 A 
ATOM      8  O   UNL     1       1.304  -4.961  -0.028  0.00  0.00    -0.455 OA
ATOM      9  C   UNL     1       1.589  -4.289  -1.162  0.00  0.00    +0.140 A 
ATOM     10  C   UNL     1       1.903  -4.990  -2.312  0.00  0.00    +0.101 A 
ATOM     11  C   UNL     1       2.199  -4.301  -3.491  0.00  0.00    +0.224 A 
ATOM     12  O   UNL     1       2.476  -4.924  -4.510  0.00  0.00    -0.284 OA
ATOM     13  C   UNL     1       2.180  -2.887  -3.515  0.00  0.00    +0.164 A 
ATOM     14  C   UNL     1       1.873  -2.189  -2.389  0.00  0.00    +0.061 A 
ATOM     15  C   UNL     1       1.569  -2.875  -1.198  0.00  0.00    +0.029 A 
ENDROOT
BRANCH   1  20
ATOM     16  C   UNL     1      -0.017   1.373   0.010  0.00  0.00    +0.001 A 
ATOM     17  C   UNL     1       1.170   2.089   0.002  0.00  0.00    +0.004 A 
ATOM     18  C   UNL     1       2.385   1.431  -0.013  0.00  0.00    +0.046 A 
ATOM     19  C   UNL     1       2.425   0.045  -0.021  0.00  0.00    +0.125 A 
ATOM     20  C   UNL     1       1.225  -0.685  -0.013  0.00  0.00    +0.025 A 
ATOM     21  C   UNL     1       0.002  -0.004   0.002  0.00  0.00    +0.012 A 
BRANCH  19  22
ATOM     22  O   UNL     1       3.616  -0.602  -0.037  0.00  0.00    -0.506 OA
ATOM     23  H   UNL     1       3.971  -0.794   0.842  0.00  0.00    +0.292 HD
ENDBRANCH  19  22
ENDBRANCH   1  20
BRANCH  13  24
ATOM     24  O   UNL     1       2.470  -2.224  -4.667  0.00  0.00    -0.503 OA
ATOM     25  H   UNL     1       2.676  -2.803  -5.413  0.00  0.00    +0.292 HD
ENDBRANCH  13  24
BRANCH   5  26
ATOM     26  O   UNL     1       0.104  -5.148   4.559  0.00  0.00    -0.503 OA
ATOM     27  H   UNL     1      -0.832  -5.374   4.657  0.00  0.00    +0.292 HD
ENDBRANCH   5  26
BRANCH   4  28
ATOM     28  O   UNL     1       0.026  -2.402   4.667  0.00  0.00    -0.503 OA
ATOM     29  H   UNL     1      -0.920  -2.236   4.780  0.00  0.00    +0.292 HD
ENDBRANCH   4  28
TORSDOF 5
