REMARK  Name = ZINC61371237
REMARK  5 active torsions:
REMARK  status: ('A' for Active; 'I' for Inactive)
REMARK    1  A    between atoms: C_1  and  C_2
REMARK    2  A    between atoms: C_3  and  S_9
REMARK    3  A    between atoms: C_4  and  C_8
REMARK    4  A    between atoms: S_9  and  N_12
REMARK    5  A    between atoms: N_12  and  C_13
REMARK                            x       y       z     vdW  Elec       q    Type
REMARK                         _______ _______ _______ _____ _____    ______ ____
ROOT
ATOM      1  S   UNL     1      -0.032  -0.252  -2.873  0.00  0.00    +0.062 S 
ATOM      2  O   UNL     1      -0.468  -1.196  -3.841  0.00  0.00    -0.153 OA
ATOM      3  O   UNL     1      -0.664   1.008  -2.699  0.00  0.00    -0.153 OA
ENDROOT
BRANCH   1   6
ATOM      4  C   UNL     1      -0.014   1.018   0.156  0.00  0.00    +0.067 C 
ATOM      5  C   UNL     1      -0.083  -0.465  -0.099  0.00  0.00    +0.060 A 
ATOM      6  C   UNL     1      -0.094  -1.066  -1.312  0.00  0.00    +0.148 A 
ATOM      7  C   UNL     1      -0.165  -2.448  -1.106  0.00  0.00    +0.086 A 
ATOM      8  N   UNL     1      -0.195  -2.668   0.183  0.00  0.00    -0.177 NA
ATOM      9  N   UNL     1      -0.139  -1.432   0.840  0.00  0.00    -0.280 N 
ATOM     10  H   UNL     1      -0.142  -1.296   1.800  0.00  0.00    +0.189 HD
ATOM     11  C   UNL     1      -0.201  -3.501  -2.184  0.00  0.00    +0.069 C 
ENDBRANCH   1   6
BRANCH   1  12
ATOM     12  N   UNL     1       1.562   0.059  -3.200  0.00  0.00    -0.182 NA
ATOM     13  H   UNL     1       1.870   0.975  -3.283  0.00  0.00    +0.149 HD
BRANCH  12  14
ATOM     14  C   UNL     1       2.505  -1.050  -3.364  0.00  0.00    +0.107 C 
ATOM     15  C   UNL     1       2.671  -1.366  -4.850  0.00  0.00    +0.025 C 
ATOM     16  C   UNL     1       3.788  -2.395  -5.046  0.00  0.00    +0.007 C 
ATOM     17  C   UNL     1       5.135  -1.724  -4.740  0.00  0.00    +0.043 C 
ATOM     18  C   UNL     1       5.008  -0.981  -3.450  0.00  0.00    -0.005 A 
ATOM     19  C   UNL     1       3.862  -0.655  -2.788  0.00  0.00    -0.019 A 
ATOM     20  C   UNL     1       4.009   0.042  -1.589  0.00  0.00    +0.013 A 
ATOM     21  C   UNL     1       5.244   0.361  -1.138  0.00  0.00    +0.046 A 
ATOM     22  S   UNL     1       6.292  -0.321  -2.421  0.00  0.00    -0.101 S 
ENDBRANCH  12  14
ENDBRANCH   1  12
TORSDOF 3
