REMARK  Name = ZINC32986898
REMARK  8 active torsions:
REMARK  status: ('A' for Active; 'I' for Inactive)
REMARK    1  A    between atoms: C_1  and  C_2
REMARK    2  A    between atoms: C_2  and  C_3
REMARK    3  A    between atoms: C_7  and  N_9
REMARK    4  A    between atoms: C_10  and  C_12
REMARK    5  A    between atoms: C_12  and  O_13
REMARK    6  A    between atoms: O_13  and  C_14
REMARK    7  A    between atoms: C_14  and  C_16
REMARK    8  A    between atoms: C_19  and  C_22
REMARK                            x       y       z     vdW  Elec       q    Type
REMARK                         _______ _______ _______ _____ _____    ______ ____
ROOT
ATOM      1  C   UNL     1       2.702   3.563  -4.628  0.00  0.00    +0.059 A 
ATOM      2  C   UNL     1       1.470   3.369  -4.000  0.00  0.00    +0.015 A 
ATOM      3  C   UNL     1       1.409   3.264  -2.626  0.00  0.00    +0.007 A 
ATOM      4  C   UNL     1       2.564   3.351  -1.870  0.00  0.00    -0.011 A 
ATOM      5  C   UNL     1       3.788   3.548  -2.485  0.00  0.00    +0.007 A 
ATOM      6  C   UNL     1       3.864   3.649  -3.859  0.00  0.00    +0.015 A 
ENDROOT
BRANCH   4   7
ATOM      7  C   UNL     1       2.490   3.236  -0.369  0.00  0.00    +0.191 C 
ATOM      8  N   UNL     1       1.366   2.380   0.001  0.00  0.00    -0.322 N 
ATOM      9  C   UNL     1       1.343   1.006  -0.228  0.00  0.00    +0.055 A 
ATOM     10  C   UNL     1       0.113   0.353  -0.274  0.00  0.00    +0.025 A 
ATOM     11  C   UNL     1       0.059  -1.012  -0.463  0.00  0.00    +0.002 A 
ATOM     12  C   UNL     1       1.224  -1.743  -0.609  0.00  0.00    +0.002 A 
ATOM     13  C   UNL     1       2.449  -1.100  -0.572  0.00  0.00    +0.030 A 
ATOM     14  C   UNL     1       2.506   0.266  -0.390  0.00  0.00    +0.126 A 
ATOM     15  S   UNL     1       4.071   1.088  -0.379  0.00  0.00    +0.062 S 
ATOM     16  O   UNL     1       4.859   0.467   0.628  0.00  0.00    -0.153 OA
ATOM     17  O   UNL     1       4.494   1.193  -1.731  0.00  0.00    -0.153 OA
ATOM     18  N   UNL     1       3.735   2.634   0.148  0.00  0.00    -0.166 NA
ATOM     19  H   UNL     1       0.480   2.814   0.487  0.00  0.00    +0.148 HD
ATOM     20  H   UNL     1       4.457   3.253   0.700  0.00  0.00    +0.150 HD
ENDBRANCH   4   7
BRANCH   1  21
ATOM     21  C   UNL     1       2.775   3.676  -6.099  0.00  0.00    +0.340 C 
ATOM     22  O   UNL     1       1.762   3.602  -6.765  0.00  0.00    -0.245 OA
BRANCH  21  23
ATOM     23  O   UNL     1       3.965   3.863  -6.702  0.00  0.00    -0.452 OA
BRANCH  23  24
ATOM     24  C   UNL     1       3.962   3.966  -8.150  0.00  0.00    +0.328 C 
BRANCH  24  26
ATOM     25  N   UNL     1       5.613   4.295  -9.962  0.00  0.00    -0.283 N 
ATOM     26  C   UNL     1       5.371   4.172  -8.642  0.00  0.00    +0.255 C 
ATOM     27  O   UNL     1       6.288   4.226  -7.850  0.00  0.00    -0.272 OA
ATOM     28  H   UNL     1       4.795   4.159 -10.686  0.00  0.00    +0.155 HD
BRANCH  25  33
ATOM     29  C   UNL     1       9.008   5.701 -10.098  0.00  0.00    -0.046 A 
ATOM     30  C   UNL     1       9.454   5.190 -11.303  0.00  0.00    +0.004 A 
ATOM     31  C   UNL     1       8.629   4.383 -12.064  0.00  0.00    +0.002 A 
ATOM     32  C   UNL     1       7.354   4.084 -11.622  0.00  0.00    +0.023 A 
ATOM     33  C   UNL     1       6.903   4.596 -10.413  0.00  0.00    +0.034 A 
ATOM     34  C   UNL     1       7.733   5.410  -9.653  0.00  0.00    +0.027 A 
BRANCH  29  36
ATOM     35  C   UNL     1       9.706   8.043  -9.676  0.00  0.00    +0.009 C 
ATOM     36  C   UNL     1       9.910   6.581  -9.273  0.00  0.00    +0.032 C 
ENDBRANCH  29  36
ENDBRANCH  25  33
ENDBRANCH  24  26
ENDBRANCH  23  24
ENDBRANCH  21  23
ENDBRANCH   1  21
TORSDOF 7
