REMARK  Name = ZINC12037318
REMARK  11 active torsions:
REMARK  status: ('A' for Active; 'I' for Inactive)
REMARK    1  A    between atoms: C_1  and  C_2
REMARK    2  A    between atoms: C_2  and  C_3
REMARK    3  A    between atoms: C_3  and  C_4
REMARK    4  A    between atoms: C_4  and  C_19
REMARK    5  A    between atoms: N_7  and  C_11
REMARK    6  A    between atoms: C_11  and  C_12
REMARK    7  A    between atoms: C_12  and  C_13
REMARK    8  A    between atoms: C_18  and  N_72
REMARK    9  A    between atoms: C_24  and  C_25
REMARK   10  A    between atoms: C_24  and  N_74
REMARK   11  A    between atoms: C_26  and  C_27
REMARK                            x       y       z     vdW  Elec       q    Type
REMARK                         _______ _______ _______ _____ _____    ______ ____
ROOT
ATOM      1  C   UNL     1       3.188   0.562  -0.150  0.00  0.00    +0.115 C 
ATOM      2  C   UNL     1       2.325  -0.672  -0.323  0.00  0.00    +0.247 C 
ATOM      3  O   UNL     1       2.698  -1.823  -0.398  0.00  0.00    -0.273 OA
ATOM      4  N   UNL     1       1.055  -0.223  -0.376  0.00  0.00    -0.224 N 
ATOM      5  C   UNL     1       0.997   1.109  -0.261  0.00  0.00    +0.309 C 
ATOM      6  O   UNL     1      -0.039   1.744  -0.284  0.00  0.00    -0.252 OA
ATOM      7  N   UNL     1       2.213   1.666  -0.122  0.00  0.00    -0.285 N 
ATOM      8  H   UNL     1       2.410   2.611  -0.024  0.00  0.00    +0.151 HD
ENDROOT
BRANCH   1   9
ATOM      9  C   UNL     1       3.964   0.495   1.167  0.00  0.00    +0.018 C 
ATOM     10  C   UNL     1       4.964  -0.663   1.115  0.00  0.00    -0.013 C 
ATOM     11  C   UNL     1       5.692  -0.763   2.457  0.00  0.00    -0.078 C 
ATOM     12  C   UNL     1       3.774   0.139   3.631  0.00  0.00    -0.078 C 
ATOM     13  C   UNL     1       2.988   0.265   2.325  0.00  0.00    -0.013 C 
ATOM     14  N   UNL     1       4.700  -1.009   3.525  0.00  0.00    +0.383 N 
ATOM     15  H   UNL     1       4.161  -1.851   3.292  0.00  0.00    -0.081 HD
BRANCH  14  16
ATOM     16  C   UNL     1       5.389  -1.222   4.815  0.00  0.00    -0.030 C 
BRANCH  16  17
ATOM     17  C   UNL     1       6.154  -2.519   4.747  0.00  0.00    +0.003 C 
ATOM     18  C   UNL     1       7.479  -2.513   4.830  0.00  0.00    +0.021 C 
ATOM     19 CL   UNL     1       5.303  -4.020   4.560  0.00  0.00    -0.090 Cl
BRANCH  18  20
ATOM     20  C   UNL     1       8.219  -3.788   4.923  0.00  0.00    -0.024 A 
ATOM     21  C   UNL     1       7.648  -4.884   5.572  0.00  0.00    +0.008 A 
ATOM     22  C   UNL     1       8.342  -6.074   5.650  0.00  0.00    +0.001 A 
ATOM     23  C   UNL     1       9.607  -6.178   5.098  0.00  0.00    +0.000 A 
ATOM     24  C   UNL     1      10.181  -5.094   4.459  0.00  0.00    +0.001 A 
ATOM     25  C   UNL     1       9.495  -3.900   4.369  0.00  0.00    +0.008 A 
ENDBRANCH  18  20
ENDBRANCH  16  17
ENDBRANCH  14  16
ENDBRANCH   1   9
BRANCH   1  26
ATOM     26  C   UNL     1       4.146   0.719  -1.333  0.00  0.00    +0.035 C 
BRANCH  26  28
ATOM     27  C   UNL     1       4.300   1.119  -3.794  0.00  0.00    +0.004 C 
ATOM     28  C   UNL     1       3.342   0.962  -2.611  0.00  0.00    -0.001 C 
ENDBRANCH  26  28
ENDBRANCH   1  26
BRANCH   4  29
ATOM     29  C   UNL     1      -0.117  -1.087  -0.539  0.00  0.00    +0.116 C 
BRANCH  29  30
ATOM     30  C   UNL     1      -0.420  -1.259  -2.029  0.00  0.00    +0.004 C 
BRANCH  30  31
ATOM     31  C   UNL     1      -1.578  -2.243  -2.204  0.00  0.00    -0.068 C 
ATOM     32  C   UNL     1      -1.142  -3.652  -1.750  0.00  0.00    -0.017 C 
ATOM     33  C   UNL     1      -1.827  -4.581  -2.788  0.00  0.00    -0.020 C 
ATOM     34  C   UNL     1      -1.735  -3.730  -4.079  0.00  0.00    -0.079 C 
ATOM     35  C   UNL     1      -1.159  -1.397  -4.438  0.00  0.00    -0.096 C 
ATOM     36  N   UNL     1      -1.962  -2.344  -3.621  0.00  0.00    +0.380 N 
ATOM     37  H   UNL     1      -2.957  -2.113  -3.721  0.00  0.00    -0.082 HD
ENDBRANCH  30  31
ENDBRANCH  29  30
ENDBRANCH   4  29
TORSDOF 9
