REMARK  Name = ZINC06077498
REMARK  11 active torsions:
REMARK  status: ('A' for Active; 'I' for Inactive)
REMARK    1  A    between atoms: C_1  and  C_2
REMARK    2  A    between atoms: C_2  and  C_3
REMARK    3  A    between atoms: C_3  and  C_4
REMARK    4  A    between atoms: C_3  and  C_5
REMARK    5  A    between atoms: C_3  and  N_6
REMARK    6  A    between atoms: C_7  and  C_11
REMARK    7  A    between atoms: C_11  and  C_13
REMARK    8  A    between atoms: C_11  and  N_71
REMARK    9  A    between atoms: C_16  and  C_26
REMARK   10  A    between atoms: C_19  and  C_25
REMARK   11  A    between atoms: N_29  and  C_32
REMARK                            x       y       z     vdW  Elec       q    Type
REMARK                         _______ _______ _______ _____ _____    ______ ____
ROOT
ATOM      1  C   UNL     1       0.486   5.409  -0.955  0.00  0.00    +0.039 C 
ENDROOT
BRANCH   1   2
ATOM      2  C   UNL     1      -0.291   5.650  -2.224  0.00  0.00    +0.011 A 
ATOM      3  C   UNL     1      -1.364   6.479  -2.212  0.00  0.00    +0.018 A 
ATOM      4  C   UNL     1      -2.098   6.692  -3.461  0.00  0.00    +0.002 A 
ATOM      5  C   UNL     1      -3.211   7.537  -3.511  0.00  0.00    -0.041 A 
ATOM      6  C   UNL     1      -3.874   7.714  -4.692  0.00  0.00    +0.004 A 
ATOM      7  C   UNL     1      -3.453   7.063  -5.843  0.00  0.00    +0.005 A 
ATOM      8  C   UNL     1      -2.358   6.226  -5.817  0.00  0.00    -0.026 A 
ATOM      9  C   UNL     1      -1.667   6.030  -4.626  0.00  0.00    +0.052 A 
ATOM     10  N   UNL     1      -0.568   5.199  -4.571  0.00  0.00    -0.322 N 
ATOM     11  H   UNL     1      -0.266   4.727  -5.399  0.00  0.00    +0.169 HD
ATOM     12  C   UNL     1       0.103   5.014  -3.421  0.00  0.00    +0.251 A 
ATOM     13  O   UNL     1       1.073   4.276  -3.411  0.00  0.00    -0.268 OA
ATOM     14  C   UNL     1      -1.911   5.527  -7.075  0.00  0.00    +0.046 C 
ATOM     15  C   UNL     1      -3.677   8.249  -2.267  0.00  0.00    +0.044 C 
ENDBRANCH   1   2
BRANCH   1  21
ATOM     16  C   UNL     1       1.305   3.693   0.545  0.00  0.00    -0.058 C 
ATOM     17  C   UNL     1       1.418   2.180   0.746  0.00  0.00    +0.086 C 
ATOM     18  N   UNL     1       0.072   1.596   0.814  0.00  0.00    -0.331 N 
ATOM     19  C   UNL     1      -0.681   1.869  -0.418  0.00  0.00    +0.086 C 
ATOM     20  C   UNL     1      -0.794   3.381  -0.619  0.00  0.00    -0.058 C 
ATOM     21  N   UNL     1       0.565   3.954  -0.708  0.00  0.00    +0.391 N 
ATOM     22  H   UNL     1       1.064   3.510  -1.488  0.00  0.00    -0.080 HD
BRANCH  18  23
ATOM     23  C   UNL     1       0.135   0.222   1.069  0.00  0.00    +0.065 A 
ATOM     24  C   UNL     1       0.791  -0.621   0.183  0.00  0.00    +0.026 A 
ATOM     25  C   UNL     1       0.854  -1.977   0.440  0.00  0.00    +0.002 A 
ATOM     26  C   UNL     1       0.258  -2.497   1.573  0.00  0.00    +0.003 A 
ATOM     27  C   UNL     1      -0.401  -1.662   2.457  0.00  0.00    +0.040 A 
ATOM     28  C   UNL     1      -0.465  -0.303   2.209  0.00  0.00    +0.144 A 
ATOM     29  F   UNL     1      -1.110   0.512   3.071  0.00  0.00    -0.204 F 
ENDBRANCH  18  23
ENDBRANCH   1  21
BRANCH   1  31
ATOM     30  N   UNL     1       2.400   7.027  -0.483  0.00  0.00    -0.225 N 
ATOM     31  C   UNL     1       1.882   5.955  -1.111  0.00  0.00    +0.143 A 
ATOM     32  N   UNL     1       2.829   5.476  -1.879  0.00  0.00    -0.115 NA
ATOM     33  N   UNL     1       3.872   6.219  -1.737  0.00  0.00    -0.023 NA
ATOM     34  N   UNL     1       3.617   7.156  -0.891  0.00  0.00    -0.043 NA
BRANCH  30  35
ATOM     35  C   UNL     1       1.712   7.886   0.484  0.00  0.00    +0.061 C 
ATOM     36  C   UNL     1       0.450   8.467  -0.158  0.00  0.00    +0.036 C 
ATOM     37  C   UNL     1       1.326   7.063   1.714  0.00  0.00    +0.036 C 
BRANCH  35  39
ATOM     38  C   UNL     1       1.922   9.924   1.914  0.00  0.00    +0.006 C 
ATOM     39  C   UNL     1       2.641   9.027   0.904  0.00  0.00    +0.026 C 
ENDBRANCH  35  39
ENDBRANCH  30  35
ENDBRANCH   1  31
TORSDOF 6
