REMARK  Name = ZINC33064030
REMARK  9 active torsions:
REMARK  status: ('A' for Active; 'I' for Inactive)
REMARK    1  A    between atoms: C_1  and  C_2
REMARK    2  A    between atoms: C_2  and  C_3
REMARK    3  A    between atoms: C_6  and  N_9
REMARK    4  A    between atoms: C_10  and  C_12
REMARK    5  A    between atoms: C_12  and  S_13
REMARK    6  A    between atoms: S_13  and  C_14
REMARK    7  A    between atoms: C_14  and  C_15
REMARK    8  A    between atoms: C_22  and  C_28
REMARK    9  A    between atoms: C_23  and  C_27
REMARK                            x       y       z     vdW  Elec       q    Type
REMARK                         _______ _______ _______ _____ _____    ______ ____
ROOT
ATOM      1  C   UNL     1       5.021  -2.669  -0.062  0.00  0.00    +0.122 C 
ENDROOT
BRANCH   1   2
ATOM      2  C   UNL     1       3.674  -1.993  -0.046  0.00  0.00    +0.030 A 
ATOM      3  C   UNL     1       2.564  -2.759  -0.031  0.00  0.00    +0.073 A 
ATOM      4  C   UNL     1       1.285  -2.155  -0.015  0.00  0.00    +0.190 A 
ATOM      5  O   UNL     1       0.269  -2.830  -0.001  0.00  0.00    -0.287 OA
ATOM      6  C   UNL     1       1.221  -0.682  -0.015  0.00  0.00    +0.045 A 
ATOM      7  C   UNL     1       0.002  -0.006   0.000  0.00  0.00    +0.014 A 
ATOM      8  C   UNL     1      -0.014   1.361  -0.001  0.00  0.00    +0.004 A 
ATOM      9  C   UNL     1       1.173   2.080  -0.017  0.00  0.00    -0.046 A 
ATOM     10  C   UNL     1       2.388   1.431  -0.032  0.00  0.00    -0.024 A 
ATOM     11  C   UNL     1       2.427   0.040  -0.031  0.00  0.00    +0.054 A 
ATOM     12  N   UNL     1       3.625  -0.639  -0.046  0.00  0.00    -0.357 N 
ATOM     13  H   UNL     1       4.557  -0.054  -0.059  0.00  0.00    +0.166 HD
ATOM     14  C   UNL     1       3.669   2.225  -0.048  0.00  0.00    +0.046 C 
ATOM     15  C   UNL     1       1.132   3.586  -0.018  0.00  0.00    +0.044 C 
ENDBRANCH   1   2
BRANCH   1  16
ATOM     16  S   UNL     1       5.583  -2.939   1.641  0.00  0.00    -0.145 S 
BRANCH  16  17
ATOM     17  C   UNL     1       7.194  -3.749   1.449  0.00  0.00    +0.165 C 
BRANCH  17  19
ATOM     18  N   UNL     1       8.981  -4.636   2.912  0.00  0.00    -0.285 N 
ATOM     19  C   UNL     1       7.779  -4.033   2.808  0.00  0.00    +0.227 C 
ATOM     20  O   UNL     1       7.169  -3.720   3.808  0.00  0.00    -0.275 OA
ATOM     21  H   UNL     1       9.499  -4.988   2.009  0.00  0.00    +0.155 HD
BRANCH  18  25
ATOM     22  C   UNL     1      10.729  -5.161   6.657  0.00  0.00    -0.048 A 
ATOM     23  C   UNL     1       9.357  -5.251   6.518  0.00  0.00    +0.005 A 
ATOM     24  C   UNL     1       8.774  -5.077   5.278  0.00  0.00    +0.023 A 
ATOM     25  C   UNL     1       9.568  -4.812   4.170  0.00  0.00    +0.033 A 
ATOM     26  C   UNL     1      10.947  -4.728   4.312  0.00  0.00    +0.023 A 
ATOM     27  C   UNL     1      11.523  -4.897   5.556  0.00  0.00    +0.005 A 
BRANCH  22  29
ATOM     28  C   UNL     1      11.694  -6.831   8.216  0.00  0.00    +0.009 C 
ATOM     29  C   UNL     1      11.362  -5.351   8.011  0.00  0.00    +0.032 C 
ENDBRANCH  22  29
ENDBRANCH  18  25
ENDBRANCH  17  19
ENDBRANCH  16  17
ENDBRANCH   1  16
TORSDOF 6
