REMARK  Name = ZINC67120683
REMARK  12 active torsions:
REMARK  status: ('A' for Active; 'I' for Inactive)
REMARK    1  A    between atoms: C_1  and  C_2
REMARK    2  A    between atoms: N_8  and  C_9
REMARK    3  A    between atoms: C_9  and  C_11
REMARK    4  A    between atoms: C_9  and  C_12
REMARK    5  A    between atoms: C_12  and  N_13
REMARK    6  A    between atoms: N_13  and  C_14
REMARK    7  A    between atoms: C_14  and  C_15
REMARK    8  A    between atoms: C_17  and  O_27
REMARK    9  A    between atoms: C_18  and  O_22
REMARK   10  A    between atoms: O_22  and  C_23
REMARK   11  A    between atoms: C_23  and  C_24
REMARK   12  A    between atoms: O_27  and  C_28
REMARK                            x       y       z     vdW  Elec       q    Type
REMARK                         _______ _______ _______ _____ _____    ______ ____
ROOT
ATOM      1  C   UNL     1      -1.743   3.632  -0.692  0.00  0.00    -0.029 A 
ATOM      2  C   UNL     1      -1.073   3.792  -1.891  0.00  0.00    +0.054 A 
ATOM      3  C   UNL     1      -1.785   4.021  -3.058  0.00  0.00    +0.163 A 
ATOM      4  C   UNL     1      -3.174   4.090  -3.020  0.00  0.00    +0.181 A 
ATOM      5  C   UNL     1      -3.840   3.928  -1.815  0.00  0.00    +0.086 A 
ATOM      6  C   UNL     1      -3.124   3.694  -0.654  0.00  0.00    +0.028 A 
ATOM      7 CL   UNL     1      -5.574   4.013  -1.763  0.00  0.00    -0.080 Cl
ENDROOT
BRANCH   3   8
ATOM      8  O   UNL     1      -1.127   4.179  -4.237  0.00  0.00    -0.491 OA
ATOM      9  C   UNL     1       0.299   4.097  -4.201  0.00  0.00    +0.277 C 
ENDBRANCH   3   8
BRANCH   1  10
ATOM     10  C   UNL     1      -0.967   3.383   0.575  0.00  0.00    +0.116 C 
BRANCH  10  11
ATOM     11  N   UNL     1      -0.783   1.937   0.761  0.00  0.00    -0.314 NA
ATOM     12  H   UNL     1      -0.333   1.524  -0.042  0.00  0.00    +0.122 HD
BRANCH  11  13
ATOM     13  C   UNL     1      -0.028   1.656   1.989  0.00  0.00    +0.066 C 
BRANCH  13  14
ATOM     14  C   UNL     1       0.022   0.145   2.223  0.00  0.00    -0.057 C 
ATOM     15  C   UNL     1       0.897  -0.154   3.441  0.00  0.00    -0.012 C 
BRANCH  14  22
ATOM     16  C   UNL     1      -0.873  -2.420   1.511  0.00  0.00    -0.013 C 
ATOM     17  C   UNL     1       0.562  -1.969   1.231  0.00  0.00    -0.071 C 
ATOM     18  C   UNL     1       1.076  -2.664  -0.032  0.00  0.00    -0.016 C 
ATOM     19  C   UNL     1       2.513  -2.210  -0.309  0.00  0.00    -0.003 C 
ATOM     20  C   UNL     1       2.541  -0.684  -0.433  0.00  0.00    -0.019 C 
ATOM     21  C   UNL     1       1.972  -0.063   0.845  0.00  0.00    -0.078 C 
ATOM     22  N   UNL     1       0.589  -0.514   1.039  0.00  0.00    +0.384 N 
ATOM     23  H   UNL     1       0.040  -0.273   0.227  0.00  0.00    -0.081 HD
ENDBRANCH  14  22
ENDBRANCH  13  14
ENDBRANCH  11  13
ENDBRANCH  10  11
ENDBRANCH   1  10
BRANCH   4  24
ATOM     24  O   UNL     1      -3.877   4.315  -4.162  0.00  0.00    -0.478 OA
BRANCH  24  25
ATOM     25  C   UNL     1      -4.280   3.168  -4.913  0.00  0.00    +0.324 C 
BRANCH  25  26
ATOM     26  C   UNL     1      -5.041   3.610  -6.136  0.00  0.00    +0.248 C 
ATOM     27  O   UNL     1      -5.221   4.791  -6.344  0.00  0.00    -0.272 OA
ATOM     28  N   UNL     1      -5.522   2.693  -6.999  0.00  0.00    -0.327 N 
ATOM     29  H   UNL     1      -5.378   1.748  -6.832  0.00  0.00    +0.145 HD
ATOM     30  H   UNL     1      -6.012   2.977  -7.786  0.00  0.00    +0.145 HD
ENDBRANCH  25  26
ENDBRANCH  24  25
ENDBRANCH   4  24
TORSDOF 9
