REMARK  Name = ZINC20568986
REMARK  10 active torsions:
REMARK  status: ('A' for Active; 'I' for Inactive)
REMARK    1  A    between atoms: C_1  and  C_2
REMARK    2  A    between atoms: C_3  and  C_25
REMARK    3  A    between atoms: C_12  and  N_20
REMARK    4  A    between atoms: C_13  and  C_14
REMARK    5  A    between atoms: C_14  and  O_16
REMARK    6  A    between atoms: O_16  and  C_17
REMARK    7  A    between atoms: C_17  and  C_18
REMARK    8  A    between atoms: C_17  and  C_19
REMARK    9  A    between atoms: C_25  and  O_27
REMARK   10  A    between atoms: O_27  and  C_28
REMARK                            x       y       z     vdW  Elec       q    Type
REMARK                         _______ _______ _______ _____ _____    ______ ____
ROOT
ATOM      1  C   UNL     1      -2.475  -2.356   1.092  0.00  0.00    +0.087 C 
ATOM      2  C   UNL     1      -1.591  -1.442   0.284  0.00  0.00    +0.117 C 
ATOM      3  C   UNL     1      -0.542  -0.776   0.796  0.00  0.00    +0.100 C 
ATOM      4  C   UNL     1       0.047   0.008  -0.358  0.00  0.00    +0.164 C 
ATOM      5  C   UNL     1       1.453  -0.444  -0.625  0.00  0.00    +0.001 A 
ATOM      6  C   UNL     1       1.676  -1.670  -1.226  0.00  0.00    +0.022 A 
ATOM      7  C   UNL     1       2.967  -2.099  -1.475  0.00  0.00    +0.018 A 
ATOM      8  C   UNL     1       4.043  -1.303  -1.124  0.00  0.00    +0.017 A 
ATOM      9  C   UNL     1       3.829  -0.078  -0.526  0.00  0.00    +0.024 A 
ATOM     10  C   UNL     1       2.532   0.356  -0.276  0.00  0.00    +0.037 A 
ATOM     11  N   UNL     1       2.321   1.602   0.322  0.00  0.00    -0.302 N 
ATOM     12  C   UNL     1       1.093   2.204   0.246  0.00  0.00    +0.097 C 
ATOM     13  C   UNL     1      -0.025   1.477  -0.081  0.00  0.00    +0.098 C 
ATOM     14 BR   UNL     1       3.261  -3.776  -2.298  0.00  0.00    -0.050 Br
ATOM     15  C   UNL     1      -0.850  -0.355  -1.521  0.00  0.00    +0.332 C 
ATOM     16  O   UNL     1      -0.763   0.037  -2.660  0.00  0.00    -0.249 OA
ATOM     17  O   UNL     1      -1.765  -1.205  -1.023  0.00  0.00    -0.429 OA
ATOM     18  H   UNL     1       3.142   2.102   0.856  0.00  0.00    +0.153 HD
ENDROOT
BRANCH  12  19
ATOM     19  N   UNL     1       0.979   3.546   0.499  0.00  0.00    -0.346 N 
ATOM     20  H   UNL     1      -0.004   4.036   0.440  0.00  0.00    +0.143 HD
ATOM     21  H   UNL     1       1.871   4.134   0.762  0.00  0.00    +0.143 HD
ENDBRANCH  12  19
BRANCH  13  22
ATOM     22  C   UNL     1      -1.262   2.128  -0.163  0.00  0.00    +0.340 C 
ATOM     23  O   UNL     1      -1.320   3.341  -0.060  0.00  0.00    -0.245 OA
BRANCH  22  24
ATOM     24  O   UNL     1      -2.391   1.411  -0.355  0.00  0.00    -0.459 OA
BRANCH  24  25
ATOM     25  C   UNL     1      -3.618   2.140  -0.429  0.00  0.00    +0.171 C 
ATOM     26  C   UNL     1      -3.893   2.529  -1.883  0.00  0.00    +0.052 C 
ATOM     27  C   UNL     1      -4.761   1.267   0.091  0.00  0.00    +0.052 C 
ENDBRANCH  24  25
ENDBRANCH  22  24
ENDBRANCH  13  22
BRANCH   3  28
ATOM     28  C   UNL     1      -0.083  -0.801   2.137  0.00  0.00    +0.340 C 
ATOM     29  O   UNL     1      -0.659  -1.482   2.964  0.00  0.00    -0.245 OA
BRANCH  28  30
ATOM     30  O   UNL     1       0.993  -0.071   2.495  0.00  0.00    -0.465 OA
ATOM     31  C   UNL     1       1.400  -0.144   3.863  0.00  0.00    +0.280 C 
ENDBRANCH  28  30
ENDBRANCH   3  28
TORSDOF 6
