REMARK  Name = ZINC35038328
REMARK  12 active torsions:
REMARK  status: ('A' for Active; 'I' for Inactive)
REMARK    1  A    between atoms: C_1  and  C_2
REMARK    2  A    between atoms: C_2  and  C_3
REMARK    3  A    between atoms: C_3  and  C_4
REMARK    4  A    between atoms: C_4  and  N_5
REMARK    5  A    between atoms: N_5  and  C_6
REMARK    6  A    between atoms: C_6  and  C_8
REMARK    7  A    between atoms: C_6  and  C_9
REMARK    8  A    between atoms: N_19  and  C_20
REMARK    9  A    between atoms: C_27  and  C_29
REMARK   10  A    between atoms: C_29  and  C_30
REMARK   11  A    between atoms: C_29  and  C_31
REMARK   12  A    between atoms: C_29  and  C_32
REMARK                            x       y       z     vdW  Elec       q    Type
REMARK                         _______ _______ _______ _____ _____    ______ ____
ROOT
ATOM      1  C   UNL     1       3.432  -1.670  -4.529  0.00  0.00    +0.138 A 
ATOM      2  N   UNL     1       2.793  -0.718  -5.138  0.00  0.00    -0.231 NA
ATOM      3  C   UNL     1       3.358  -0.019  -6.154  0.00  0.00    +0.078 A 
ATOM      4  C   UNL     1       2.671   1.006  -6.809  0.00  0.00    +0.028 A 
ATOM      5  C   UNL     1       3.284   1.690  -7.835  0.00  0.00    +0.002 A 
ATOM      6  C   UNL     1       4.578   1.374  -8.228  0.00  0.00    +0.001 A 
ATOM      7  C   UNL     1       5.276   0.368  -7.598  0.00  0.00    +0.015 A 
ATOM      8  C   UNL     1       4.675  -0.337  -6.556  0.00  0.00    +0.065 A 
ATOM      9  C   UNL     1       5.371  -1.420  -5.847  0.00  0.00    +0.266 A 
ATOM     10  O   UNL     1       6.506  -1.743  -6.144  0.00  0.00    -0.267 OA
ATOM     11  N   UNL     1       4.702  -2.040  -4.847  0.00  0.00    -0.263 N 
ENDROOT
BRANCH  11  12
ATOM     12  C   UNL     1       5.322  -3.075  -4.135  0.00  0.00    +0.051 A 
ATOM     13  C   UNL     1       5.758  -4.213  -4.802  0.00  0.00    +0.027 A 
ATOM     14  C   UNL     1       6.369  -5.233  -4.098  0.00  0.00    +0.017 A 
ATOM     15  C   UNL     1       6.546  -5.121  -2.730  0.00  0.00    +0.018 A 
ATOM     16  C   UNL     1       6.112  -3.989  -2.064  0.00  0.00    +0.017 A 
ATOM     17  C   UNL     1       5.507  -2.963  -2.764  0.00  0.00    +0.027 A 
ATOM     18 BR   UNL     1       7.382  -6.519  -1.770  0.00  0.00    -0.050 Br
ENDBRANCH  11  12
BRANCH   1  19
ATOM     19  C   UNL     1       2.734  -2.399  -3.410  0.00  0.00    +0.139 C 
ATOM     20  C   UNL     1       2.699  -3.897  -3.720  0.00  0.00    +0.036 C 
BRANCH  19  21
ATOM     21  N   UNL     1       1.364  -1.895  -3.280  0.00  0.00    -0.291 N 
ATOM     22  C   UNL     1       0.508  -1.994  -4.317  0.00  0.00    +0.223 C 
ATOM     23  O   UNL     1       0.858  -2.539  -5.342  0.00  0.00    -0.275 OA
BRANCH  22  24
ATOM     24  C   UNL     1      -0.883  -1.427  -4.202  0.00  0.00    +0.055 C 
ATOM     25  C   UNL     1      -1.617  -1.603  -5.533  0.00  0.00    +0.022 C 
ATOM     26  C   UNL     1      -1.645  -2.163  -3.098  0.00  0.00    +0.022 C 
BRANCH  24  27
ATOM     27  C   UNL     1      -0.800   0.062  -3.860  0.00  0.00    +0.124 C 
ATOM     28 CL   UNL     1      -2.463   0.755  -3.786  0.00  0.00    -0.124 Cl
ENDBRANCH  24  27
ENDBRANCH  22  24
BRANCH  21  29
ATOM     29  C   UNL     1       0.924  -1.285  -2.023  0.00  0.00    +0.108 C 
BRANCH  29  30
ATOM     30  C   UNL     1       1.778  -0.050  -1.730  0.00  0.00    +0.019 C 
BRANCH  30  32
ATOM     31  C   UNL     1       2.069   1.916  -0.216  0.00  0.00    +0.004 C 
ATOM     32  C   UNL     1       1.215   0.681  -0.510  0.00  0.00    -0.002 C 
ENDBRANCH  30  32
ENDBRANCH  29  30
ENDBRANCH  21  29
ENDBRANCH  19  21
ENDBRANCH   1  19
TORSDOF 8
