REMARK  Name = ZINC24990816
REMARK  4 active torsions:
REMARK  status: ('A' for Active; 'I' for Inactive)
REMARK    1  A    between atoms: C_1  and  C_2
REMARK    2  A    between atoms: C_5  and  S_8
REMARK    3  A    between atoms: S_8  and  C_9
REMARK    4  A    between atoms: C_15  and  C_20
REMARK                            x       y       z     vdW  Elec       q    Type
REMARK                         _______ _______ _______ _____ _____    ______ ____
ROOT
ATOM      1  C   UNL     1      -1.721  -0.334   0.168  0.00  0.00    +0.109 A 
ATOM      2  C   UNL     1      -2.171  -1.646   0.306  0.00  0.00    +0.105 A 
ATOM      3  C   UNL     1      -3.538  -1.877   0.440  0.00  0.00    +0.259 A 
ATOM      4  O   UNL     1      -3.963  -3.015   0.568  0.00  0.00    -0.267 OA
ATOM      5  N   UNL     1      -4.387  -0.827   0.423  0.00  0.00    -0.268 N 
ATOM      6  C   UNL     1      -5.726  -1.045   0.549  0.00  0.00    +0.099 A 
ATOM      7  C   UNL     1      -6.599  -0.013   0.535  0.00  0.00    -0.034 A 
ATOM      8  C   UNL     1      -6.133   1.302   0.389  0.00  0.00    +0.008 A 
ATOM      9  C   UNL     1      -4.796   1.531   0.263  0.00  0.00    +0.047 A 
ATOM     10  C   UNL     1      -3.902   0.444   0.280  0.00  0.00    +0.141 A 
ATOM     11  N   UNL     1      -2.597   0.668   0.156  0.00  0.00    -0.222 NA
ATOM     12  C   UNL     1      -8.076  -0.276   0.677  0.00  0.00    +0.045 C 
ENDROOT
BRANCH   1  13
ATOM     13  S   UNL     1       0.002  -0.004   0.002  0.00  0.00    -0.070 S 
BRANCH  13  18
ATOM     14  C   UNL     1      -0.072   6.031   0.088  0.00  0.00    +0.044 C 
ATOM     15  C   UNL     1      -0.054   4.524   0.066  0.00  0.00    -0.050 A 
ATOM     16  C   UNL     1      -0.025   3.818   1.255  0.00  0.00    +0.004 A 
ATOM     17  C   UNL     1      -0.007   2.437   1.239  0.00  0.00    +0.015 A 
ATOM     18  C   UNL     1      -0.020   1.758   0.027  0.00  0.00    +0.014 A 
ATOM     19  C   UNL     1      -0.045   2.471  -1.165  0.00  0.00    +0.015 A 
ATOM     20  C   UNL     1      -0.067   3.851  -1.142  0.00  0.00    +0.004 A 
ENDBRANCH  13  18
ENDBRANCH   1  13
TORSDOF 2
