REMARK  Name = ZINC09450990
REMARK  8 active torsions:
REMARK  status: ('A' for Active; 'I' for Inactive)
REMARK    1  A    between atoms: C_1  and  C_2
REMARK    2  A    between atoms: C_2  and  C_3
REMARK    3  A    between atoms: C_3  and  C_23
REMARK    4  A    between atoms: N_6  and  C_10
REMARK    5  A    between atoms: C_10  and  C_11
REMARK    6  A    between atoms: N_13  and  C_14
REMARK    7  A    between atoms: C_20  and  C_22
REMARK    8  A    between atoms: C_26  and  C_29
REMARK                            x       y       z     vdW  Elec       q    Type
REMARK                         _______ _______ _______ _____ _____    ______ ____
ROOT
ATOM      1  C   UNL     1      -1.332   2.114   0.020  0.00  0.00    +0.138 C 
ATOM      2  C   UNL     1      -1.853   2.256   1.436  0.00  0.00    +0.251 C 
ATOM      3  O   UNL     1      -1.320   2.837   2.357  0.00  0.00    -0.272 OA
ATOM      4  N   UNL     1      -3.030   1.601   1.459  0.00  0.00    -0.215 N 
ATOM      5  C   UNL     1      -3.323   1.070   0.266  0.00  0.00    +0.310 C 
ATOM      6  O   UNL     1      -4.333   0.433   0.040  0.00  0.00    -0.252 OA
ATOM      7  N   UNL     1      -2.374   1.321  -0.654  0.00  0.00    -0.281 N 
ATOM      8  H   UNL     1      -2.377   1.036  -1.581  0.00  0.00    +0.152 HD
ENDROOT
BRANCH   1   9
ATOM      9  C   UNL     1      -0.017   1.378   0.010  0.00  0.00    -0.015 A 
ATOM     10  C   UNL     1       1.171   2.086   0.002  0.00  0.00    +0.006 A 
ATOM     11  C   UNL     1       2.377   1.411  -0.014  0.00  0.00    +0.004 A 
ATOM     12  C   UNL     1       2.396   0.029  -0.021  0.00  0.00    -0.050 A 
ATOM     13  C   UNL     1       1.208  -0.679  -0.014  0.00  0.00    +0.004 A 
ATOM     14  C   UNL     1       0.002  -0.004   0.002  0.00  0.00    +0.006 A 
ATOM     15  C   UNL     1       3.711  -0.707  -0.037  0.00  0.00    +0.044 C 
ENDBRANCH   1   9
BRANCH   1  17
ATOM     16  C   UNL     1      -2.532   4.210  -0.620  0.00  0.00    +0.007 C 
ATOM     17  C   UNL     1      -1.185   3.485  -0.643  0.00  0.00    +0.037 C 
ENDBRANCH   1  17
BRANCH   4  18
ATOM     18  C   UNL     1      -3.884   1.484   2.644  0.00  0.00    +0.213 C 
BRANCH  18  19
ATOM     19  C   UNL     1      -3.504   0.247   3.417  0.00  0.00    +0.231 C 
ATOM     20  O   UNL     1      -2.608  -0.466   3.017  0.00  0.00    -0.274 OA
ATOM     21  N   UNL     1      -4.159  -0.066   4.552  0.00  0.00    -0.311 N 
ATOM     22  H   UNL     1      -4.876   0.504   4.871  0.00  0.00    +0.149 HD
BRANCH  21  23
ATOM     23  C   UNL     1      -3.790  -1.269   5.303  0.00  0.00    +0.076 C 
ATOM     24  C   UNL     1      -4.521  -2.479   4.720  0.00  0.00    +0.022 C 
ATOM     25  C   UNL     1      -6.032  -2.260   4.820  0.00  0.00    +0.002 C 
ATOM     26  C   UNL     1      -6.426  -2.084   6.288  0.00  0.00    +0.000 C 
ATOM     27  C   UNL     1      -5.694  -0.874   6.871  0.00  0.00    +0.005 C 
ATOM     28  C   UNL     1      -4.183  -1.094   6.771  0.00  0.00    +0.006 C 
ATOM     29  C   UNL     1      -3.452   0.117   7.354  0.00  0.00    +0.009 C 
ENDBRANCH  21  23
ENDBRANCH  18  19
ENDBRANCH   4  18
TORSDOF 5
