REMARK  Name = ZINC16310246
REMARK  5 active torsions:
REMARK  status: ('A' for Active; 'I' for Inactive)
REMARK    1  A    between atoms: C_1  and  C_2
REMARK    2  A    between atoms: C_5  and  S_8
REMARK    3  A    between atoms: S_8  and  N_11
REMARK    4  A    between atoms: C_12  and  O_14
REMARK    5  A    between atoms: O_14  and  C_15
REMARK                            x       y       z     vdW  Elec       q    Type
REMARK                         _______ _______ _______ _____ _____    ______ ____
ROOT
ATOM      1  N   UNL     1      -3.216   4.240  -1.530  0.00  0.00    -0.151 N 
ATOM      2  C   UNL     1      -3.502   3.188  -2.323  0.00  0.00    +0.420 C 
ATOM      3  O   UNL     1      -3.436   2.058  -1.880  0.00  0.00    -0.225 OA
ATOM      4  H   UNL     1      -3.269   5.142  -1.884  0.00  0.00    +0.180 HD
ENDROOT
BRANCH   1   5
ATOM      5  S   UNL     1      -2.775   3.993   0.047  0.00  0.00    +0.077 S 
ATOM      6  O   UNL     1      -3.733   3.102   0.601  0.00  0.00    -0.150 OA
ATOM      7  O   UNL     1      -2.517   5.275   0.602  0.00  0.00    -0.150 OA
BRANCH   5  12
ATOM      8  C   UNL     1       2.490   1.048  -0.016  0.00  0.00    +0.044 C 
ATOM      9  C   UNL     1       1.175   1.783   0.000  0.00  0.00    -0.050 A 
ATOM     10  C   UNL     1      -0.013   1.076   0.008  0.00  0.00    +0.005 A 
ATOM     11  C   UNL     1      -1.219   1.751   0.017  0.00  0.00    +0.029 A 
ATOM     12  C   UNL     1      -1.238   3.133   0.029  0.00  0.00    +0.109 A 
ATOM     13  C   UNL     1      -0.050   3.840   0.022  0.00  0.00    +0.029 A 
ATOM     14  C   UNL     1       1.156   3.165   0.008  0.00  0.00    +0.005 A 
ENDBRANCH   5  12
ENDBRANCH   1   5
BRANCH   2  15
ATOM     15  O   UNL     1      -3.861   3.389  -3.605  0.00  0.00    -0.446 OA
BRANCH  15  16
ATOM     16  C   UNL     1      -4.154   2.210  -4.400  0.00  0.00    +0.178 C 
ATOM     17  C   UNL     1      -5.641   1.871  -4.280  0.00  0.00    +0.045 C 
ATOM     18  C   UNL     1      -6.475   3.050  -4.788  0.00  0.00    +0.007 C 
ATOM     19  C   UNL     1      -6.131   3.324  -6.254  0.00  0.00    -0.008 C 
ATOM     20  C   UNL     1      -6.965   4.502  -6.762  0.00  0.00    +0.004 C 
ATOM     21  C   UNL     1      -6.620   4.776  -8.227  0.00  0.00    +0.000 C 
ATOM     22  C   UNL     1      -5.133   5.114  -8.347  0.00  0.00    +0.000 C 
ATOM     23  C   UNL     1      -4.299   3.936  -7.839  0.00  0.00    +0.004 C 
ATOM     24  C   UNL     1      -4.644   3.662  -6.373  0.00  0.00    -0.004 C 
ATOM     25  C   UNL     1      -3.810   2.484  -5.865  0.00  0.00    +0.048 C 
ENDBRANCH  15  16
ENDBRANCH   2  15
TORSDOF 4
