REMARK  Name = ZINC39911738
REMARK  17 active torsions:
REMARK  status: ('A' for Active; 'I' for Inactive)
REMARK    1  A    between atoms: C_1  and  C_2
REMARK    2  A    between atoms: C_2  and  C_3
REMARK    3  A    between atoms: C_3  and  O_4
REMARK    4  A    between atoms: O_4  and  C_5
REMARK    5  A    between atoms: C_8  and  C_14
REMARK    6  A    between atoms: C_10  and  O_11
REMARK    7  A    between atoms: O_11  and  C_12
REMARK    8  A    between atoms: C_12  and  C_13
REMARK    9  A    between atoms: C_17  and  C_30
REMARK   10  A    between atoms: N_24  and  C_25
REMARK   11  A    between atoms: C_25  and  C_26
REMARK   12  A    between atoms: C_26  and  C_27
REMARK   13  A    between atoms: C_27  and  O_28
REMARK   14  A    between atoms: O_28  and  C_29
REMARK   15  A    between atoms: C_32  and  C_38
REMARK   16  A    between atoms: C_34  and  C_37
REMARK   17  A    between atoms: C_35  and  O_36
REMARK                            x       y       z     vdW  Elec       q    Type
REMARK                         _______ _______ _______ _____ _____    ______ ____
ROOT
ATOM      1  C   UNL     1       3.722  -4.043   5.009  0.00  0.00    +0.141 C 
ATOM      2  C   UNL     1       3.160  -4.333   6.373  0.00  0.00    +0.035 A 
ATOM      3  C   UNL     1       2.167  -4.964   7.130  0.00  0.00    +0.102 A 
ATOM      4  N   UNL     1       2.413  -4.704   8.399  0.00  0.00    -0.173 NA
ATOM      5  N   UNL     1       3.462  -3.971   8.519  0.00  0.00    -0.272 N 
ATOM      6  H   UNL     1       3.830  -3.657   9.360  0.00  0.00    +0.189 HD
ATOM      7  C   UNL     1       3.983  -3.700   7.285  0.00  0.00    +0.126 A 
ATOM      8  C   UNL     1       5.053  -3.014   6.551  0.00  0.00    +0.265 C 
ATOM      9  O   UNL     1       5.942  -2.363   7.066  0.00  0.00    -0.268 OA
ATOM     10  N   UNL     1       4.911  -3.208   5.226  0.00  0.00    -0.285 N 
ENDROOT
BRANCH   3  11
ATOM     11  C   UNL     1       1.044  -5.777   6.602  0.00  0.00    +0.044 A 
ATOM     12  C   UNL     1       0.977  -6.079   5.244  0.00  0.00    +0.017 A 
ATOM     13  C   UNL     1      -0.070  -6.835   4.757  0.00  0.00    -0.049 A 
ATOM     14  C   UNL     1      -1.055  -7.295   5.614  0.00  0.00    +0.010 A 
ATOM     15  C   UNL     1      -0.998  -7.001   6.963  0.00  0.00    -0.008 A 
ATOM     16  C   UNL     1       0.051  -6.248   7.466  0.00  0.00    +0.129 A 
ATOM     17  C   UNL     1      -2.074  -7.506   7.890  0.00  0.00    +0.047 C 
ATOM     18  C   UNL     1      -0.142  -7.160   3.288  0.00  0.00    +0.044 C 
BRANCH  16  19
ATOM     19  O   UNL     1       0.112  -5.964   8.793  0.00  0.00    -0.506 OA
ATOM     20  H   UNL     1      -0.339  -5.145   9.041  0.00  0.00    +0.292 HD
ENDBRANCH  16  19
ENDBRANCH   3  11
BRANCH   1  24
ATOM     21  C   UNL     1       0.847  -1.932   2.649  0.00  0.00    +0.162 A 
ATOM     22  C   UNL     1       1.208  -3.227   2.312  0.00  0.00    +0.050 A 
ATOM     23  C   UNL     1       2.138  -3.907   3.077  0.00  0.00    +0.009 A 
ATOM     24  C   UNL     1       2.709  -3.297   4.178  0.00  0.00    -0.019 A 
ATOM     25  C   UNL     1       2.354  -2.006   4.520  0.00  0.00    +0.055 A 
ATOM     26  C   UNL     1       1.427  -1.317   3.754  0.00  0.00    +0.162 A 
BRANCH  21  27
ATOM     27  O   UNL     1      -0.067  -1.262   1.898  0.00  0.00    -0.488 OA
BRANCH  27  28
ATOM     28  C   UNL     1      -0.621  -1.957   0.778  0.00  0.00    +0.229 C 
BRANCH  28  30
ATOM     29  C   UNL     1      -2.215  -1.793  -1.139  0.00  0.00    +0.007 C 
ATOM     30  C   UNL     1      -1.622  -1.050   0.060  0.00  0.00    +0.038 C 
ENDBRANCH  28  30
ENDBRANCH  27  28
ENDBRANCH  21  27
BRANCH  26  31
ATOM     31  O   UNL     1       1.080  -0.044   4.085  0.00  0.00    -0.489 OA
BRANCH  31  32
ATOM     32  C   UNL     1       1.776   0.553   5.181  0.00  0.00    +0.226 C 
ATOM     33  C   UNL     1       1.316   2.003   5.348  0.00  0.00    +0.048 C 
ENDBRANCH  31  32
ENDBRANCH  26  31
ENDBRANCH   1  24
BRANCH  10  34
ATOM     34  C   UNL     1       5.790  -2.677   4.181  0.00  0.00    +0.111 C 
BRANCH  34  35
ATOM     35  C   UNL     1       5.278  -1.307   3.732  0.00  0.00    +0.047 C 
BRANCH  35  36
ATOM     36  C   UNL     1       6.196  -0.753   2.640  0.00  0.00    +0.161 C 
BRANCH  36  37
ATOM     37  O   UNL     1       5.719   0.527   2.220  0.00  0.00    -0.383 OA
ATOM     38  C   UNL     1       6.509   1.135   1.197  0.00  0.00    +0.193 C 
ENDBRANCH  36  37
ENDBRANCH  35  36
ENDBRANCH  34  35
ENDBRANCH  10  34
TORSDOF 12
