REMARK  Name = ZINC44422607
REMARK  4 active torsions:
REMARK  status: ('A' for Active; 'I' for Inactive)
REMARK    1  A    between atoms: C_7  and  C_11
REMARK    2  A    between atoms: C_11  and  C_12
REMARK    3  A    between atoms: C_14  and  C_17
REMARK    4  A    between atoms: N_22  and  C_24
REMARK                            x       y       z     vdW  Elec       q    Type
REMARK                         _______ _______ _______ _____ _____    ______ ____
ROOT
ATOM      1  C   UNL     1       0.242  -3.584  -1.434  0.00  0.00    +0.232 A 
ATOM      2  N   UNL     1       0.848  -4.399  -2.252  0.00  0.00    -0.195 NA
ATOM      3  C   UNL     1       0.203  -4.436  -3.424  0.00  0.00    +0.177 A 
ATOM      4  N   UNL     1      -0.826  -3.641  -3.364  0.00  0.00    -0.061 NA
ATOM      5  O   UNL     1      -0.824  -3.074  -2.062  0.00  0.00    -0.338 OA
ENDROOT
BRANCH   3   6
ATOM      6  C   UNL     1       0.603  -5.263  -4.619  0.00  0.00    +0.087 C 
ATOM      7  C   UNL     1       0.781  -4.375  -5.872  0.00  0.00    +0.109 C 
ATOM      8  C   UNL     1       0.253  -5.225  -7.007  0.00  0.00    +0.221 C 
ATOM      9  O   UNL     1       0.462  -5.020  -8.184  0.00  0.00    -0.275 OA
ATOM     10  N   UNL     1      -0.483  -6.239  -6.521  0.00  0.00    -0.268 N 
ATOM     11  C   UNL     1      -0.547  -6.198  -5.054  0.00  0.00    +0.125 C 
BRANCH  10  12
ATOM     12  C   UNL     1      -1.107  -7.213  -7.311  0.00  0.00    +0.072 A 
ATOM     13  C   UNL     1      -0.434  -8.383  -7.635  0.00  0.00    +0.028 A 
ATOM     14  C   UNL     1      -1.052  -9.341  -8.415  0.00  0.00    +0.022 A 
ATOM     15  C   UNL     1      -2.341  -9.137  -8.874  0.00  0.00    +0.044 A 
ATOM     16  C   UNL     1      -3.016  -7.972  -8.554  0.00  0.00    +0.060 A 
ATOM     17  C   UNL     1      -2.405  -7.011  -7.769  0.00  0.00    +0.146 A 
ATOM     18  F   UNL     1      -3.066  -5.876  -7.451  0.00  0.00    -0.203 F 
ATOM     19 CL   UNL     1      -3.113 -10.343  -9.854  0.00  0.00    -0.083 Cl
ENDBRANCH  10  12
ENDBRANCH   3   6
BRANCH   1  20
ATOM     20  C   UNL     1       0.666  -3.275  -0.021  0.00  0.00    +0.136 C 
BRANCH  20  27
ATOM     21  C   UNL     1      -0.017   1.362   0.009  0.00  0.00    +0.001 A 
ATOM     22  C   UNL     1       1.170   2.083   0.002  0.00  0.00    +0.002 A 
ATOM     23  C   UNL     1       2.386   1.436  -0.013  0.00  0.00    +0.026 A 
ATOM     24  C   UNL     1       2.428   0.046  -0.021  0.00  0.00    +0.047 A 
ATOM     25  C   UNL     1       1.223  -0.681  -0.013  0.00  0.00    +0.003 A 
ATOM     26  C   UNL     1       0.002  -0.004   0.002  0.00  0.00    +0.010 A 
ATOM     27  C   UNL     1       1.604  -2.095  -0.025  0.00  0.00    -0.013 A 
ATOM     28  C   UNL     1       2.945  -2.141  -0.038  0.00  0.00    +0.087 A 
ATOM     29  N   UNL     1       3.455  -0.871  -0.036  0.00  0.00    -0.360 N 
ATOM     30  H   UNL     1       4.399  -0.650  -0.044  0.00  0.00    +0.165 HD
ENDBRANCH  20  27
ENDBRANCH   1  20
TORSDOF 4
