REMARK  Name = ZINC35907979
REMARK  7 active torsions:
REMARK  status: ('A' for Active; 'I' for Inactive)
REMARK    1  A    between atoms: C_1  and  C_2
REMARK    2  A    between atoms: C_2  and  C_3
REMARK    3  A    between atoms: C_2  and  C_4
REMARK    4  A    between atoms: C_4  and  N_5
REMARK    5  A    between atoms: C_6  and  C_8
REMARK    6  A    between atoms: C_13  and  C_30
REMARK    7  A    between atoms: N_21  and  C_24
REMARK                            x       y       z     vdW  Elec       q    Type
REMARK                         _______ _______ _______ _____ _____    ______ ____
ROOT
ATOM      1  C   UNL     1      -0.315  -0.103   4.898  0.00  0.00    +0.098 C 
ATOM      2  C   UNL     1      -1.708  -0.685   4.792  0.00  0.00    +0.051 C 
ATOM      3  C   UNL     1      -1.729  -2.157   5.088  0.00  0.00    -0.025 A 
ATOM      4  C   UNL     1      -2.682  -2.964   4.494  0.00  0.00    +0.017 A 
ATOM      5  C   UNL     1      -2.710  -4.319   4.762  0.00  0.00    +0.055 A 
ATOM      6  C   UNL     1      -1.786  -4.874   5.629  0.00  0.00    +0.014 A 
ATOM      7  C   UNL     1      -0.832  -4.075   6.225  0.00  0.00    +0.024 A 
ATOM      8  C   UNL     1      -0.799  -2.711   5.955  0.00  0.00    +0.033 A 
ATOM      9  N   UNL     1       0.169  -1.910   6.548  0.00  0.00    -0.329 N 
ATOM     10  C   UNL     1       0.461  -0.558   6.103  0.00  0.00    +0.069 C 
ATOM     11  C   UNL     1       0.304   0.396   7.288  0.00  0.00    -0.055 C 
ATOM     12  N   UNL     1       1.157  -0.070   8.392  0.00  0.00    +0.384 N 
ATOM     13  C   UNL     1       0.731  -1.399   8.847  0.00  0.00    -0.059 C 
ATOM     14  C   UNL     1       0.921  -2.412   7.716  0.00  0.00    +0.087 C 
ATOM     15  H   UNL     1       2.114  -0.118   8.076  0.00  0.00    -0.081 HD
ENDROOT
BRANCH  12  16
ATOM     16  C   UNL     1       1.063   0.878   9.510  0.00  0.00    -0.068 C 
ATOM     17  C   UNL     1       1.531   2.259   9.048  0.00  0.00    -0.015 C 
ATOM     18  C   UNL     1       1.433   3.247  10.213  0.00  0.00    -0.002 C 
ATOM     19  C   UNL     1       2.319   2.766  11.364  0.00  0.00    -0.000 C 
ATOM     20  C   UNL     1       1.851   1.385  11.826  0.00  0.00    -0.002 C 
ATOM     21  C   UNL     1       1.949   0.398  10.662  0.00  0.00    -0.015 C 
ENDBRANCH  12  16
BRANCH   1  23
ATOM     22  N   UNL     1      -0.008  -0.140   2.444  0.00  0.00    -0.315 N 
ATOM     23  C   UNL     1       0.457  -0.484   3.661  0.00  0.00    +0.218 C 
ATOM     24  O   UNL     1       1.496  -1.101   3.761  0.00  0.00    -0.275 OA
ATOM     25  H   UNL     1      -0.840   0.353   2.364  0.00  0.00    +0.149 HD
BRANCH  22  26
ATOM     26  C   UNL     1       0.742  -0.511   1.242  0.00  0.00    +0.107 C 
BRANCH  26  28
ATOM     27  C   UNL     1      -0.019   1.526   0.010  0.00  0.00    +0.009 C 
ATOM     28  C   UNL     1       0.002  -0.004   0.002  0.00  0.00    -0.000 C 
ATOM     29  C   UNL     1       0.718  -0.497  -1.257  0.00  0.00    +0.009 C 
ENDBRANCH  26  28
ENDBRANCH  22  26
ENDBRANCH   1  23
BRANCH   5  30
ATOM     30  C   UNL     1      -3.750  -5.194   4.110  0.00  0.00    +0.417 C 
ATOM     31  F   UNL     1      -3.254  -5.682   2.896  0.00  0.00    -0.166 F 
ATOM     32  F   UNL     1      -4.053  -6.267   4.955  0.00  0.00    -0.166 F 
ATOM     33  F   UNL     1      -4.907  -4.445   3.873  0.00  0.00    -0.166 F 
ENDBRANCH   5  30
TORSDOF 5
