REMARK  Name = ZINC23223847
REMARK  7 active torsions:
REMARK  status: ('A' for Active; 'I' for Inactive)
REMARK    1  A    between atoms: C_1  and  C_2
REMARK    2  A    between atoms: C_2  and  C_4
REMARK    3  A    between atoms: C_2  and  O_15
REMARK    4  A    between atoms: O_15  and  C_16
REMARK    5  A    between atoms: C_16  and  C_18
REMARK    6  A    between atoms: C_23  and  S_24
REMARK    7  A    between atoms: S_24  and  C_25
REMARK                            x       y       z     vdW  Elec       q    Type
REMARK                         _______ _______ _______ _____ _____    ______ ____
ROOT
ATOM      1  C   UNL     1       1.515   2.735   1.230  0.00  0.00    +0.062 C 
ATOM      2  C   UNL     1       1.343   1.867  -0.017  0.00  0.00    +0.259 C 
ENDROOT
BRANCH   2   3
ATOM      3  C   UNL     1      -0.023   1.232  -0.003  0.00  0.00    +0.260 C 
ATOM      4  O   UNL     1      -0.134   0.035   0.160  0.00  0.00    -0.271 OA
ATOM      5  N   UNL     1      -1.122   1.993  -0.177  0.00  0.00    -0.268 N 
ATOM      6  C   UNL     1      -1.111   3.427  -0.475  0.00  0.00    +0.118 C 
ATOM      7  C   UNL     1      -2.592   3.827  -0.583  0.00  0.00    +0.056 C 
ATOM      8  C   UNL     1      -3.352   2.547  -0.320  0.00  0.00    -0.024 A 
ATOM      9  C   UNL     1      -2.439   1.530  -0.094  0.00  0.00    +0.040 A 
ATOM     10  C   UNL     1      -2.909   0.244   0.175  0.00  0.00    +0.024 A 
ATOM     11  C   UNL     1      -4.265  -0.007   0.213  0.00  0.00    +0.002 A 
ATOM     12  C   UNL     1      -5.168   1.015  -0.014  0.00  0.00    +0.000 A 
ATOM     13  C   UNL     1      -4.709   2.292  -0.281  0.00  0.00    +0.005 A 
ENDBRANCH   2   3
BRANCH   2  14
ATOM     14  O   UNL     1       2.359   0.829  -0.028  0.00  0.00    -0.449 OA
BRANCH  14  15
ATOM     15  C   UNL     1       3.524   1.120  -0.641  0.00  0.00    +0.341 C 
ATOM     16  O   UNL     1       3.686   2.210  -1.152  0.00  0.00    -0.245 OA
BRANCH  15  17
ATOM     17  C   UNL     1       4.600   0.116  -0.691  0.00  0.00    +0.073 A 
ATOM     18  C   UNL     1       4.420  -1.138  -0.100  0.00  0.00    +0.016 A 
ATOM     19  C   UNL     1       5.429  -2.074  -0.154  0.00  0.00    +0.001 A 
ATOM     20  C   UNL     1       6.628  -1.777  -0.784  0.00  0.00    +0.001 A 
ATOM     21  C   UNL     1       6.824  -0.543  -1.369  0.00  0.00    +0.016 A 
ATOM     22  C   UNL     1       5.816   0.414  -1.329  0.00  0.00    +0.027 A 
BRANCH  22  23
ATOM     23  S   UNL     1       6.063   1.992  -2.074  0.00  0.00    -0.055 S 
BRANCH  23  24
ATOM     24  C   UNL     1       7.746   1.782  -2.704  0.00  0.00    +0.404 C 
ATOM     25  F   UNL     1       8.613   1.514  -1.639  0.00  0.00    -0.197 F 
ATOM     26  F   UNL     1       7.776   0.715  -3.609  0.00  0.00    -0.197 F 
ENDBRANCH  23  24
ENDBRANCH  22  23
ENDBRANCH  15  17
ENDBRANCH  14  15
ENDBRANCH   2  14
TORSDOF 6
