REMARK  Name = ZINC21258947
REMARK  2 active torsions:
REMARK  status: ('A' for Active; 'I' for Inactive)
REMARK    1  A    between atoms: C_5  and  C_7
REMARK    2  A    between atoms: C_12  and  C_22
REMARK                            x       y       z     vdW  Elec       q    Type
REMARK                         _______ _______ _______ _____ _____    ______ ____
ROOT
ATOM      1  C   UNL     1       6.243  -1.725  -4.168  0.00  0.00    +0.033 C 
ATOM      2  C   UNL     1       7.562  -1.115  -3.698  0.00  0.00    +0.059 C 
ATOM      3  C   UNL     1       7.382  -0.474  -2.333  0.00  0.00    +0.017 C 
ATOM      4  C   UNL     1       6.503  -0.981  -1.451  0.00  0.00    +0.037 C 
ATOM      5  C   UNL     1       6.236  -0.453  -0.063  0.00  0.00    +0.143 C 
ATOM      6  N   UNL     1       7.193   0.529   0.403  0.00  0.00    -0.331 N 
ATOM      7  C   UNL     1       7.312   1.768  -0.225  0.00  0.00    +0.049 A 
ATOM      8  C   UNL     1       6.998   2.946   0.433  0.00  0.00    +0.025 A 
ATOM      9  C   UNL     1       7.086   4.149  -0.246  0.00  0.00    +0.002 A 
ATOM     10  C   UNL     1       7.481   4.176  -1.572  0.00  0.00    +0.002 A 
ATOM     11  C   UNL     1       7.813   3.002  -2.226  0.00  0.00    +0.025 A 
ATOM     12  C   UNL     1       7.747   1.802  -1.541  0.00  0.00    +0.052 A 
ATOM     13  N   UNL     1       8.175   0.603  -2.099  0.00  0.00    -0.316 N 
ATOM     14  C   UNL     1       5.724  -2.112  -1.792  0.00  0.00    +0.163 C 
ATOM     15  O   UNL     1       4.951  -2.561  -0.970  0.00  0.00    -0.292 OA
ATOM     16  C   UNL     1       5.820  -2.775  -3.134  0.00  0.00    +0.088 C 
ATOM     17  H   UNL     1       7.839   0.301   1.263  0.00  0.00    +0.147 HD
ATOM     18  H   UNL     1       9.243   0.565  -2.357  0.00  0.00    +0.152 HD
ENDROOT
BRANCH   5  19
ATOM     19  C   UNL     1       4.865   0.173  -0.046  0.00  0.00    +0.059 A 
ATOM     20  C   UNL     1       4.297   0.589  -1.192  0.00  0.00    +0.205 A 
ATOM     21  O   UNL     1       3.084   1.152  -1.238  0.00  0.00    -0.462 OA
ATOM     22  C   UNL     1       2.334   1.345  -0.134  0.00  0.00    +0.138 A 
ATOM     23  C   UNL     1       1.077   1.931  -0.216  0.00  0.00    +0.048 A 
ATOM     24  C   UNL     1       0.329   2.117   0.926  0.00  0.00    +0.023 A 
ATOM     25  C   UNL     1       0.817   1.725   2.165  0.00  0.00    +0.042 A 
ATOM     26  C   UNL     1       2.062   1.141   2.268  0.00  0.00    +0.035 A 
ATOM     27  C   UNL     1       2.827   0.948   1.119  0.00  0.00    +0.066 A 
ATOM     28  C   UNL     1       4.165   0.326   1.180  0.00  0.00    +0.198 A 
ATOM     29  O   UNL     1       4.648  -0.039   2.238  0.00  0.00    -0.287 OA
ATOM     30 CL   UNL     1      -0.144   1.969   3.590  0.00  0.00    -0.084 Cl
ENDBRANCH   5  19
BRANCH   1  35
ATOM     31  C   UNL     1       7.515  -4.011  -6.890  0.00  0.00    +0.000 A 
ATOM     32  C   UNL     1       6.780  -3.580  -7.979  0.00  0.00    +0.001 A 
ATOM     33  C   UNL     1       5.871  -2.549  -7.835  0.00  0.00    +0.020 A 
ATOM     34  C   UNL     1       5.693  -1.952  -6.600  0.00  0.00    +0.044 A 
ATOM     35  C   UNL     1       6.433  -2.379  -5.512  0.00  0.00    -0.025 A 
ATOM     36  C   UNL     1       7.342  -3.410  -5.657  0.00  0.00    +0.005 A 
ATOM     37 CL   UNL     1       4.545  -0.662  -6.417  0.00  0.00    -0.083 Cl
ENDBRANCH   1  35
TORSDOF 2
