REMARK  Name = ZINC66705979
REMARK  9 active torsions:
REMARK  status: ('A' for Active; 'I' for Inactive)
REMARK    1  A    between atoms: C_1  and  C_2
REMARK    2  A    between atoms: C_2  and  C_4
REMARK    3  A    between atoms: C_2  and  N_21
REMARK    4  A    between atoms: C_10  and  C_13
REMARK    5  A    between atoms: C_22  and  O_24
REMARK    6  A    between atoms: O_24  and  C_25
REMARK    7  A    between atoms: C_25  and  C_26
REMARK    8  A    between atoms: C_25  and  C_27
REMARK    9  A    between atoms: C_25  and  C_28
REMARK                            x       y       z     vdW  Elec       q    Type
REMARK                         _______ _______ _______ _____ _____    ______ ____
ROOT
ATOM      1  C   UNL     1       0.836  -0.462   1.171  0.00  0.00    +0.236 C 
ATOM      2  O   UNL     1       0.367  -1.227   1.987  0.00  0.00    -0.274 OA
ATOM      3  N   UNL     1       2.100  -0.017   1.312  0.00  0.00    -0.295 N 
ATOM      4  C   UNL     1       2.651   1.002   0.404  0.00  0.00    +0.136 C 
ATOM      5  C   UNL     1       3.274   2.117   1.251  0.00  0.00    +0.179 C 
ATOM      6  O   UNL     1       4.188   1.542   2.188  0.00  0.00    -0.369 OA
ATOM      7  C   UNL     1       3.579   0.654   3.129  0.00  0.00    +0.166 C 
ATOM      8  C   UNL     1       2.969  -0.532   2.382  0.00  0.00    +0.144 C 
ENDROOT
BRANCH   7   9
ATOM      9  C   UNL     1       4.620   0.160   4.101  0.00  0.00    -0.015 A 
ATOM     10  C   UNL     1       5.916  -0.060   3.672  0.00  0.00    +0.009 A 
ATOM     11  C   UNL     1       6.872  -0.513   4.561  0.00  0.00    +0.041 A 
ATOM     12  C   UNL     1       6.532  -0.747   5.882  0.00  0.00    +0.158 A 
ATOM     13  C   UNL     1       5.233  -0.527   6.312  0.00  0.00    +0.159 A 
ATOM     14  C   UNL     1       4.279  -0.068   5.420  0.00  0.00    +0.047 A 
ATOM     15  F   UNL     1       4.899  -0.755   7.601  0.00  0.00    -0.202 F 
ATOM     16  F   UNL     1       7.466  -1.191   6.752  0.00  0.00    -0.202 F 
ENDBRANCH   7   9
BRANCH   1  18
ATOM     17  C   UNL     1      -0.690   1.311   0.348  0.00  0.00    +0.038 C 
ATOM     18  C   UNL     1       0.003  -0.007   0.000  0.00  0.00    +0.159 C 
BRANCH  18  19
ATOM     19  N   UNL     1      -1.006  -1.024  -0.306  0.00  0.00    -0.270 N 
ATOM     20  C   UNL     1      -1.517  -1.113  -1.550  0.00  0.00    +0.401 C 
ATOM     21  O   UNL     1      -1.141  -0.351  -2.418  0.00  0.00    -0.226 OA
ATOM     22  H   UNL     1      -1.306  -1.633   0.387  0.00  0.00    +0.153 HD
BRANCH  20  23
ATOM     23  O   UNL     1      -2.444  -2.048  -1.831  0.00  0.00    -0.445 OA
BRANCH  23  24
ATOM     24  C   UNL     1      -2.942  -2.086  -3.170  0.00  0.00    +0.107 C 
ATOM     25  C   UNL     1      -1.786  -2.350  -4.136  0.00  0.00    +0.055 C 
ATOM     26  C   UNL     1      -3.979  -3.204  -3.297  0.00  0.00    +0.055 C 
ATOM     27  C   UNL     1      -3.595  -0.744  -3.509  0.00  0.00    +0.055 C 
ENDBRANCH  23  24
ENDBRANCH  20  23
ENDBRANCH  18  19
ENDBRANCH   1  18
TORSDOF 5
