REMARK  Name = ZINC02626185
REMARK  5 active torsions:
REMARK  status: ('A' for Active; 'I' for Inactive)
REMARK    1  A    between atoms: C_7  and  C_11
REMARK    2  A    between atoms: C_11  and  C_12
REMARK    3  A    between atoms: C_12  and  C_13
REMARK    4  A    between atoms: N_15  and  N_16
REMARK    5  A    between atoms: C_17  and  C_19
REMARK                            x       y       z     vdW  Elec       q    Type
REMARK                         _______ _______ _______ _____ _____    ______ ____
ROOT
ATOM      1  C   UNL     1       3.524   1.907  -0.021  0.00  0.00    +0.229 C 
ATOM      2  O   UNL     1       3.508   3.120  -0.015  0.00  0.00    -0.274 OA
ATOM      3  N   UNL     1       2.366   1.217  -0.014  0.00  0.00    -0.234 N 
ATOM      4  H   UNL     1       2.379   0.247  -0.019  0.00  0.00    +0.173 HD
ENDROOT
BRANCH   3   5
ATOM      5  N   UNL     1       1.143   1.901   0.001  0.00  0.00    -0.230 N 
ATOM      6  C   UNL     1      -0.014   1.211   0.009  0.00  0.00    +0.260 C 
ATOM      7  O   UNL     1       0.002  -0.004   0.002  0.00  0.00    -0.269 OA
ATOM      8  H   UNL     1       1.130   2.871   0.007  0.00  0.00    +0.173 HD
BRANCH   6   9
ATOM      9  C   UNL     1      -1.304   1.933   0.019  0.00  0.00    +0.038 A 
ATOM     10  C   UNL     1      -1.326   3.329   0.032  0.00  0.00    +0.014 A 
ATOM     11  C   UNL     1      -2.533   3.996   0.035  0.00  0.00    +0.021 A 
ATOM     12  C   UNL     1      -3.721   3.285   0.037  0.00  0.00    +0.041 A 
ATOM     13  C   UNL     1      -3.706   1.900   0.030  0.00  0.00    +0.021 A 
ATOM     14  C   UNL     1      -2.505   1.221   0.021  0.00  0.00    +0.014 A 
ATOM     15 CL   UNL     1      -5.236   4.132   0.048  0.00  0.00    -0.084 Cl
ENDBRANCH   6   9
ENDBRANCH   3   5
BRANCH   1  16
ATOM     16  C   UNL     1       4.839   1.171  -0.038  0.00  0.00    +0.102 C 
BRANCH  16  17
ATOM     17  C   UNL     1       5.988   2.181  -0.043  0.00  0.00    +0.046 C 
BRANCH  17  24
ATOM     18  C   UNL     1       8.609   0.374  -3.484  0.00  0.00    +0.001 A 
ATOM     19  C   UNL     1       9.771  -0.228  -3.020  0.00  0.00    +0.002 A 
ATOM     20  C   UNL     1      10.059  -0.253  -1.673  0.00  0.00    +0.026 A 
ATOM     21  C   UNL     1       9.179   0.329  -0.767  0.00  0.00    +0.047 A 
ATOM     22  C   UNL     1       8.003   0.937  -1.242  0.00  0.00    +0.003 A 
ATOM     23  C   UNL     1       7.730   0.951  -2.612  0.00  0.00    +0.010 A 
ATOM     24  C   UNL     1       7.304   1.446  -0.060  0.00  0.00    -0.022 A 
ATOM     25  C   UNL     1       8.059   1.137   1.006  0.00  0.00    +0.087 A 
ATOM     26  N   UNL     1       9.181   0.465   0.603  0.00  0.00    -0.360 N 
ATOM     27  H   UNL     1       9.877   0.137   1.194  0.00  0.00    +0.165 HD
ENDBRANCH  17  24
ENDBRANCH  16  17
ENDBRANCH   1  16
TORSDOF 5
