REMARK  Name = ZINC62038869
REMARK  11 active torsions:
REMARK  status: ('A' for Active; 'I' for Inactive)
REMARK    1  A    between atoms: C_1  and  C_2
REMARK    2  A    between atoms: C_2  and  C_4
REMARK    3  A    between atoms: C_2  and  S_16
REMARK    4  A    between atoms: N_6  and  C_7
REMARK    5  A    between atoms: C_9  and  C_14
REMARK    6  A    between atoms: C_12  and  O_13
REMARK    7  A    between atoms: S_16  and  C_17
REMARK    8  A    between atoms: C_19  and  C_26
REMARK    9  A    between atoms: C_29  and  C_32
REMARK   10  A    between atoms: C_32  and  C_33
REMARK   11  A    between atoms: C_32  and  C_34
REMARK                            x       y       z     vdW  Elec       q    Type
REMARK                         _______ _______ _______ _____ _____    ______ ____
ROOT
ATOM      1  C   UNL     1      -0.018  -0.167   3.099  0.00  0.00    +0.110 A 
ATOM      2  C   UNL     1       0.331  -0.570   4.417  0.00  0.00    +0.047 A 
ATOM      3  C   UNL     1       1.434  -1.409   4.872  0.00  0.00    +0.001 A 
ATOM      4  C   UNL     1       1.562  -1.654   6.197  0.00  0.00    +0.056 A 
ATOM      5  S   UNL     1       0.197  -0.763   6.918  0.00  0.00    -0.076 S 
ATOM      6  C   UNL     1      -0.510  -0.088   5.440  0.00  0.00    +0.113 A 
ATOM      7  N   UNL     1      -1.547   0.683   5.171  0.00  0.00    -0.228 NA
ATOM      8  C   UNL     1      -1.822   1.023   3.927  0.00  0.00    +0.223 A 
ATOM      9  N   UNL     1      -1.073   0.613   2.920  0.00  0.00    -0.228 NA
ENDROOT
BRANCH   3  10
ATOM     10  C   UNL     1       2.396  -1.983   3.902  0.00  0.00    -0.017 A 
ATOM     11  C   UNL     1       3.134  -1.144   3.067  0.00  0.00    +0.009 A 
ATOM     12  C   UNL     1       4.028  -1.685   2.166  0.00  0.00    +0.004 A 
ATOM     13  C   UNL     1       4.194  -3.056   2.089  0.00  0.00    -0.045 A 
ATOM     14  C   UNL     1       3.465  -3.894   2.915  0.00  0.00    +0.004 A 
ATOM     15  C   UNL     1       2.572  -3.364   3.824  0.00  0.00    +0.009 A 
BRANCH  13  16
ATOM     16  C   UNL     1       5.172  -3.640   1.103  0.00  0.00    +0.013 C 
ATOM     17  C   UNL     1       6.238  -4.441   1.854  0.00  0.00    +0.012 C 
ATOM     18  C   UNL     1       4.429  -4.563   0.134  0.00  0.00    +0.012 C 
ENDBRANCH  13  16
ENDBRANCH   3  10
BRANCH   1  19
ATOM     19  S   UNL     1       0.945  -0.695   1.721  0.00  0.00    -0.093 S 
BRANCH  19  21
ATOM     20  C   UNL     1       0.241   1.590   0.392  0.00  0.00    +0.029 C 
ATOM     21  C   UNL     1       0.124   0.067   0.294  0.00  0.00    +0.136 C 
BRANCH  21  22
ATOM     22  C   UNL     1       0.782  -0.407  -0.976  0.00  0.00    +0.230 C 
ATOM     23  O   UNL     1       1.902  -0.871  -0.943  0.00  0.00    -0.274 OA
ATOM     24  N   UNL     1       0.125  -0.315  -2.150  0.00  0.00    -0.282 N 
ATOM     25  H   UNL     1      -0.797  -0.015  -2.167  0.00  0.00    +0.155 HD
BRANCH  24  26
ATOM     26  C   UNL     1       0.775  -0.653  -3.345  0.00  0.00    +0.076 A 
ATOM     27  C   UNL     1       1.753  -1.630  -3.347  0.00  0.00    +0.038 A 
ATOM     28  C   UNL     1       2.399  -1.965  -4.543  0.00  0.00    +0.016 A 
ATOM     29  C   UNL     1       2.052  -1.308  -5.730  0.00  0.00    +0.015 A 
ATOM     30  C   UNL     1       1.077  -0.336  -5.719  0.00  0.00    +0.048 A 
ATOM     31  C   UNL     1       0.431  -0.008  -4.534  0.00  0.00    +0.138 A 
BRANCH  31  32
ATOM     32  O   UNL     1      -0.533   0.948  -4.530  0.00  0.00    -0.505 OA
ATOM     33  H   UNL     1      -0.201   1.841  -4.372  0.00  0.00    +0.292 HD
ENDBRANCH  31  32
BRANCH  28  34
ATOM     34  C   UNL     1       3.439  -3.002  -4.552  0.00  0.00    +0.258 C 
ATOM     35  O   UNL     1       3.999  -3.290  -5.589  0.00  0.00    -0.296 OA
ENDBRANCH  28  34
ENDBRANCH  24  26
ENDBRANCH  21  22
ENDBRANCH  19  21
ENDBRANCH   1  19
TORSDOF 8
