REMARK  Name = ZINC59338185
REMARK  6 active torsions:
REMARK  status: ('A' for Active; 'I' for Inactive)
REMARK    1  A    between atoms: N_9  and  C_10
REMARK    2  A    between atoms: C_10  and  C_11
REMARK    3  A    between atoms: C_16  and  N_17
REMARK    4  A    between atoms: C_18  and  C_20
REMARK    5  A    between atoms: C_23  and  N_25
REMARK    6  A    between atoms: C_26  and  C_28
REMARK                            x       y       z     vdW  Elec       q    Type
REMARK                         _______ _______ _______ _____ _____    ______ ____
ROOT
ATOM      1  N   UNL     1       5.710  -2.676   1.492  0.00  0.00    -0.281 N 
ATOM      2  C   UNL     1       5.590  -3.776   2.263  0.00  0.00    +0.255 C 
ATOM      3  O   UNL     1       5.452  -3.662   3.467  0.00  0.00    -0.269 OA
ATOM      4  H   UNL     1       5.739  -2.762   0.526  0.00  0.00    +0.155 HD
ENDROOT
BRANCH   1  10
ATOM      5  C   UNL     1       5.413  -0.283   1.371  0.00  0.00    -0.009 A 
ATOM      6  C   UNL     1       5.492   0.963   1.962  0.00  0.00    +0.007 A 
ATOM      7  C   UNL     1       5.953   1.088   3.259  0.00  0.00    +0.000 A 
ATOM      8  C   UNL     1       6.338  -0.035   3.970  0.00  0.00    +0.002 A 
ATOM      9  C   UNL     1       6.263  -1.283   3.385  0.00  0.00    +0.023 A 
ATOM     10  C   UNL     1       5.793  -1.413   2.084  0.00  0.00    +0.038 A 
BRANCH   5  11
ATOM     11  C   UNL     1       4.910  -0.418  -0.043  0.00  0.00    +0.142 C 
BRANCH  11  20
ATOM     12  C   UNL     1       0.002   1.416   0.041  0.00  0.00    +0.000 A 
ATOM     13  C   UNL     1       1.197   2.112   0.028  0.00  0.00    +0.002 A 
ATOM     14  C   UNL     1       2.396   1.433   0.006  0.00  0.00    +0.023 A 
ATOM     15  C   UNL     1       2.414   0.037  -0.003  0.00  0.00    +0.033 A 
ATOM     16  C   UNL     1       1.212  -0.652   0.011  0.00  0.00    -0.025 A 
ATOM     17  C   UNL     1       0.012   0.034   0.033  0.00  0.00    +0.005 A 
ATOM     18  C   UNL     1       1.506  -2.135  -0.002  0.00  0.00    +0.056 C 
ATOM     19  C   UNL     1       3.041  -2.223  -0.025  0.00  0.00    +0.110 C 
ATOM     20  N   UNL     1       3.506  -0.833  -0.024  0.00  0.00    -0.325 N 
ENDBRANCH  11  20
ENDBRANCH   5  11
ENDBRANCH   1  10
BRANCH   2  21
ATOM     21  C   UNL     1       5.623  -5.064   1.671  0.00  0.00    +0.076 A 
ATOM     22  C   UNL     1       5.512  -6.307   2.279  0.00  0.00    +0.022 A 
ATOM     23  C   UNL     1       5.580  -7.391   1.444  0.00  0.00    +0.032 A 
ATOM     24  C   UNL     1       5.750  -7.176   0.096  0.00  0.00    +0.073 A 
ATOM     25  S   UNL     1       5.811  -5.503  -0.046  0.00  0.00    -0.069 S 
BRANCH  24  26
ATOM     26  N   UNL     1       5.845  -8.123  -0.915  0.00  0.00    -0.273 N 
ATOM     27  C   UNL     1       6.011  -7.729  -2.193  0.00  0.00    +0.284 C 
ATOM     28  O   UNL     1       6.079  -6.544  -2.461  0.00  0.00    -0.266 OA
ATOM     29  H   UNL     1       5.790  -9.067  -0.701  0.00  0.00    +0.156 HD
BRANCH  27  30
ATOM     30  C   UNL     1       6.111  -8.729  -3.261  0.00  0.00    +0.189 A 
ATOM     31  C   UNL     1       6.285  -8.469  -4.590  0.00  0.00    +0.054 A 
ATOM     32  C   UNL     1       6.326  -9.712  -5.242  0.00  0.00    +0.042 A 
ATOM     33  C   UNL     1       6.176 -10.663  -4.294  0.00  0.00    +0.196 A 
ATOM     34  O   UNL     1       6.052 -10.068  -3.101  0.00  0.00    -0.458 OA
ENDBRANCH  27  30
ENDBRANCH  24  26
ENDBRANCH   2  21
TORSDOF 6
