REMARK  Name = ZINC59122514
REMARK  8 active torsions:
REMARK  status: ('A' for Active; 'I' for Inactive)
REMARK    1  A    between atoms: C_4  and  C_7
REMARK    2  A    between atoms: C_7  and  N_8
REMARK    3  A    between atoms: C_11  and  N_14
REMARK    4  A    between atoms: N_17  and  C_18
REMARK    5  A    between atoms: N_17  and  C_26
REMARK    6  A    between atoms: C_18  and  C_19
REMARK    7  A    between atoms: C_24  and  O_25
REMARK    8  A    between atoms: C_26  and  C_27
REMARK                            x       y       z     vdW  Elec       q    Type
REMARK                         _______ _______ _______ _____ _____    ______ ____
ROOT
ATOM      1  N   UNL     1       5.449  -2.776   4.914  0.00  0.00    -0.297 N 
ATOM      2  C   UNL     1       6.370  -3.698   5.258  0.00  0.00    +0.303 C 
ATOM      3  O   UNL     1       6.843  -4.431   4.412  0.00  0.00    -0.253 OA
ATOM      4  N   UNL     1       6.766  -3.808   6.542  0.00  0.00    -0.279 N 
ATOM      5  H   UNL     1       5.071  -2.192   5.589  0.00  0.00    +0.151 HD
ENDROOT
BRANCH   1   9
ATOM      6  N   UNL     1       4.153  -0.953   1.342  0.00  0.00    +0.382 N 
ATOM      7  C   UNL     1       3.203  -1.854   2.005  0.00  0.00    -0.077 C 
ATOM      8  C   UNL     1       3.614  -2.050   3.466  0.00  0.00    +0.004 C 
ATOM      9  C   UNL     1       5.019  -2.657   3.518  0.00  0.00    +0.071 C 
ATOM     10  C   UNL     1       5.987  -1.746   2.760  0.00  0.00    +0.004 C 
ATOM     11  C   UNL     1       5.489  -1.562   1.325  0.00  0.00    -0.077 C 
ATOM     12  H   UNL     1       4.190  -0.078   1.843  0.00  0.00    -0.081 HD
BRANCH   6  13
ATOM     13  C   UNL     1       3.711  -0.707  -0.038  0.00  0.00    -0.043 C 
BRANCH  13  17
ATOM     14  C   UNL     1      -0.017   1.378   0.010  0.00  0.00    +0.000 A 
ATOM     15  C   UNL     1       1.171   2.086   0.002  0.00  0.00    +0.000 A 
ATOM     16  C   UNL     1       2.377   1.411  -0.013  0.00  0.00    +0.002 A 
ATOM     17  C   UNL     1       2.396   0.029  -0.020  0.00  0.00    -0.064 A 
ATOM     18  C   UNL     1       1.208  -0.679  -0.012  0.00  0.00    +0.002 A 
ATOM     19  C   UNL     1       0.002  -0.004   0.002  0.00  0.00    +0.000 A 
ENDBRANCH  13  17
ENDBRANCH   6  13
ENDBRANCH   1   9
BRANCH   4  20
ATOM     20  C   UNL     1       7.767  -4.810   6.917  0.00  0.00    +0.148 C 
BRANCH  20  21
ATOM     21  C   UNL     1       9.145  -4.209   6.807  0.00  0.00    +0.011 A 
ATOM     22  C   UNL     1       9.923  -4.463   5.694  0.00  0.00    +0.009 A 
ATOM     23  C   UNL     1      11.187  -3.913   5.593  0.00  0.00    +0.001 A 
ATOM     24  C   UNL     1      11.676  -3.107   6.604  0.00  0.00    +0.004 A 
ATOM     25  C   UNL     1      10.901  -2.849   7.719  0.00  0.00    +0.046 A 
ATOM     26  C   UNL     1       9.630  -3.396   7.820  0.00  0.00    +0.122 A 
BRANCH  26  27
ATOM     27  O   UNL     1       8.864  -3.139   8.913  0.00  0.00    -0.506 OA
ATOM     28  H   UNL     1       8.983  -3.772   9.634  0.00  0.00    +0.292 HD
ENDBRANCH  26  27
ENDBRANCH  20  21
ENDBRANCH   4  20
BRANCH   4  29
ATOM     29  C   UNL     1       6.195  -2.925   7.562  0.00  0.00    +0.141 C 
BRANCH  29  30
ATOM     30  C   UNL     1       4.946  -3.576   8.160  0.00  0.00    +0.136 C 
ATOM     31  C   UNL     1       4.270  -2.603   9.149  0.00  0.00    +0.035 C 
ATOM     32  C   UNL     1       3.818  -3.553  10.291  0.00  0.00    +0.031 C 
ATOM     33  C   UNL     1       4.965  -4.595  10.277  0.00  0.00    +0.160 C 
ATOM     34  O   UNL     1       5.314  -4.752   8.890  0.00  0.00    -0.375 OA
ENDBRANCH  29  30
ENDBRANCH   4  29
TORSDOF 8
