REMARK  Name = ZINC12490745
REMARK  5 active torsions:
REMARK  status: ('A' for Active; 'I' for Inactive)
REMARK    1  A    between atoms: C_3  and  N_24
REMARK    2  A    between atoms: C_6  and  N_7
REMARK    3  A    between atoms: C_8  and  C_10
REMARK    4  A    between atoms: C_10  and  O_11
REMARK    5  A    between atoms: O_11  and  C_12
REMARK                            x       y       z     vdW  Elec       q    Type
REMARK                         _______ _______ _______ _____ _____    ______ ____
ROOT
ATOM      1  C   UNL     1      -6.007   1.902   0.078  0.00  0.00    +0.324 C 
ENDROOT
BRANCH   1   3
ATOM      2  N   UNL     1      -8.451   1.524   0.094  0.00  0.00    -0.283 N 
ATOM      3  C   UNL     1      -7.211   0.996   0.077  0.00  0.00    +0.255 C 
ATOM      4  O   UNL     1      -7.064  -0.208   0.062  0.00  0.00    -0.272 OA
ATOM      5  H   UNL     1      -8.569   2.483   0.174  0.00  0.00    +0.155 HD
BRANCH   2  11
ATOM      6  C   UNL     1     -10.702   1.116  -0.682  0.00  0.00    +0.025 A 
ATOM      7  C   UNL     1     -11.801   0.286  -0.782  0.00  0.00    +0.034 A 
ATOM      8  C   UNL     1     -11.778  -0.967  -0.198  0.00  0.00    +0.126 A 
ATOM      9  C   UNL     1     -10.653  -1.395   0.483  0.00  0.00    +0.034 A 
ATOM     10  C   UNL     1      -9.549  -0.572   0.582  0.00  0.00    +0.025 A 
ATOM     11  C   UNL     1      -9.569   0.687  -0.004  0.00  0.00    +0.034 A 
BRANCH   8  12
ATOM     12  N   UNL     1     -12.960  -1.852  -0.302  0.00  0.00    +0.056 N 
ATOM     13  O   UNL     1     -12.941  -2.957   0.211  0.00  0.00    -0.126 OA
ATOM     14  O   UNL     1     -13.951  -1.476  -0.902  0.00  0.00    -0.126 OA
ENDBRANCH   8  12
ENDBRANCH   2  11
ENDBRANCH   1   3
BRANCH   1  15
ATOM     15  O   UNL     1      -4.816   1.112   0.059  0.00  0.00    -0.482 OA
BRANCH  15  16
ATOM     16  C   UNL     1      -3.633   1.780   0.057  0.00  0.00    +0.136 A 
ATOM     17  C   UNL     1      -3.629   3.178   0.073  0.00  0.00    +0.047 A 
ATOM     18  C   UNL     1      -2.461   3.875   0.072  0.00  0.00    +0.012 A 
ATOM     19  C   UNL     1      -1.237   3.183   0.054  0.00  0.00    -0.016 A 
ATOM     20  C   UNL     1      -0.012   3.872   0.053  0.00  0.00    +0.023 A 
ATOM     21  C   UNL     1       1.155   3.171   0.035  0.00  0.00    +0.018 A 
ATOM     22  C   UNL     1       1.155   1.776   0.018  0.00  0.00    +0.016 A 
ATOM     23  C   UNL     1      -0.012   1.077   0.019  0.00  0.00    +0.011 A 
ATOM     24  C   UNL     1      -1.237   1.766   0.031  0.00  0.00    -0.000 A 
ATOM     25  C   UNL     1      -2.462   1.077   0.039  0.00  0.00    +0.067 A 
ATOM     26 BR   UNL     1      -2.488  -0.814   0.017  0.00  0.00    -0.046 Br
ATOM     27 BR   UNL     1       2.801   4.102   0.034  0.00  0.00    -0.050 Br
ENDBRANCH  15  16
ENDBRANCH   1  15
TORSDOF 5
