REMARK  Name = ZINC02431852
REMARK  6 active torsions:
REMARK  status: ('A' for Active; 'I' for Inactive)
REMARK    1  A    between atoms: C_1  and  C_2
REMARK    2  A    between atoms: C_3  and  C_36
REMARK    3  A    between atoms: C_5  and  N_11
REMARK    4  A    between atoms: C_6  and  C_7
REMARK    5  A    between atoms: C_7  and  O_9
REMARK    6  A    between atoms: O_9  and  C_10
REMARK                            x       y       z     vdW  Elec       q    Type
REMARK                         _______ _______ _______ _____ _____    ______ ____
ROOT
ATOM      1  N   UNL     1       0.054  -3.119   2.085  0.00  0.00    -0.203 N 
ATOM      2  C   UNL     1       0.148  -2.808   3.384  0.00  0.00    +0.229 C 
ATOM      3  O   UNL     1       0.225  -1.684   3.831  0.00  0.00    -0.275 OA
ATOM      4  C   UNL     1       0.143  -4.077   4.205  0.00  0.00    +0.074 C 
ATOM      5  C   UNL     1      -1.156  -4.147   5.030  0.00  0.00    -0.054 C 
ATOM      6  C   UNL     1      -1.698  -2.722   5.245  0.00  0.00    -0.016 C 
ATOM      7  C   UNL     1      -2.650  -2.461   4.061  0.00  0.00    -0.020 C 
ATOM      8  C   UNL     1      -2.590  -3.742   3.205  0.00  0.00    -0.076 C 
ATOM      9  N   UNL     1      -2.146  -4.833   4.146  0.00  0.00    +0.395 N 
ATOM     10  C   UNL     1      -1.356  -5.839   3.416  0.00  0.00    +0.053 C 
ATOM     11  C   UNL     1       0.024  -5.197   3.135  0.00  0.00    +0.089 C 
ATOM     12  C   UNL     1      -0.027  -4.431   1.833  0.00  0.00    +0.230 C 
ATOM     13  O   UNL     1      -0.124  -4.928   0.732  0.00  0.00    -0.275 OA
ATOM     14  C   UNL     1      -1.213  -7.108   4.208  0.00  0.00    -0.027 A 
ATOM     15  C   UNL     1      -0.680  -7.399   5.444  0.00  0.00    +0.004 A 
ATOM     16  C   UNL     1      -0.695  -8.700   5.915  0.00  0.00    +0.000 A 
ATOM     17  C   UNL     1      -1.246  -9.706   5.142  0.00  0.00    +0.002 A 
ATOM     18  C   UNL     1      -1.782  -9.419   3.904  0.00  0.00    +0.023 A 
ATOM     19  C   UNL     1      -1.770  -8.112   3.422  0.00  0.00    +0.036 A 
ATOM     20  N   UNL     1      -2.242  -7.579   2.220  0.00  0.00    -0.286 N 
ATOM     21  C   UNL     1      -2.037  -6.251   2.139  0.00  0.00    +0.212 C 
ATOM     22  O   UNL     1      -2.343  -5.526   1.216  0.00  0.00    -0.277 OA
ATOM     23  H   UNL     1      -2.667  -8.105   1.525  0.00  0.00    +0.155 HD
ATOM     24  H   UNL     1      -2.913  -5.236   4.663  0.00  0.00    -0.079 HD
ENDROOT
BRANCH   1  29
ATOM     25  C   UNL     1       1.895   0.054  -1.410  0.00  0.00    +0.045 C 
ATOM     26  C   UNL     1       0.816  -0.620  -0.601  0.00  0.00    -0.025 A 
ATOM     27  C   UNL     1      -0.488  -0.336  -0.773  0.00  0.00    -0.008 A 
ATOM     28  S   UNL     1      -1.296  -1.392   0.409  0.00  0.00    -0.077 S 
ATOM     29  C   UNL     1       0.037  -2.158   1.081  0.00  0.00    +0.096 A 
ATOM     30  C   UNL     1       1.118  -1.615   0.402  0.00  0.00    +0.091 A 
ATOM     31  C   UNL     1      -1.114   0.642  -1.734  0.00  0.00    +0.052 C 
BRANCH  30  32
ATOM     32  C   UNL     1       2.494  -2.026   0.690  0.00  0.00    +0.342 C 
ATOM     33  O   UNL     1       3.139  -1.440   1.539  0.00  0.00    -0.245 OA
BRANCH  32  34
ATOM     34  O   UNL     1       3.047  -3.054   0.014  0.00  0.00    -0.464 OA
ATOM     35  C   UNL     1       4.393  -3.400   0.347  0.00  0.00    +0.280 C 
ENDBRANCH  32  34
ENDBRANCH  30  32
ENDBRANCH   1  29
TORSDOF 3
