REMARK  Name = ZINC14184014
REMARK  12 active torsions:
REMARK  status: ('A' for Active; 'I' for Inactive)
REMARK    1  A    between atoms: C_1  and  C_2
REMARK    2  A    between atoms: C_2  and  C_3
REMARK    3  A    between atoms: C_2  and  C_4
REMARK    4  A    between atoms: C_4  and  C_5
REMARK    5  A    between atoms: N_7  and  N_8
REMARK    6  A    between atoms: C_9  and  C_11
REMARK    7  A    between atoms: C_11  and  C_13
REMARK    8  A    between atoms: C_11  and  N_16
REMARK    9  A    between atoms: C_13  and  C_14
REMARK   10  A    between atoms: C_13  and  C_15
REMARK   11  A    between atoms: N_16  and  S_17
REMARK   12  A    between atoms: S_17  and  C_20
REMARK                            x       y       z     vdW  Elec       q    Type
REMARK                         _______ _______ _______ _____ _____    ______ ____
ROOT
ATOM      1  C   UNL     1      -2.181   0.955   1.387  0.00  0.00    +0.166 C 
ENDROOT
BRANCH   1   3
ATOM      2  N   UNL     1      -2.313   0.938  -1.082  0.00  0.00    -0.233 N 
ATOM      3  C   UNL     1      -2.925   1.172   0.095  0.00  0.00    +0.248 C 
ATOM      4  O   UNL     1      -4.075   1.557   0.115  0.00  0.00    -0.273 OA
ATOM      5  H   UNL     1      -1.418   0.565  -1.098  0.00  0.00    +0.173 HD
BRANCH   2   8
ATOM      6  C   UNL     1      -2.358   1.000  -3.462  0.00  0.00    +0.229 C 
ATOM      7  O   UNL     1      -1.239   0.533  -3.482  0.00  0.00    -0.274 OA
ATOM      8  N   UNL     1      -2.970   1.234  -2.284  0.00  0.00    -0.234 N 
ATOM      9  H   UNL     1      -3.865   1.607  -2.268  0.00  0.00    +0.173 HD
BRANCH   6  10
ATOM     10  C   UNL     1      -3.065   1.318  -4.754  0.00  0.00    +0.100 C 
BRANCH  10  12
ATOM     11  C   UNL     1      -2.919   1.166  -7.244  0.00  0.00    +0.008 C 
ATOM     12  C   UNL     1      -2.157   0.961  -5.933  0.00  0.00    -0.008 C 
ATOM     13  C   UNL     1      -0.920   1.862  -5.916  0.00  0.00    +0.008 C 
ENDBRANCH  10  12
ENDBRANCH   6  10
ENDBRANCH   2   8
ENDBRANCH   1   3
BRANCH   1  14
ATOM     14  C   UNL     1      -1.244   2.138   1.641  0.00  0.00    +0.010 C 
ATOM     15  C   UNL     1      -0.497   1.923   2.959  0.00  0.00    +0.009 C 
ATOM     16  C   UNL     1      -2.062   3.428   1.723  0.00  0.00    +0.009 C 
ENDBRANCH   1  14
BRANCH   1  17
ATOM     17  N   UNL     1      -3.139   0.845   2.490  0.00  0.00    -0.178 NA
ATOM     18  H   UNL     1      -3.481   1.646   2.917  0.00  0.00    +0.149 HD
BRANCH  17  19
ATOM     19  S   UNL     1      -3.637  -0.647   3.009  0.00  0.00    +0.059 S 
ATOM     20  O   UNL     1      -4.538  -0.422   4.085  0.00  0.00    -0.153 OA
ATOM     21  O   UNL     1      -4.004  -1.379   1.848  0.00  0.00    -0.153 OA
BRANCH  19  22
ATOM     22  C   UNL     1      -2.229  -1.458   3.691  0.00  0.00    +0.105 A 
ATOM     23  C   UNL     1      -1.398  -2.202   2.876  0.00  0.00    +0.029 A 
ATOM     24  C   UNL     1      -0.291  -2.835   3.410  0.00  0.00    +0.017 A 
ATOM     25  C   UNL     1      -0.021  -2.732   4.762  0.00  0.00    +0.018 A 
ATOM     26  C   UNL     1      -0.857  -1.991   5.579  0.00  0.00    +0.017 A 
ATOM     27  C   UNL     1      -1.960  -1.355   5.043  0.00  0.00    +0.029 A 
ATOM     28 BR   UNL     1       1.489  -3.603   5.495  0.00  0.00    -0.050 Br
ENDBRANCH  19  22
ENDBRANCH  17  19
ENDBRANCH   1  17
TORSDOF 8
