REMARK  Name = ZINC03875242
REMARK  11 active torsions:
REMARK  status: ('A' for Active; 'I' for Inactive)
REMARK    1  A    between atoms: C_1  and  C_2
REMARK    2  A    between atoms: C_10  and  O_36
REMARK    3  A    between atoms: C_21  and  N_73
REMARK    4  A    between atoms: C_23  and  C_24
REMARK    5  A    between atoms: C_23  and  N_73
REMARK    6  A    between atoms: C_24  and  C_25
REMARK    7  A    between atoms: C_25  and  C_26
REMARK    8  A    between atoms: C_26  and  C_27
REMARK    9  A    between atoms: C_27  and  C_28
REMARK   10  A    between atoms: C_28  and  N_29
REMARK   11  A    between atoms: O_36  and  C_37
REMARK                            x       y       z     vdW  Elec       q    Type
REMARK                         _______ _______ _______ _____ _____    ______ ____
ROOT
ATOM      1  C   UNL     1      -1.559  -0.396   8.784  0.00  0.00    +0.010 C 
ATOM      2  C   UNL     1      -0.968   1.005   8.612  0.00  0.00    -0.041 C 
ATOM      3  C   UNL     1      -2.055   2.041   8.324  0.00  0.00    +0.006 C 
ATOM      4  C   UNL     1      -2.857   2.365   9.591  0.00  0.00    +0.009 C 
ATOM      5  C   UNL     1      -1.906   2.920  10.652  0.00  0.00    +0.023 C 
ATOM      6  C   UNL     1      -2.660   3.365  11.873  0.00  0.00    -0.041 A 
ATOM      7  C   UNL     1      -3.868   4.027  11.692  0.00  0.00    +0.008 A 
ATOM      8  C   UNL     1      -4.590   4.477  12.777  0.00  0.00    +0.046 A 
ATOM      9  C   UNL     1      -4.106   4.267  14.060  0.00  0.00    +0.120 A 
ATOM     10  C   UNL     1      -2.905   3.602  14.239  0.00  0.00    +0.049 A 
ATOM     11  C   UNL     1      -2.181   3.145  13.147  0.00  0.00    -0.040 A 
ATOM     12  C   UNL     1      -0.889   2.420  13.419  0.00  0.00    +0.036 C 
ATOM     13  C   UNL     1      -0.029   2.329  12.159  0.00  0.00    +0.009 C 
ATOM     14  C   UNL     1      -0.908   1.824  11.015  0.00  0.00    +0.000 C 
ATOM     15  C   UNL     1      -0.095   1.403   9.818  0.00  0.00    -0.003 C 
ATOM     16  C   UNL     1       0.783   2.541   9.264  0.00  0.00    +0.003 C 
ATOM     17  C   UNL     1       1.129   2.065   7.834  0.00  0.00    -0.015 C 
ATOM     18  C   UNL     1       0.032   1.064   7.426  0.00  0.00    -0.066 C 
ENDROOT
BRANCH  18  19
ATOM     19  N   UNL     1      -0.661   1.539   6.213  0.00  0.00    +0.381 N 
ATOM     20  H   UNL     1      -0.675   2.565   6.211  0.00  0.00    -0.086 HD
ATOM     21  H   UNL     1      -1.625   1.183   6.213  0.00  0.00    -0.086 HD
BRANCH  19  22
ATOM     22  C   UNL     1       0.035   1.059   5.005  0.00  0.00    -0.082 C 
BRANCH  22  23
ATOM     23  C   UNL     1      -0.705   1.566   3.765  0.00  0.00    -0.019 C 
BRANCH  23  24
ATOM     24  C   UNL     1       0.011   1.072   2.506  0.00  0.00    -0.002 C 
BRANCH  24  25
ATOM     25  C   UNL     1      -0.729   1.579   1.267  0.00  0.00    +0.001 C 
BRANCH  25  26
ATOM     26  C   UNL     1      -0.013   1.086   0.008  0.00  0.00    +0.019 C 
BRANCH  26  27
ATOM     27  C   UNL     1      -0.753   1.593  -1.232  0.00  0.00    +0.117 C 
BRANCH  27  28
ATOM     28  N   UNL     1      -0.067   1.120  -2.437  0.00  0.00    -0.235 N 
ATOM     29  C   UNL     1       0.914   1.779  -3.079  0.00  0.00    +0.246 C 
ATOM     30  O   UNL     1       1.375   2.855  -2.759  0.00  0.00    -0.270 OA
ATOM     31  C   UNL     1       1.339   0.967  -4.241  0.00  0.00    +0.073 C 
ATOM     32  C   UNL     1       0.579  -0.140  -4.240  0.00  0.00    +0.073 C 
ATOM     33  C   UNL     1      -0.326  -0.036  -3.074  0.00  0.00    +0.246 C 
ATOM     34  O   UNL     1      -1.161  -0.854  -2.748  0.00  0.00    -0.270 OA
ENDBRANCH  27  28
ENDBRANCH  26  27
ENDBRANCH  25  26
ENDBRANCH  24  25
ENDBRANCH  23  24
ENDBRANCH  22  23
ENDBRANCH  19  22
ENDBRANCH  18  19
BRANCH   9  35
ATOM     35  O   UNL     1      -4.807   4.712  15.135  0.00  0.00    -0.495 OA
ATOM     36  C   UNL     1      -6.037   5.389  14.873  0.00  0.00    +0.277 C 
ENDBRANCH   9  35
TORSDOF 9
