REMARK  Name = ZINC35892508
REMARK  5 active torsions:
REMARK  status: ('A' for Active; 'I' for Inactive)
REMARK    1  A    between atoms: C_1  and  C_2
REMARK    2  A    between atoms: C_2  and  C_3
REMARK    3  A    between atoms: C_3  and  C_4
REMARK    4  A    between atoms: C_24  and  C_26
REMARK    5  A    between atoms: C_26  and  C_27
REMARK                            x       y       z     vdW  Elec       q    Type
REMARK                         _______ _______ _______ _____ _____    ______ ____
ROOT
ATOM      1  C   UNL     1      -1.634  -2.062   0.015  0.00  0.00    +0.132 A 
ATOM      2  N   UNL     1      -1.623  -2.701  -1.141  0.00  0.00    -0.217 NA
ATOM      3  C   UNL     1      -1.392  -4.001  -1.226  0.00  0.00    +0.133 A 
ATOM      4  C   UNL     1      -1.146  -4.739  -0.035  0.00  0.00    +0.051 A 
ATOM      5  C   UNL     1      -0.868  -6.172   0.111  0.00  0.00    -0.025 A 
ATOM      6  C   UNL     1      -0.674  -6.627   1.365  0.00  0.00    -0.004 A 
ATOM      7  S   UNL     1      -0.834  -5.200   2.408  0.00  0.00    -0.073 S 
ATOM      8  C   UNL     1      -1.173  -3.990   1.157  0.00  0.00    +0.114 A 
ATOM      9  N   UNL     1      -1.407  -2.692   1.152  0.00  0.00    -0.225 NA
ATOM     10  C   UNL     1      -0.395  -8.032   1.800  0.00  0.00    +0.043 C 
ATOM     11  C   UNL     1       0.738  -8.612   0.943  0.00  0.00    +0.005 C 
ATOM     12  C   UNL     1       0.121  -9.273  -0.286  0.00  0.00    +0.001 C 
ATOM     13  C   UNL     1      -1.138  -8.518  -0.709  0.00  0.00    +0.005 C 
ATOM     14  C   UNL     1      -0.795  -7.088  -1.108  0.00  0.00    +0.037 C 
ATOM     15  N   UNL     1      -1.390  -4.634  -2.456  0.00  0.00    -0.312 N 
ATOM     16  C   UNL     1      -2.648  -5.086  -3.067  0.00  0.00    +0.125 C 
ATOM     17  C   UNL     1      -2.762  -4.470  -4.467  0.00  0.00    +0.126 C 
ATOM     18  N   UNL     1      -1.501  -4.702  -5.186  0.00  0.00    -0.298 N 
ATOM     19  C   UNL     1      -0.243  -4.250  -4.575  0.00  0.00    +0.126 C 
ATOM     20  C   UNL     1      -0.130  -4.862  -3.178  0.00  0.00    +0.125 C 
ATOM     21  C   UNL     1      -1.499  -5.319  -6.385  0.00  0.00    +0.215 C 
ATOM     22  O   UNL     1      -2.544  -5.687  -6.879  0.00  0.00    -0.276 OA
ENDROOT
BRANCH  21  23
ATOM     23  C   UNL     1      -0.199  -5.550  -7.111  0.00  0.00    +0.092 C 
ATOM     24  C   UNL     1      -0.475  -6.263  -8.436  0.00  0.00    +0.013 C 
ENDBRANCH  21  23
BRANCH   1  25
ATOM     25  C   UNL     1      -1.905  -0.580   0.036  0.00  0.00    +0.076 C 
BRANCH  25  27
ATOM     26  C   UNL     1      -0.859   1.687  -0.074  0.00  0.00    +0.004 C 
ATOM     27  C   UNL     1      -0.584   0.182  -0.095  0.00  0.00    +0.004 C 
ENDBRANCH  25  27
ENDBRANCH   1  25
TORSDOF 3
