REMARK  Name = ZINC15737517
REMARK  6 active torsions:
REMARK  status: ('A' for Active; 'I' for Inactive)
REMARK    1  A    between atoms: C_1  and  C_2
REMARK    2  A    between atoms: C_2  and  C_4
REMARK    3  A    between atoms: C_2  and  N_14
REMARK    4  A    between atoms: C_15  and  C_17
REMARK    5  A    between atoms: C_17  and  N_18
REMARK    6  A    between atoms: C_19  and  C_21
REMARK                            x       y       z     vdW  Elec       q    Type
REMARK                         _______ _______ _______ _____ _____    ______ ____
ROOT
ATOM      1  N   UNL     1       7.231   3.169  -0.049  0.00  0.00    -0.311 N 
ATOM      2  C   UNL     1       5.904   3.405  -0.035  0.00  0.00    +0.230 C 
ATOM      3  O   UNL     1       5.491   4.545  -0.026  0.00  0.00    -0.274 OA
ATOM      4  H   UNL     1       7.561   2.257  -0.057  0.00  0.00    +0.149 HD
ENDROOT
BRANCH   1   6
ATOM      5  C   UNL     1       8.420   4.754   1.385  0.00  0.00    +0.028 C 
ATOM      6  C   UNL     1       8.175   4.290  -0.052  0.00  0.00    +0.076 C 
BRANCH   6   7
ATOM      7  C   UNL     1       9.497   3.841  -0.676  0.00  0.00    -0.010 C 
ATOM      8  C   UNL     1       9.252   3.377  -2.114  0.00  0.00    +0.012 C 
ATOM      9  C   UNL     1      10.575   2.929  -2.738  0.00  0.00    -0.010 C 
ATOM     10  C   UNL     1      11.560   4.099  -2.741  0.00  0.00    +0.007 C 
ATOM     11  C   UNL     1      11.805   4.563  -1.304  0.00  0.00    -0.010 C 
ATOM     12  C   UNL     1      10.482   5.012  -0.680  0.00  0.00    +0.012 C 
ATOM     13  C   UNL     1      12.389   3.408  -0.488  0.00  0.00    +0.007 C 
ATOM     14  C   UNL     1      11.403   2.237  -0.484  0.00  0.00    -0.010 C 
ATOM     15  C   UNL     1      11.158   1.774  -1.922  0.00  0.00    +0.007 C 
ATOM     16  C   UNL     1      10.081   2.686   0.140  0.00  0.00    +0.012 C 
ENDBRANCH   6   7
ENDBRANCH   1   6
BRANCH   2  17
ATOM     17  C   UNL     1       4.934   2.252  -0.032  0.00  0.00    +0.200 C 
BRANCH  17  18
ATOM     18  N   UNL     1       3.563   2.768  -0.017  0.00  0.00    -0.302 N 
ATOM     19  C   UNL     1       2.521   1.913  -0.011  0.00  0.00    +0.253 C 
ATOM     20  O   UNL     1       2.720   0.712  -0.019  0.00  0.00    -0.270 OA
ATOM     21  H   UNL     1       3.405   3.725  -0.010  0.00  0.00    +0.150 HD
BRANCH  19  22
ATOM     22  C   UNL     1       1.147   2.429   0.004  0.00  0.00    +0.093 A 
ATOM     23  C   UNL     1      -0.021   1.732   0.012  0.00  0.00    +0.068 A 
ATOM     24  C   UNL     1      -1.249   2.420   0.021  0.00  0.00    +0.008 A 
ATOM     25  C   UNL     1      -2.560   1.878   0.025  0.00  0.00    +0.010 A 
ATOM     26  C   UNL     1      -3.648   2.690   0.034  0.00  0.00    +0.001 A 
ATOM     27  C   UNL     1      -3.524   4.075   0.040  0.00  0.00    +0.001 A 
ATOM     28  C   UNL     1      -2.267   4.644   0.047  0.00  0.00    +0.016 A 
ATOM     29  C   UNL     1      -1.153   3.832   0.033  0.00  0.00    +0.021 A 
ATOM     30  S   UNL     1       0.598   4.127   0.018  0.00  0.00    -0.082 S 
ATOM     31 CL   UNL     1       0.002  -0.004   0.002  0.00  0.00    -0.082 Cl
ENDBRANCH  19  22
ENDBRANCH  17  18
ENDBRANCH   2  17
TORSDOF 5
