REMARK  Name = ZINC15013364
REMARK  4 active torsions:
REMARK  status: ('A' for Active; 'I' for Inactive)
REMARK    1  A    between atoms: C_6  and  O_7
REMARK    2  A    between atoms: O_7  and  C_8
REMARK    3  A    between atoms: C_8  and  C_10
REMARK    4  A    between atoms: C_10  and  N_11
REMARK                            x       y       z     vdW  Elec       q    Type
REMARK                         _______ _______ _______ _____ _____    ______ ____
ROOT
ATOM      1  C   UNL     1      -2.371  -2.844  -0.212  0.00  0.00    +0.238 C 
ENDROOT
BRANCH   1   2
ATOM      2  N   UNL     1      -2.036  -4.266  -0.321  0.00  0.00    -0.213 N 
ATOM      3  C   UNL     1      -1.821  -4.908  -1.490  0.00  0.00    +0.247 C 
ATOM      4  O   UNL     1      -1.865  -4.437  -2.607  0.00  0.00    -0.273 OA
ATOM      5  C   UNL     1      -1.513  -6.334  -1.110  0.00  0.00    +0.113 C 
ATOM      6  C   UNL     1      -0.115  -6.744  -1.592  0.00  0.00    +0.035 C 
ATOM      7  C   UNL     1      -0.274  -8.238  -1.974  0.00  0.00    +0.003 C 
ATOM      8  C   UNL     1      -1.693  -8.287  -2.596  0.00  0.00    +0.003 C 
ATOM      9  C   UNL     1      -2.518  -7.305  -1.735  0.00  0.00    +0.035 C 
ATOM     10  N   UNL     1      -1.594  -6.349   0.352  0.00  0.00    -0.285 N 
ATOM     11  C   UNL     1      -1.900  -5.090   0.726  0.00  0.00    +0.310 C 
ATOM     12  O   UNL     1      -2.041  -4.744   1.882  0.00  0.00    -0.252 OA
ATOM     13  H   UNL     1      -1.452  -7.111   0.935  0.00  0.00    +0.151 HD
ENDBRANCH   1   2
BRANCH   1  14
ATOM     14  C   UNL     1      -1.103  -2.037  -0.102  0.00  0.00    +0.330 C 
ATOM     15  O   UNL     1      -0.030  -2.593  -0.113  0.00  0.00    -0.249 OA
BRANCH  14  16
ATOM     16  O   UNL     1      -1.165  -0.701   0.009  0.00  0.00    -0.425 OA
BRANCH  16  22
ATOM     17  C   UNL     1       0.738   0.079  -1.186  0.00  0.00    +0.048 A 
ATOM     18  C   UNL     1       1.924   0.788  -1.208  0.00  0.00    +0.025 A 
ATOM     19  C   UNL     1       2.376   1.417  -0.062  0.00  0.00    +0.059 A 
ATOM     20  C   UNL     1       1.642   1.337   1.110  0.00  0.00    +0.063 A 
ATOM     21  C   UNL     1       0.456   0.628   1.135  0.00  0.00    +0.067 A 
ATOM     22  C   UNL     1       0.001  -0.003  -0.014  0.00  0.00    +0.133 A 
ATOM     23 CL   UNL     1       2.212   2.127   2.547  0.00  0.00    -0.082 Cl
ATOM     24 CL   UNL     1       3.866   2.307  -0.093  0.00  0.00    -0.082 Cl
ENDBRANCH  16  22
ENDBRANCH  14  16
ENDBRANCH   1  14
TORSDOF 4
