REMARK  Name = ZINC36270474
REMARK  6 active torsions:
REMARK  status: ('A' for Active; 'I' for Inactive)
REMARK    1  A    between atoms: C_1  and  C_2
REMARK    2  A    between atoms: C_5  and  C_8
REMARK    3  A    between atoms: C_9  and  C_18
REMARK    4  A    between atoms: C_12  and  N_17
REMARK    5  A    between atoms: C_18  and  N_19
REMARK    6  A    between atoms: C_23  and  C_26
REMARK                            x       y       z     vdW  Elec       q    Type
REMARK                         _______ _______ _______ _____ _____    ______ ____
ROOT
ATOM      1  C   UNL     1      -0.110  -4.282   0.131  0.00  0.00    +0.091 A 
ATOM      2  C   UNL     1       0.780  -5.050   0.820  0.00  0.00    +0.035 A 
ATOM      3  N   UNL     1       0.685  -6.319   0.323  0.00  0.00    -0.303 N 
ATOM      4  C   UNL     1       1.335  -7.481   0.637  0.00  0.00    +0.115 A 
ATOM      5  C   UNL     1       1.048  -8.630  -0.022  0.00  0.00    +0.041 A 
ATOM      6  C   UNL     1       0.074  -8.636  -1.041  0.00  0.00    +0.028 A 
ATOM      7  C   UNL     1      -0.576  -7.486  -1.359  0.00  0.00    +0.048 A 
ATOM      8  C   UNL     1      -0.266  -6.299  -0.663  0.00  0.00    +0.138 A 
ATOM      9  N   UNL     1      -0.739  -5.064  -0.760  0.00  0.00    -0.228 NA
ENDROOT
BRANCH   1  14
ATOM     10  C   UNL     1      -1.037   1.346   0.927  0.00  0.00    +0.044 C 
ATOM     11  C   UNL     1      -0.794  -0.126   0.719  0.00  0.00    -0.050 A 
ATOM     12  C   UNL     1      -0.658  -0.964   1.812  0.00  0.00    +0.004 A 
ATOM     13  C   UNL     1      -0.436  -2.313   1.627  0.00  0.00    +0.010 A 
ATOM     14  C   UNL     1      -0.350  -2.832   0.336  0.00  0.00    +0.002 A 
ATOM     15  C   UNL     1      -0.488  -1.984  -0.761  0.00  0.00    +0.010 A 
ATOM     16  C   UNL     1      -0.714  -0.637  -0.564  0.00  0.00    +0.004 A 
ENDBRANCH   1  14
BRANCH   5  17
ATOM     17  N   UNL     1       1.720  -9.813   0.309  0.00  0.00    -0.357 N 
ATOM     18  H   UNL     1       2.391  -9.810   1.010  0.00  0.00    +0.142 HD
ATOM     19  H   UNL     1       1.516 -10.636  -0.162  0.00  0.00    +0.142 HD
ENDBRANCH   5  17
BRANCH   2  20
ATOM     20  C   UNL     1       1.698  -4.586   1.922  0.00  0.00    -0.022 C 
BRANCH  20  21
ATOM     21  N   UNL     1       3.027  -4.301   1.365  0.00  0.00    +0.384 N 
ATOM     22  C   UNL     1       2.933  -3.176   0.427  0.00  0.00    -0.078 C 
ATOM     23  C   UNL     1       4.298  -2.927  -0.217  0.00  0.00    -0.018 C 
ATOM     24  C   UNL     1       5.320  -2.599   0.876  0.00  0.00    +0.011 C 
ATOM     25  C   UNL     1       5.356  -3.747   1.889  0.00  0.00    +0.086 C 
ATOM     26  C   UNL     1       3.951  -3.965   2.455  0.00  0.00    -0.064 C 
ATOM     27  H   UNL     1       3.367  -5.116   0.876  0.00  0.00    -0.081 HD
BRANCH  25  28
ATOM     28  C   UNL     1       6.303  -3.400   3.009  0.00  0.00    +0.357 C 
ATOM     29  O   UNL     1       6.894  -2.334   2.999  0.00  0.00    -0.246 OA
ATOM     30  O   UNL     1       6.477  -4.186   3.925  0.00  0.00    -0.246 OA
ENDBRANCH  25  28
ENDBRANCH  20  21
ENDBRANCH   2  20
TORSDOF 5
