REMARK  Name = ZINC62594921
REMARK  14 active torsions:
REMARK  status: ('A' for Active; 'I' for Inactive)
REMARK    1  A    between atoms: C_1  and  C_2
REMARK    2  A    between atoms: C_2  and  C_3
REMARK    3  A    between atoms: C_3  and  C_4
REMARK    4  A    between atoms: C_3  and  C_5
REMARK    5  A    between atoms: C_3  and  O_34
REMARK    6  A    between atoms: C_5  and  N_6
REMARK    7  A    between atoms: N_6  and  C_7
REMARK    8  A    between atoms: C_10  and  S_16
REMARK    9  A    between atoms: C_12  and  N_13
REMARK   10  A    between atoms: S_16  and  N_19
REMARK   11  A    between atoms: N_19  and  C_20
REMARK   12  A    between atoms: C_21  and  C_33
REMARK   13  A    between atoms: N_22  and  C_32
REMARK   14  A    between atoms: N_23  and  C_26
REMARK                            x       y       z     vdW  Elec       q    Type
REMARK                         _______ _______ _______ _____ _____    ______ ____
ROOT
ATOM      1  S   UNL     1       1.644  -7.114  -2.742  0.00  0.00    +0.073 S 
ATOM      2  O   UNL     1       2.729  -7.230  -3.652  0.00  0.00    -0.150 OA
ATOM      3  O   UNL     1       1.655  -7.730  -1.461  0.00  0.00    -0.150 OA
ENDROOT
BRANCH   1   7
ATOM      4  C   UNL     1       1.007  -2.685  -2.044  0.00  0.00    +0.058 A 
ATOM      5  C   UNL     1       0.308  -3.617  -1.287  0.00  0.00    +0.027 A 
ATOM      6  C   UNL     1       0.505  -4.966  -1.502  0.00  0.00    +0.031 A 
ATOM      7  C   UNL     1       1.396  -5.391  -2.470  0.00  0.00    +0.111 A 
ATOM      8  C   UNL     1       2.094  -4.467  -3.226  0.00  0.00    +0.063 A 
ATOM      9  C   UNL     1       1.897  -3.115  -3.019  0.00  0.00    +0.149 A 
BRANCH   9  10
ATOM     10  N   UNL     1       2.640  -2.126  -3.833  0.00  0.00    +0.058 N 
ATOM     11  O   UNL     1       2.094  -1.111  -4.197  0.00  0.00    -0.126 OA
ATOM     12  O   UNL     1       3.793  -2.333  -4.132  0.00  0.00    -0.126 OA
ENDBRANCH   9  10
BRANCH   4  13
ATOM     13  N   UNL     1       0.810  -1.319  -1.830  0.00  0.00    -0.339 N 
ATOM     14  H   UNL     1       1.350  -0.670  -2.308  0.00  0.00    +0.146 HD
BRANCH  13  15
ATOM     15  C   UNL     1      -0.211  -0.866  -0.882  0.00  0.00    +0.136 C 
BRANCH  15  16
ATOM     16  C   UNL     1      -0.221   0.663  -0.835  0.00  0.00    +0.078 C 
ATOM     17  C   UNL     1       1.184   1.172  -0.507  0.00  0.00    +0.043 C 
BRANCH  16  19
ATOM     18  C   UNL     1      -1.209   2.663   0.291  0.00  0.00    +0.007 C 
ATOM     19  C   UNL     1      -1.199   1.134   0.243  0.00  0.00    +0.032 C 
ENDBRANCH  16  19
BRANCH  16  20
ATOM     20  O   UNL     1      -0.629   1.176  -2.105  0.00  0.00    -0.387 OA
ATOM     21  H   UNL     1      -1.513   0.894  -2.378  0.00  0.00    +0.210 HD
ENDBRANCH  16  20
ENDBRANCH  15  16
ENDBRANCH  13  15
ENDBRANCH   4  13
ENDBRANCH   1   7
BRANCH   1  22
ATOM     22  N   UNL     1       0.303  -7.684  -3.529  0.00  0.00    -0.209 N 
ATOM     23  H   UNL     1      -0.283  -8.321  -3.090  0.00  0.00    +0.174 HD
BRANCH  22  24
ATOM     24  C   UNL     1       0.013  -7.243  -4.837  0.00  0.00    +0.135 A 
ATOM     25  C   UNL     1      -1.060  -7.600  -5.575  0.00  0.00    +0.061 A 
ATOM     26  N   UNL     1      -0.982  -6.960  -6.788  0.00  0.00    -0.282 N 
ATOM     27  N   UNL     1       0.183  -6.182  -6.797  0.00  0.00    -0.216 N 
ATOM     28  C   UNL     1       0.795  -6.343  -5.606  0.00  0.00    +0.295 A 
ATOM     29  O   UNL     1       1.834  -5.814  -5.255  0.00  0.00    -0.264 OA
ATOM     30  C   UNL     1      -1.949  -7.074  -7.883  0.00  0.00    +0.171 C 
ATOM     31  C   UNL     1      -2.156  -8.539  -5.141  0.00  0.00    +0.067 C 
BRANCH  27  32
ATOM     32  C   UNL     1       0.628  -5.376  -7.850  0.00  0.00    +0.067 A 
ATOM     33  C   UNL     1       1.941  -5.473  -8.293  0.00  0.00    +0.028 A 
ATOM     34  C   UNL     1       2.377  -4.676  -9.333  0.00  0.00    +0.002 A 
ATOM     35  C   UNL     1       1.509  -3.783  -9.934  0.00  0.00    +0.000 A 
ATOM     36  C   UNL     1       0.201  -3.685  -9.495  0.00  0.00    +0.002 A 
ATOM     37  C   UNL     1      -0.243  -4.483  -8.459  0.00  0.00    +0.028 A 
ENDBRANCH  27  32
ENDBRANCH  22  24
ENDBRANCH   1  22
TORSDOF 10
